
CDXL12

 28 31  0  0  0  0  0  0  0  0999 V2000
   -2.8267   -1.6320    0.0000 C   0  0  0  0  0  0  0  2  0  0  0  0
   -3.5411   -2.0445    0.0000 O   0  0  0  0  0  0  0  2  0  0  0  0
   -2.1122   -2.0445    0.0000 C   0  0  0  0  0  0  0  2  0  0  0  0
   -1.3977   -1.6320    0.0000 C   0  0  0  0  0  0  0  2  0  0  0  0
   -0.6832   -2.0445    0.0000 C   0  0  0  0  0  0  0  2  0  0  0  0
    0.0312   -1.6320    0.0000 C   0  0  0  0  0  0  0  2  0  0  0  0
    0.0312   -0.8070    0.0000 C   0  0  0  0  0  0  0  2  0  0  0  0
    0.7457   -0.3945    0.0000 C   0  0  0  0  0  0  0  2  0  0  0  0
    1.5303   -0.6494    0.0000 C   0  0  0  0  0  0  0  2  0  0  0  0
    2.0152    0.0180    0.0000 C   0  0  0  0  0  0  0  2  0  0  0  0
    2.8402    0.0180    0.0000 C   0  0  0  0  0  0  0  2  0  0  0  0
    1.5303    0.6855    0.0000 C   0  0  0  0  0  0  0  2  0  0  0  0
    1.3588    1.4924    0.0000 O   0  0  0  0  0  0  0  2  0  0  0  0
    2.1434    1.2375    0.0000 C   0  0  0  0  0  0  0  2  0  0  0  0
    1.9719    2.0445    0.0000 O   0  0  0  0  0  0  0  2  0  0  0  0
    2.9280    0.9826    0.0000 C   0  0  0  0  0  0  0  2  0  0  0  0
    3.5411    1.5346    0.0000 O   0  0  0  0  0  0  0  2  0  0  0  0
    0.7457    0.4305    0.0000 C   0  0  0  0  0  0  0  2  0  0  0  0
    0.8319    1.2510    0.0000 C   0  0  0  0  0  0  0  2  0  0  0  0
    0.0312    0.8430    0.0000 C   0  0  0  0  0  0  0  2  0  0  0  0
   -0.6832    0.4305    0.0000 C   0  0  0  0  0  0  0  2  0  0  0  0
   -1.3977    0.8430    0.0000 O   0  0  0  0  0  0  0  2  0  0  0  0
   -0.6832   -0.3945    0.0000 C   0  0  0  0  0  0  0  2  0  0  0  0
   -0.6832   -1.2195    0.0000 F   0  0  0  0  0  0  0  2  0  0  0  0
   -1.3977   -0.8070    0.0000 C   0  0  0  0  0  0  0  2  0  0  0  0
   -1.3977    0.0180    0.0000 C   0  0  0  0  0  0  0  2  0  0  0  0
   -2.1122   -0.3945    0.0000 C   0  0  0  0  0  0  0  2  0  0  0  0
   -2.8267   -0.8070    0.0000 C   0  0  0  0  0  0  0  2  0  0  0  0
  1  2  2  0        0
  1  3  1  0        0
  3  4  2  0        0
  4  5  1  0        0
  5  6  1  0        0
  6  7  1  0        0
  7  8  1  0        0
  8  9  1  0        0
  9 10  1  0        0
 10 11  1  0        0
 10 12  1  0        0
 12 13  1  0        0
 12 14  1  0        0
 14 15  2  0        0
 14 16  1  0        0
 16 17  1  0        0
 12 18  1  0        0
  8 18  1  0        0
 18 19  1  0        0
 18 20  1  0        0
 20 21  1  0        0
 21 22  1  0        0
 21 23  1  0        0
  7 23  1  0        0
 23 24  1  0        0
 23 25  1  0        0
  4 25  1  0        0
 25 26  1  0        0
 25 27  1  0        0
 27 28  2  0        0
  1 28  1  0        0
M  END
$$$$

CDXL12

 29 32  0  0  0  0  0  0  0  0999 V2000
   -3.5019   -0.8070    0.0000 C   0  0  0  0  0  0  0  2  0  0  0  0
   -3.5019   -1.6320    0.0000 C   0  0  0  0  0  0  0  2  0  0  0  0
   -4.2164   -2.0445    0.0000 O   0  0  0  0  0  0  0  2  0  0  0  0
   -2.7874   -2.0445    0.0000 C   0  0  0  0  0  0  0  2  0  0  0  0
   -2.0730   -1.6320    0.0000 C   0  0  0  0  0  0  0  2  0  0  0  0
   -1.3585   -2.0445    0.0000 C   0  0  0  0  0  0  0  2  0  0  0  0
   -0.6440   -1.6320    0.0000 C   0  0  0  0  0  0  0  2  0  0  0  0
   -0.6440   -0.8070    0.0000 C   0  0  0  0  0  0  0  2  0  0  0  0
    0.0704   -0.3945    0.0000 C   0  0  0  0  0  0  0  2  0  0  0  0
    0.8551   -0.6494    0.0000 C   0  0  0  0  0  0  0  2  0  0  0  0
    1.3400    0.0180    0.0000 C   0  0  0  0  0  0  0  2  0  0  0  0
    0.8551    0.6855    0.0000 C   0  0  0  0  0  0  0  2  0  0  0  0
    0.6835    1.4924    0.0000 O   0  0  0  0  0  0  0  2  0  0  0  0
    1.4682    1.2375    0.0000 C   0  0  0  0  0  0  0  2  0  0  0  0
    1.2966    2.0445    0.0000 O   0  0  0  0  0  0  0  2  0  0  0  0
    2.2528    0.9826    0.0000 C   0  0  0  0  0  0  0  2  0  0  0  0
    2.8361    1.5659    0.0000 O   0  0  0  0  0  0  0  2  0  0  0  0
    3.6330    1.3524    0.0000 C   0  0  0  0  0  0  0  2  0  0  0  0
    3.8466    0.5555    0.0000 O   0  0  0  0  0  0  0  2  0  0  0  0
    4.2164    1.9358    0.0000 C   0  0  0  0  0  0  0  2  0  0  0  0
    0.0704    0.4305    0.0000 C   0  0  0  0  0  0  0  2  0  0  0  0
    0.1567    1.2510    0.0000 C   0  0  0  0  0  0  0  2  0  0  0  0
   -0.6440    0.8430    0.0000 C   0  0  0  0  0  0  0  2  0  0  0  0
   -1.3585    0.4305    0.0000 C   0  0  0  0  0  0  0  2  0  0  0  0
   -2.0730    0.8430    0.0000 O   0  0  0  0  0  0  0  2  0  0  0  0
   -1.3585   -0.3945    0.0000 C   0  0  0  0  0  0  0  2  0  0  0  0
   -2.0730   -0.8070    0.0000 C   0  0  0  0  0  0  0  2  0  0  0  0
   -2.0730    0.0180    0.0000 C   0  0  0  0  0  0  0  2  0  0  0  0
   -2.7874   -0.3945    0.0000 C   0  0  0  0  0  0  0  2  0  0  0  0
  1  2  1  0        0
  2  3  2  0        0
  2  4  1  0        0
  4  5  2  0        0
  5  6  1  0        0
  6  7  1  0        0
  7  8  1  0        0
  8  9  1  0        0
  9 10  1  0        0
 10 11  1  0        0
 11 12  1  0        0
 12 13  1  0        0
 12 14  1  0        0
 14 15  2  0        0
 14 16  1  0        0
 16 17  1  0        0
 17 18  1  0        0
 18 19  2  0        0
 18 20  1  0        0
 12 21  1  0        0
  9 21  1  0        0
 21 22  1  0        0
 21 23  1  0        0
 23 24  1  0        0
 24 25  1  0        0
 24 26  1  0        0
  8 26  1  0        0
 26 27  1  0        0
  5 27  1  0        0
 27 28  1  0        0
 27 29  1  0        0
  1 29  1  0        0
M  END
$$$$

CDXL12

 29 32  0  0  0  0  0  0  0  0999 V2000
    4.2400    1.8317    0.0000 C   0  0  0  0  0  0  0  2  0  0  0  0
    3.6269    1.2797    0.0000 C   0  0  0  0  0  0  0  2  0  0  0  0
    3.7984    0.4727    0.0000 O   0  0  0  0  0  0  0  2  0  0  0  0
    2.8423    1.5346    0.0000 O   0  0  0  0  0  0  0  2  0  0  0  0
    2.2292    0.9826    0.0000 C   0  0  0  0  0  0  0  2  0  0  0  0
    1.4446    1.2375    0.0000 C   0  0  0  0  0  0  0  2  0  0  0  0
    1.2730    2.0445    0.0000 O   0  0  0  0  0  0  0  2  0  0  0  0
    0.8315    0.6855    0.0000 C   0  0  0  0  0  0  0  2  0  0  0  0
    0.6599    1.4924    0.0000 O   0  0  0  0  0  0  0  2  0  0  0  0
    1.3164    0.0180    0.0000 C   0  0  0  0  0  0  0  2  0  0  0  0
    0.8315   -0.6494    0.0000 C   0  0  0  0  0  0  0  2  0  0  0  0
    0.0468   -0.3945    0.0000 C   0  0  0  0  0  0  0  2  0  0  0  0
   -0.6676   -0.8070    0.0000 C   0  0  0  0  0  0  0  2  0  0  0  0
   -0.6676   -1.6320    0.0000 C   0  0  0  0  0  0  0  2  0  0  0  0
   -1.3821   -2.0445    0.0000 C   0  0  0  0  0  0  0  2  0  0  0  0
   -2.0966   -1.6320    0.0000 C   0  0  0  0  0  0  0  2  0  0  0  0
   -2.8110   -2.0445    0.0000 C   0  0  0  0  0  0  0  2  0  0  0  0
   -3.5255   -1.6320    0.0000 C   0  0  0  0  0  0  0  2  0  0  0  0
   -4.2400   -2.0445    0.0000 O   0  0  0  0  0  0  0  2  0  0  0  0
   -3.5255   -0.8070    0.0000 C   0  0  0  0  0  0  0  2  0  0  0  0
   -2.8110   -0.3945    0.0000 C   0  0  0  0  0  0  0  2  0  0  0  0
   -2.0966   -0.8070    0.0000 C   0  0  0  0  0  0  0  2  0  0  0  0
   -2.0966    0.0180    0.0000 C   0  0  0  0  0  0  0  2  0  0  0  0
   -1.3821   -0.3945    0.0000 C   0  0  0  0  0  0  0  2  0  0  0  0
   -1.3821    0.4305    0.0000 C   0  0  0  0  0  0  0  2  0  0  0  0
   -2.0966    0.8430    0.0000 O   0  0  0  0  0  0  0  2  0  0  0  0
   -0.6676    0.8430    0.0000 C   0  0  0  0  0  0  0  2  0  0  0  0
    0.0468    0.4305    0.0000 C   0  0  0  0  0  0  0  2  0  0  0  0
    0.1331    1.2510    0.0000 C   0  0  0  0  0  0  0  2  0  0  0  0
  1  2  1  0        0
  2  3  2  0        0
  2  4  1  0        0
  4  5  1  0        0
  5  6  1  0        0
  6  7  2  0        0
  6  8  1  0        0
  8  9  1  0        0
  8 10  1  0        0
 10 11  1  0        0
 11 12  1  0        0
 12 13  1  0        0
 13 14  1  0        0
 14 15  1  0        0
 15 16  1  0        0
 16 17  2  0        0
 17 18  1  0        0
 18 19  2  0        0
 18 20  1  0        0
 20 21  1  0        0
 21 22  1  0        0
 16 22  1  0        0
 22 23  1  0        0
 22 24  1  0        0
 13 24  1  0        0
 24 25  1  0        0
 25 26  2  0        0
 25 27  1  0        0
 27 28  1  0        0
  8 28  1  0        0
 12 28  1  0        0
 28 29  1  0        0
M  END
$$$$

CDXL12

 17 18  0  0  0  0  0  0  0  0999 V2000
    1.4842   -1.1674    0.0000 C   0  0  0  0  0  0  0  2  0  0  0  0
    1.0717   -0.4530    0.0000 C   0  0  0  0  0  0  0  2  0  0  0  0
    0.2467   -0.4530    0.0000 C   0  0  0  0  0  0  0  2  0  0  0  0
    0.2467   -1.2780    0.0000 C   0  0  0  0  0  0  0  2  0  0  0  0
    0.9612   -1.6905    0.0000 O   0  0  0  0  0  0  0  2  0  0  0  0
   -0.4678   -1.6905    0.0000 N   0  0  0  0  0  0  0  2  0  0  0  0
   -1.1822   -1.2780    0.0000 C   0  0  0  0  0  0  0  2  0  0  0  0
   -1.8967   -1.6905    0.0000 O   0  0  0  0  0  0  0  2  0  0  0  0
   -1.1822   -0.4530    0.0000 N   0  0  0  0  0  0  0  2  0  0  0  0
   -0.4678   -0.0405    0.0000 C   0  0  0  0  0  0  0  2  0  0  0  0
   -0.4678    0.7845    0.0000 O   0  0  0  0  0  0  0  2  0  0  0  0
    0.6592    0.2615    0.0000 C   0  0  0  0  0  0  0  2  0  0  0  0
    0.2467    0.9760    0.0000 C   0  0  0  0  0  0  0  2  0  0  0  0
    0.6592    1.6905    0.0000 C   0  0  0  0  0  0  0  2  0  0  0  0
    1.4842    1.6905    0.0000 C   0  0  0  0  0  0  0  2  0  0  0  0
    1.8967    0.9760    0.0000 C   0  0  0  0  0  0  0  2  0  0  0  0
    1.4842    0.2615    0.0000 C   0  0  0  0  0  0  0  2  0  0  0  0
  1  2  1  0        0
  2  3  1  0        0
  3  4  1  0        0
  4  5  2  0        0
  4  6  1  0        0
  6  7  1  0        0
  7  8  2  0        0
  7  9  1  0        0
  9 10  1  0        0
  3 10  1  0        0
 10 11  2  0        0
  3 12  1  0        0
 12 13  4  0        0
 13 14  4  0        0
 14 15  4  0        0
 15 16  4  0        0
 16 17  4  0        0
 12 17  4  0        0
M  END
$$$$

CDXL12

 26 29  0  0  0  0  0  0  0  0999 V2000
   -1.4623   -0.3759    0.0000 O   0  0  0  0  0  0  0  2  0  0  0  0
   -1.2074    0.4087    0.0000 C   0  0  0  0  0  0  0  2  0  0  0  0
   -1.7594    1.0218    0.0000 C   0  0  0  0  0  0  0  2  0  0  0  0
   -2.5664    0.8503    0.0000 N   0  0  0  0  0  0  0  2  0  0  0  0
   -1.5045    1.8064    0.0000 C   0  0  0  0  0  0  0  2  0  0  0  0
   -2.0565    2.4195    0.0000 C   0  0  0  0  0  0  0  2  0  0  0  0
   -0.6975    1.9780    0.0000 C   0  0  0  0  0  0  0  2  0  0  0  0
   -0.4426    2.7626    0.0000 O   0  0  0  0  0  0  0  2  0  0  0  0
   -0.1455    1.3649    0.0000 C   0  0  0  0  0  0  0  2  0  0  0  0
   -0.4004    0.5802    0.0000 C   0  0  0  0  0  0  0  2  0  0  0  0
    0.2670    0.0953    0.0000 C   0  0  0  0  0  0  0  2  0  0  0  0
   -0.1455   -0.6192    0.0000 H   0  0  0  0  0  0  0  2  0  0  0  0
    0.6795   -0.6192    0.0000 C   0  0  0  0  0  0  0  2  0  0  0  0
    0.2670   -1.3336    0.0000 O   0  0  0  0  0  0  0  2  0  0  0  0
    0.6795   -2.0481    0.0000 C   0  0  0  0  0  0  0  2  0  0  0  0
    0.2670   -2.7626    0.0000 O   0  0  0  0  0  0  0  2  0  0  0  0
    1.5045   -2.0481    0.0000 N   0  0  0  0  0  0  0  2  0  0  0  0
    0.9344    0.5802    0.0000 C   0  0  0  0  0  0  0  2  0  0  0  0
    0.9344   -0.2448    0.0000 O   0  0  0  0  0  0  0  2  0  0  0  0
    1.6489   -0.6573    0.0000 C   0  0  0  0  0  0  0  2  0  0  0  0
    1.7594    0.5802    0.0000 C   0  0  0  0  0  0  0  2  0  0  0  0
    1.8457   -0.2402    0.0000 H   0  0  0  0  0  0  0  2  0  0  0  0
    2.5664    0.7518    0.0000 N   0  0  0  0  0  0  0  2  0  0  0  0
    2.0144    1.3649    0.0000 C   0  0  0  0  0  0  0  2  0  0  0  0
    1.3469    1.8498    0.0000 C   0  0  0  0  0  0  0  2  0  0  0  0
    0.6795    1.3649    0.0000 N   0  0  0  0  0  0  0  2  0  0  0  0
  1  2  2  0        0
  2  3  1  0        0
  3  4  1  0        0
  3  5  2  0        0
  5  6  1  0        0
  5  7  1  0        0
  7  8  2  0        0
  7  9  1  0        0
  9 10  2  0        0
  2 10  1  0        0
 10 11  1  0        0
 11 12  1  6        0
 11 13  1  1        0
 13 14  1  0        0
 14 15  1  0        0
 15 16  2  0        0
 15 17  1  0        0
 11 18  1  0        0
 18 19  1  6        0
 19 20  1  0        0
 18 21  1  0        0
 21 22  1  6        0
 21 23  1  0        0
 23 24  1  0        0
 21 24  1  0        0
 24 25  1  0        0
 25 26  1  0        0
  9 26  1  0        0
 18 26  1  0        0
M  END
$$$$

CDXL12

 14 14  0  0  0  0  0  0  0  0999 V2000
   -1.9520   -0.0000    0.0000 C   0  0  0  0  0  0  0  2  0  0  0  0
   -1.2375    0.4125    0.0000 C   0  0  0  0  0  0  0  2  0  0  0  0
   -0.5230   -0.0000    0.0000 C   0  0  0  0  0  0  0  2  0  0  0  0
   -1.2375   -0.4125    0.0000 C   0  0  0  0  0  0  0  2  0  0  0  0
   -1.2375   -1.2375    0.0000 C   0  0  0  0  0  0  0  2  0  0  0  0
   -0.1105    0.7145    0.0000 C   0  0  0  0  0  0  0  2  0  0  0  0
   -0.5230    1.4289    0.0000 O   0  0  0  0  0  0  0  2  0  0  0  0
    0.7145    0.7145    0.0000 N   0  0  0  0  0  0  0  2  0  0  0  0
    1.1270   -0.0000    0.0000 C   0  0  0  0  0  0  0  2  0  0  0  0
    1.9520   -0.0000    0.0000 O   0  0  0  0  0  0  0  2  0  0  0  0
    0.7145   -0.7145    0.0000 N   0  0  0  0  0  0  0  2  0  0  0  0
    1.1270   -1.4289    0.0000 C   0  0  0  0  0  0  0  2  0  0  0  0
   -0.1105   -0.7145    0.0000 C   0  0  0  0  0  0  0  2  0  0  0  0
   -0.5230   -1.4289    0.0000 O   0  0  0  0  0  0  0  2  0  0  0  0
  1  2  1  0        0
  2  3  1  0        0
  3  4  1  0        0
  4  5  1  0        0
  3  6  1  0        0
  6  7  2  0        0
  6  8  1  0        0
  8  9  1  0        0
  9 10  2  0        0
  9 11  1  0        0
 11 12  1  0        0
 11 13  1  0        0
  3 13  1  0        0
 13 14  2  0        0
M  END
$$$$

CDXL12

 18 19  0  0  0  0  0  0  0  0999 V2000
   -0.7405   -0.2311    0.0000 C   0  0  0  0  0  0  0  2  0  0  0  0
   -1.5530   -0.0879    0.0000 C   0  0  0  0  0  0  0  2  0  0  0  0
   -1.8352    0.6874    0.0000 N   0  0  0  0  0  0  0  2  0  0  0  0
   -2.6476    0.8306    0.0000 C   0  0  0  0  0  0  0  2  0  0  0  0
   -1.3049    1.3194    0.0000 C   0  0  0  0  0  0  0  2  0  0  0  0
   -0.4924    1.1761    0.0000 C   0  0  0  0  0  0  0  2  0  0  0  0
   -0.2102    0.4009    0.0000 C   0  0  0  0  0  0  0  2  0  0  0  0
    0.3201   -0.2311    0.0000 C   0  0  0  0  0  0  0  2  0  0  0  0
    1.1325   -0.0879    0.0000 C   0  0  0  0  0  0  0  2  0  0  0  0
    1.6628   -0.7199    0.0000 C   0  0  0  0  0  0  0  2  0  0  0  0
    1.3807   -1.4951    0.0000 C   0  0  0  0  0  0  0  2  0  0  0  0
    0.5682   -1.6384    0.0000 C   0  0  0  0  0  0  0  2  0  0  0  0
    0.0379   -1.0064    0.0000 C   0  0  0  0  0  0  0  2  0  0  0  0
    0.5042    0.8134    0.0000 C   0  0  0  0  0  0  0  2  0  0  0  0
    0.5042    1.6384    0.0000 O   0  0  0  0  0  0  0  2  0  0  0  0
    1.2187    0.4009    0.0000 O   0  0  0  0  0  0  0  2  0  0  0  0
    1.9332    0.8134    0.0000 C   0  0  0  0  0  0  0  2  0  0  0  0
    2.6476    0.4009    0.0000 C   0  0  0  0  0  0  0  2  0  0  0  0
  1  2  1  0        0
  2  3  1  0        0
  3  4  1  0        0
  3  5  1  0        0
  5  6  1  0        0
  6  7  1  0        0
  1  7  1  0        0
  7  8  1  0        0
  8  9  4  0        0
  9 10  4  0        0
 10 11  4  0        0
 11 12  4  0        0
 12 13  4  0        0
  8 13  4  0        0
  7 14  1  0        0
 14 15  2  0        0
 14 16  1  0        0
 16 17  1  0        0
 17 18  1  0        0
M  END
$$$$

CDXL12

 14 14  0  0  0  0  0  0  0  0999 V2000
   -0.7145    1.0313    0.0000 C   0  0  0  0  0  0  0  2  0  0  0  0
    0.0000    1.4438    0.0000 C   0  0  0  0  0  0  0  2  0  0  0  0
    0.7145    1.0313    0.0000 C   0  0  0  0  0  0  0  2  0  0  0  0
    0.7145    0.2062    0.0000 N   0  0  0  0  0  0  0  2  0  0  0  0
    0.0000   -0.2062    0.0000 P   0  0  0  0  0  0  0  2  0  0  0  0
   -0.7145   -0.6187    0.0000 O   0  0  0  0  0  0  0  2  0  0  0  0
    0.0000   -1.0313    0.0000 N   0  0  0  0  0  0  0  2  0  0  0  0
   -0.7145   -1.4438    0.0000 C   0  0  0  0  0  0  0  2  0  0  0  0
   -1.4289   -1.0312    0.0000 C   0  0  0  0  0  0  0  2  0  0  0  0
   -2.1434   -1.4437    0.0000 Cl  0  0  0  0  0  0  0  2  0  0  0  0
    0.7145   -1.4438    0.0000 C   0  0  0  0  0  0  0  2  0  0  0  0
    1.4289   -1.0313    0.0000 C   0  0  0  0  0  0  0  2  0  0  0  0
    2.1434   -1.4438    0.0000 Cl  0  0  0  0  0  0  0  2  0  0  0  0
   -0.7145    0.2063    0.0000 O   0  0  0  0  0  0  0  2  0  0  0  0
  1  2  1  0        0
  2  3  1  0        0
  3  4  1  0        0
  4  5  1  0        0
  5  6  2  0        0
  5  7  1  0        0
  7  8  1  0        0
  8  9  1  0        0
  9 10  1  0        0
  7 11  1  0        0
 11 12  1  0        0
 12 13  1  0        0
  5 14  1  0        0
  1 14  1  0        0
M  END
$$$$

CDXL12

  6  5  0  0  0  0  0  0  0  0999 V2000
    0.3572    1.0313    0.0000 O   0  0  0  0  0  0  0  2  0  0  0  0
    0.3572    0.2062    0.0000 C   0  0  0  0  0  0  0  2  0  0  0  0
    1.0717   -0.2062    0.0000 O   0  0  0  0  0  0  0  2  0  0  0  0
   -0.3572   -0.2062    0.0000 C   0  0  0  0  0  0  0  2  0  0  0  0
   -0.3572   -1.0313    0.0000 O   0  0  0  0  0  0  0  2  0  0  0  0
   -1.0717    0.2062    0.0000 C   0  0  0  0  0  0  0  2  0  0  0  0
  1  2  2  0        0
  2  3  1  0        0
  2  4  1  0        0
  4  5  1  0        0
  4  6  1  0        0
M  END
$$$$

CDXL12

 26 29  0  0  0  0  0  0  0  0999 V2000
    1.9868    2.0445    0.0000 O   0  0  0  0  0  0  0  2  0  0  0  0
    2.1583    1.2375    0.0000 C   0  0  0  0  0  0  0  2  0  0  0  0
    1.5452    0.6855    0.0000 C   0  0  0  0  0  0  0  2  0  0  0  0
    1.3737    1.4924    0.0000 O   0  0  0  0  0  0  0  2  0  0  0  0
    0.7606    0.4305    0.0000 C   0  0  0  0  0  0  0  2  0  0  0  0
    0.7606   -0.3945    0.0000 C   0  0  0  0  0  0  0  2  0  0  0  0
    0.0461   -0.8070    0.0000 C   0  0  0  0  0  0  0  2  0  0  0  0
   -0.6684   -0.3945    0.0000 C   0  0  0  0  0  0  0  2  0  0  0  0
   -1.3829   -0.8070    0.0000 C   0  0  0  0  0  0  0  2  0  0  0  0
   -1.3829   -1.6320    0.0000 C   0  0  0  0  0  0  0  2  0  0  0  0
   -2.0973   -2.0445    0.0000 C   0  0  0  0  0  0  0  2  0  0  0  0
   -2.8118   -1.6320    0.0000 C   0  0  0  0  0  0  0  2  0  0  0  0
   -3.5263   -2.0445    0.0000 O   0  0  0  0  0  0  0  2  0  0  0  0
   -2.8118   -0.8070    0.0000 C   0  0  0  0  0  0  0  2  0  0  0  0
   -2.0973   -0.3945    0.0000 C   0  0  0  0  0  0  0  2  0  0  0  0
   -0.6684   -2.0445    0.0000 C   0  0  0  0  0  0  0  2  0  0  0  0
    0.0461   -1.6320    0.0000 C   0  0  0  0  0  0  0  2  0  0  0  0
   -1.3829    0.0180    0.0000 C   0  0  0  0  0  0  0  2  0  0  0  0
   -0.6684    0.4305    0.0000 C   0  0  0  0  0  0  0  2  0  0  0  0
   -1.3829    0.8430    0.0000 O   0  0  0  0  0  0  0  2  0  0  0  0
    0.0461    0.8430    0.0000 C   0  0  0  0  0  0  0  2  0  0  0  0
    1.5452   -0.6494    0.0000 C   0  0  0  0  0  0  0  2  0  0  0  0
    2.0301    0.0180    0.0000 C   0  0  0  0  0  0  0  2  0  0  0  0
    0.8468    1.2510    0.0000 C   0  0  0  0  0  0  0  2  0  0  0  0
    2.9429    0.9826    0.0000 C   0  0  0  0  0  0  0  2  0  0  0  0
    3.5263    1.5659    0.0000 O   0  0  0  0  0  0  0  2  0  0  0  0
  1  2  2  0        0
  2  3  1  0        0
  3  4  1  0        0
  3  5  1  0        0
  5  6  1  0        0
  6  7  1  0        0
  7  8  1  0        0
  8  9  1  0        0
  9 10  1  0        0
 10 11  2  0        0
 11 12  1  0        0
 12 13  2  0        0
 12 14  1  0        0
 14 15  1  0        0
  9 15  1  0        0
 10 16  1  0        0
 16 17  1  0        0
  7 17  1  0        0
  9 18  1  0        0
  8 19  1  0        0
 19 20  1  0        0
 19 21  1  0        0
  5 21  1  0        0
  6 22  1  0        0
 22 23  1  0        0
  3 23  1  0        0
  5 24  1  0        0
  2 25  1  0        0
 25 26  1  0        0
M  END
$$$$

CDXL12

 26 29  0  0  0  0  0  0  0  0999 V2000
   -0.6832   -2.0445    0.0000 C   0  0  0  0  0  0  0  2  0  0  0  0
   -1.3977   -1.6320    0.0000 C   0  0  0  0  0  0  0  2  0  0  0  0
   -2.1122   -2.0445    0.0000 C   0  0  0  0  0  0  0  2  0  0  0  0
   -2.8267   -1.6320    0.0000 C   0  0  0  0  0  0  0  2  0  0  0  0
   -3.5411   -2.0445    0.0000 O   0  0  0  0  0  0  0  2  0  0  0  0
   -2.8267   -0.8070    0.0000 C   0  0  0  0  0  0  0  2  0  0  0  0
   -2.1122   -0.3945    0.0000 C   0  0  0  0  0  0  0  2  0  0  0  0
   -1.3977   -0.8070    0.0000 C   0  0  0  0  0  0  0  2  0  0  0  0
   -1.3977    0.0180    0.0000 C   0  0  0  0  0  0  0  2  0  0  0  0
   -0.6832   -0.3945    0.0000 C   0  0  0  0  0  0  0  2  0  0  0  0
   -0.6832    0.4305    0.0000 C   0  0  0  0  0  0  0  2  0  0  0  0
   -1.3977    0.8430    0.0000 O   0  0  0  0  0  0  0  2  0  0  0  0
    0.0312    0.8430    0.0000 C   0  0  0  0  0  0  0  2  0  0  0  0
    0.7457    0.4305    0.0000 C   0  0  0  0  0  0  0  2  0  0  0  0
    0.8319    1.2510    0.0000 C   0  0  0  0  0  0  0  2  0  0  0  0
    1.5303    0.6855    0.0000 C   0  0  0  0  0  0  0  2  0  0  0  0
    1.3588    1.4924    0.0000 O   0  0  0  0  0  0  0  2  0  0  0  0
    2.1434    1.2375    0.0000 C   0  0  0  0  0  0  0  2  0  0  0  0
    1.9719    2.0445    0.0000 O   0  0  0  0  0  0  0  2  0  0  0  0
    2.9280    0.9826    0.0000 C   0  0  0  0  0  0  0  2  0  0  0  0
    3.5411    1.5346    0.0000 O   0  0  0  0  0  0  0  2  0  0  0  0
    2.0152    0.0180    0.0000 C   0  0  0  0  0  0  0  2  0  0  0  0
    1.5303   -0.6494    0.0000 C   0  0  0  0  0  0  0  2  0  0  0  0
    0.7457   -0.3945    0.0000 C   0  0  0  0  0  0  0  2  0  0  0  0
    0.0312   -0.8070    0.0000 C   0  0  0  0  0  0  0  2  0  0  0  0
    0.0312   -1.6320    0.0000 C   0  0  0  0  0  0  0  2  0  0  0  0
  1  2  1  0        0
  2  3  2  0        0
  3  4  1  0        0
  4  5  2  0        0
  4  6  1  0        0
  6  7  2  0        0
  7  8  1  0        0
  2  8  1  0        0
  8  9  1  0        0
  8 10  1  0        0
 10 11  1  0        0
 11 12  1  0        0
 11 13  1  0        0
 13 14  1  0        0
 14 15  1  0        0
 14 16  1  0        0
 16 17  1  0        0
 16 18  1  0        0
 18 19  2  0        0
 18 20  1  0        0
 20 21  1  0        0
 16 22  1  0        0
 22 23  1  0        0
 23 24  1  0        0
 14 24  1  0        0
 24 25  1  0        0
 10 25  1  0        0
 25 26  1  0        0
  1 26  1  0        0
M  END
$$$$

CDXL12

 20 23  0  0  0  0  0  0  0  0999 V2000
    1.5949    1.5382    0.0000 C   0  0  0  0  0  0  0  2  0  0  0  0
    1.5086    0.7177    0.0000 C   0  0  0  0  0  0  0  2  0  0  0  0
    0.7942    1.1302    0.0000 C   0  0  0  0  0  0  0  2  0  0  0  0
    0.0797    0.7177    0.0000 C   0  0  0  0  0  0  0  2  0  0  0  0
    0.0797   -0.1073    0.0000 C   0  0  0  0  0  0  0  2  0  0  0  0
    0.7942   -0.5198    0.0000 C   0  0  0  0  0  0  0  2  0  0  0  0
    0.7942   -1.3448    0.0000 C   0  0  0  0  0  0  0  2  0  0  0  0
    0.0797   -1.7573    0.0000 C   0  0  0  0  0  0  0  2  0  0  0  0
   -0.6348   -1.3448    0.0000 C   0  0  0  0  0  0  0  2  0  0  0  0
   -1.3492   -1.7573    0.0000 C   0  0  0  0  0  0  0  2  0  0  0  0
   -2.0637   -1.3448    0.0000 C   0  0  0  0  0  0  0  2  0  0  0  0
   -2.7782   -1.7573    0.0000 O   0  0  0  0  0  0  0  2  0  0  0  0
   -2.0637   -0.5198    0.0000 C   0  0  0  0  0  0  0  2  0  0  0  0
   -1.3492   -0.1073    0.0000 C   0  0  0  0  0  0  0  2  0  0  0  0
   -0.6348   -0.5198    0.0000 C   0  0  0  0  0  0  0  2  0  0  0  0
    1.5086   -0.1073    0.0000 C   0  0  0  0  0  0  0  2  0  0  0  0
    2.2933   -0.3622    0.0000 C   0  0  0  0  0  0  0  2  0  0  0  0
    2.7782    0.3052    0.0000 C   0  0  0  0  0  0  0  2  0  0  0  0
    2.2933    0.9727    0.0000 C   0  0  0  0  0  0  0  2  0  0  0  0
    2.5482    1.7573    0.0000 O   0  0  0  0  0  0  0  2  0  0  0  0
  1  2  1  0        0
  2  3  1  0        0
  3  4  1  0        0
  4  5  1  0        0
  5  6  1  0        0
  6  7  1  0        0
  7  8  1  0        0
  8  9  1  0        0
  9 10  4  0        0
 10 11  4  0        0
 11 12  1  0        0
 11 13  4  0        0
 13 14  4  0        0
 14 15  4  0        0
  5 15  1  0        0
  9 15  4  0        0
  6 16  1  0        0
  2 16  1  0        0
 16 17  1  0        0
 17 18  1  0        0
 18 19  1  0        0
  2 19  1  0        0
 19 20  1  0        0
M  END
$$$$

CDXL12

 19 20  0  0  0  0  0  0  0  0999 V2000
    0.0000   -1.2375    0.0000 C   0  0  0  0  0  0  0  2  0  0  0  0
    0.0000   -2.0625    0.0000 C   0  0  0  0  0  0  0  2  0  0  0  0
   -0.7145   -2.4750    0.0000 C   0  0  0  0  0  0  0  2  0  0  0  0
   -1.4289   -2.0625    0.0000 C   0  0  0  0  0  0  0  2  0  0  0  0
   -1.4289   -1.2375    0.0000 C   0  0  0  0  0  0  0  2  0  0  0  0
   -0.7145   -0.8250    0.0000 C   0  0  0  0  0  0  0  2  0  0  0  0
   -2.1434   -2.4750    0.0000 Cl  0  0  0  0  0  0  0  2  0  0  0  0
    0.7145   -0.8250    0.0000 C   0  0  0  0  0  0  0  2  0  0  0  0
    0.7145   -0.0000    0.0000 C   0  0  0  0  0  0  0  2  0  0  0  0
    0.0000    0.4125    0.0000 C   0  0  0  0  0  0  0  2  0  0  0  0
    0.0000    1.2375    0.0000 C   0  0  0  0  0  0  0  2  0  0  0  0
    0.7145    1.6500    0.0000 C   0  0  0  0  0  0  0  2  0  0  0  0
    1.4289    1.2375    0.0000 C   0  0  0  0  0  0  0  2  0  0  0  0
    1.4289    0.4125    0.0000 C   0  0  0  0  0  0  0  2  0  0  0  0
    0.7145    2.4750    0.0000 Cl  0  0  0  0  0  0  0  2  0  0  0  0
    1.4289   -1.2375    0.0000 C   0  0  0  0  0  0  0  2  0  0  0  0
    2.1434   -0.8250    0.0000 Cl  0  0  0  0  0  0  0  2  0  0  0  0
    1.4289   -2.0625    0.0000 Cl  0  0  0  0  0  0  0  2  0  0  0  0
    2.1434   -1.6500    0.0000 Cl  0  0  0  0  0  0  0  2  0  0  0  0
  1  2  4  0        0
  2  3  4  0        0
  3  4  4  0        0
  4  5  4  0        0
  5  6  4  0        0
  1  6  4  0        0
  4  7  1  0        0
  1  8  1  0        0
  8  9  1  0        0
  9 10  4  0        0
 10 11  4  0        0
 11 12  4  0        0
 12 13  4  0        0
 13 14  4  0        0
  9 14  4  0        0
 12 15  1  0        0
  8 16  1  0        0
 16 17  1  0        0
 16 18  1  0        0
 16 19  1  0        0
M  END
$$$$

CDXL12

 11 11  0  0  0  0  0  0  0  0999 V2000
    1.4289    0.0000    0.0000 O   0  0  0  0  0  0  0  2  0  0  0  0
    0.7145    0.4125    0.0000 C   0  0  0  0  0  0  0  2  0  0  0  0
    0.7145    1.2375    0.0000 O   0  0  0  0  0  0  0  2  0  0  0  0
   -0.0000    0.0000    0.0000 C   0  0  0  0  0  0  0  2  0  0  0  0
   -0.7145    0.4125    0.0000 C   0  0  0  0  0  0  0  2  0  0  0  0
   -0.7145    1.2375    0.0000 Cl  0  0  0  0  0  0  0  2  0  0  0  0
   -1.4289   -0.0000    0.0000 C   0  0  0  0  0  0  0  2  0  0  0  0
   -1.4289   -0.8250    0.0000 C   0  0  0  0  0  0  0  2  0  0  0  0
   -0.7145   -1.2375    0.0000 C   0  0  0  0  0  0  0  2  0  0  0  0
   -0.0000   -0.8250    0.0000 C   0  0  0  0  0  0  0  2  0  0  0  0
    0.7145   -1.2375    0.0000 Cl  0  0  0  0  0  0  0  2  0  0  0  0
  1  2  1  0        0
  2  3  2  0        0
  2  4  1  0        0
  4  5  4  0        0
  5  6  1  0        0
  5  7  4  0        0
  7  8  4  0        0
  8  9  4  0        0
  9 10  4  0        0
  4 10  4  0        0
 10 11  1  0        0
M  END
$$$$

CDXL12

 12 12  0  0  0  0  0  0  0  0999 V2000
    1.7862   -0.0000    0.0000 O   0  0  0  0  0  0  0  2  0  0  0  0
    1.0717    0.4125    0.0000 C   0  0  0  0  0  0  0  2  0  0  0  0
    1.0717    1.2375    0.0000 O   0  0  0  0  0  0  0  2  0  0  0  0
    0.3572   -0.0000    0.0000 C   0  0  0  0  0  0  0  2  0  0  0  0
    0.3572   -0.8250    0.0000 C   0  0  0  0  0  0  0  2  0  0  0  0
    1.0717   -1.2375    0.0000 Cl  0  0  0  0  0  0  0  2  0  0  0  0
   -0.3572   -1.2375    0.0000 C   0  0  0  0  0  0  0  2  0  0  0  0
   -1.0717   -0.8250    0.0000 C   0  0  0  0  0  0  0  2  0  0  0  0
   -1.0717    0.0000    0.0000 C   0  0  0  0  0  0  0  2  0  0  0  0
   -1.7862    0.4125    0.0000 Cl  0  0  0  0  0  0  0  2  0  0  0  0
   -0.3572    0.4125    0.0000 C   0  0  0  0  0  0  0  2  0  0  0  0
   -0.3572    1.2375    0.0000 Cl  0  0  0  0  0  0  0  2  0  0  0  0
  1  2  1  0        0
  2  3  2  0        0
  2  4  1  0        0
  4  5  4  0        0
  5  6  1  0        0
  5  7  4  0        0
  7  8  4  0        0
  8  9  4  0        0
  9 10  1  0        0
  9 11  4  0        0
  4 11  4  0        0
 11 12  1  0        0
M  END
$$$$

CDXL12

 20 24  0  0  0  0  0  0  0  0999 V2000
    0.3572   -0.2063    0.0000 C   0  0  0  0  0  0  0  2  0  0  0  0
    1.0717    0.2062    0.0000 C   0  0  0  0  0  0  0  2  0  0  0  0
    1.0717    1.0312    0.0000 C   0  0  0  0  0  0  0  2  0  0  0  0
    0.3572    1.4438    0.0000 C   0  0  0  0  0  0  0  2  0  0  0  0
   -0.3572    1.0313    0.0000 C   0  0  0  0  0  0  0  2  0  0  0  0
   -0.3572    0.2062    0.0000 C   0  0  0  0  0  0  0  2  0  0  0  0
   -1.0717   -0.2063    0.0000 C   0  0  0  0  0  0  0  2  0  0  0  0
   -1.0717   -1.0313    0.0000 C   0  0  0  0  0  0  0  2  0  0  0  0
   -0.3572   -1.4438    0.0000 C   0  0  0  0  0  0  0  2  0  0  0  0
    0.3572   -1.0312    0.0000 C   0  0  0  0  0  0  0  2  0  0  0  0
    1.0717   -1.4437    0.0000 C   0  0  0  0  0  0  0  2  0  0  0  0
    1.7862   -1.0312    0.0000 C   0  0  0  0  0  0  0  2  0  0  0  0
    1.7862   -0.2063    0.0000 C   0  0  0  0  0  0  0  2  0  0  0  0
    2.5006    0.2062    0.0000 C   0  0  0  0  0  0  0  2  0  0  0  0
    2.5006    1.0312    0.0000 C   0  0  0  0  0  0  0  2  0  0  0  0
    1.7862    1.4437    0.0000 C   0  0  0  0  0  0  0  2  0  0  0  0
   -1.7862   -1.4438    0.0000 C   0  0  0  0  0  0  0  2  0  0  0  0
   -2.5006   -1.0313    0.0000 C   0  0  0  0  0  0  0  2  0  0  0  0
   -2.5006   -0.2063    0.0000 C   0  0  0  0  0  0  0  2  0  0  0  0
   -1.7862    0.2062    0.0000 C   0  0  0  0  0  0  0  2  0  0  0  0
  1  2  4  0        0
  2  3  4  0        0
  3  4  4  0        0
  4  5  4  0        0
  5  6  4  0        0
  1  6  4  0        0
  6  7  4  0        0
  7  8  4  0        0
  8  9  4  0        0
  9 10  4  0        0
  1 10  4  0        0
 10 11  4  0        0
 11 12  4  0        0
 12 13  4  0        0
  2 13  4  0        0
 13 14  4  0        0
 14 15  4  0        0
 15 16  4  0        0
  3 16  4  0        0
  8 17  4  0        0
 17 18  4  0        0
 18 19  4  0        0
 19 20  4  0        0
  7 20  4  0        0
M  END
$$$$

CDXL12

 23 25  0  0  0  0  0  0  0  0999 V2000
   -0.9815    0.3173    0.0000 O   0  0  0  0  0  0  0  2  0  0  0  0
   -0.3684   -0.2348    0.0000 C   0  0  0  0  0  0  0  2  0  0  0  0
    0.4386   -0.0632    0.0000 N   0  0  0  0  0  0  0  2  0  0  0  0
    0.8511   -0.7777    0.0000 N   0  0  0  0  0  0  0  2  0  0  0  0
    0.2990   -1.3908    0.0000 C   0  0  0  0  0  0  0  2  0  0  0  0
    0.4706   -2.1978    0.0000 O   0  0  0  0  0  0  0  2  0  0  0  0
   -0.4546   -1.0553    0.0000 C   0  0  0  0  0  0  0  2  0  0  0  0
   -1.1691   -1.4678    0.0000 C   0  0  0  0  0  0  0  2  0  0  0  0
   -1.8836   -1.0553    0.0000 C   0  0  0  0  0  0  0  2  0  0  0  0
   -2.5980   -1.4678    0.0000 C   0  0  0  0  0  0  0  2  0  0  0  0
   -3.3125   -1.0553    0.0000 C   0  0  0  0  0  0  0  2  0  0  0  0
    1.6716   -0.8640    0.0000 C   0  0  0  0  0  0  0  2  0  0  0  0
    2.1565   -0.1965    0.0000 C   0  0  0  0  0  0  0  2  0  0  0  0
    2.9770   -0.2827    0.0000 C   0  0  0  0  0  0  0  2  0  0  0  0
    3.3125   -1.0364    0.0000 C   0  0  0  0  0  0  0  2  0  0  0  0
    2.8276   -1.7039    0.0000 C   0  0  0  0  0  0  0  2  0  0  0  0
    2.0071   -1.6176    0.0000 C   0  0  0  0  0  0  0  2  0  0  0  0
    0.7741    0.6904    0.0000 C   0  0  0  0  0  0  0  2  0  0  0  0
    0.2892    1.3579    0.0000 C   0  0  0  0  0  0  0  2  0  0  0  0
    0.6248    2.1115    0.0000 C   0  0  0  0  0  0  0  2  0  0  0  0
    1.4452    2.1978    0.0000 C   0  0  0  0  0  0  0  2  0  0  0  0
    1.9302    1.5303    0.0000 C   0  0  0  0  0  0  0  2  0  0  0  0
    1.5946    0.7767    0.0000 C   0  0  0  0  0  0  0  2  0  0  0  0
  1  2  2  0        0
  2  3  1  0        0
  3  4  1  0        0
  4  5  1  0        0
  5  6  2  0        0
  5  7  1  0        0
  2  7  1  0        0
  7  8  1  0        0
  8  9  1  0        0
  9 10  1  0        0
 10 11  1  0        0
  4 12  1  0        0
 12 13  4  0        0
 13 14  4  0        0
 14 15  4  0        0
 15 16  4  0        0
 16 17  4  0        0
 12 17  4  0        0
  3 18  1  0        0
 18 19  4  0        0
 19 20  4  0        0
 20 21  4  0        0
 21 22  4  0        0
 22 23  4  0        0
 18 23  4  0        0
M  END
$$$$

CDXL12

 19 21  0  0  0  0  0  0  0  0999 V2000
   -2.9992   -0.4125    0.0000 C   0  0  0  0  0  0  0  2  0  0  0  0
   -2.9992    0.4125    0.0000 C   0  0  0  0  0  0  0  2  0  0  0  0
   -2.2848    0.8250    0.0000 C   0  0  0  0  0  0  0  2  0  0  0  0
   -1.5703    0.4125    0.0000 C   0  0  0  0  0  0  0  2  0  0  0  0
   -0.7857    0.6674    0.0000 C   0  0  0  0  0  0  0  2  0  0  0  0
   -0.5307    1.4521    0.0000 O   0  0  0  0  0  0  0  2  0  0  0  0
   -0.3008   -0.0000    0.0000 N   0  0  0  0  0  0  0  2  0  0  0  0
    0.5242   -0.0000    0.0000 C   0  0  0  0  0  0  0  2  0  0  0  0
    0.9367    0.7145    0.0000 C   0  0  0  0  0  0  0  2  0  0  0  0
    0.5242    1.4289    0.0000 O   0  0  0  0  0  0  0  2  0  0  0  0
    1.7617    0.7145    0.0000 N   0  0  0  0  0  0  0  2  0  0  0  0
    2.1742   -0.0000    0.0000 C   0  0  0  0  0  0  0  2  0  0  0  0
    2.9992   -0.0000    0.0000 O   0  0  0  0  0  0  0  2  0  0  0  0
    1.7617   -0.7145    0.0000 C   0  0  0  0  0  0  0  2  0  0  0  0
    0.9367   -0.7145    0.0000 C   0  0  0  0  0  0  0  2  0  0  0  0
   -0.7857   -0.6674    0.0000 C   0  0  0  0  0  0  0  2  0  0  0  0
   -0.5307   -1.4521    0.0000 O   0  0  0  0  0  0  0  2  0  0  0  0
   -1.5703   -0.4125    0.0000 C   0  0  0  0  0  0  0  2  0  0  0  0
   -2.2848   -0.8250    0.0000 C   0  0  0  0  0  0  0  2  0  0  0  0
  1  2  4  0        0
  2  3  4  0        0
  3  4  4  0        0
  4  5  1  0        0
  5  6  2  0        0
  5  7  1  0        0
  7  8  1  0        0
  8  9  1  0        0
  9 10  2  0        0
  9 11  1  0        0
 11 12  1  0        0
 12 13  2  0        0
 12 14  1  0        0
 14 15  1  0        0
  8 15  1  0        0
  7 16  1  0        0
 16 17  2  0        0
 16 18  1  0        0
  4 18  4  0        0
 18 19  4  0        0
  1 19  4  0        0
M  END
$$$$

CDXL12

 22 24  0  0  0  0  0  0  0  0999 V2000
   -0.2267    2.1151    0.0000 C   0  0  0  0  0  0  0  2  0  0  0  0
   -0.7411    1.4701    0.0000 O   0  0  0  0  0  0  0  2  0  0  0  0
   -0.4397    0.7021    0.0000 C   0  0  0  0  0  0  0  2  0  0  0  0
    0.3761    0.5792    0.0000 O   0  0  0  0  0  0  0  2  0  0  0  0
   -0.9541    0.0571    0.0000 C   0  0  0  0  0  0  0  2  0  0  0  0
   -0.5961   -0.6862    0.0000 C   0  0  0  0  0  0  0  2  0  0  0  0
   -0.9541   -1.4295    0.0000 C   0  0  0  0  0  0  0  2  0  0  0  0
   -1.7584   -1.6131    0.0000 C   0  0  0  0  0  0  0  2  0  0  0  0
   -2.4034   -1.0987    0.0000 C   0  0  0  0  0  0  0  2  0  0  0  0
   -2.4034   -0.2737    0.0000 C   0  0  0  0  0  0  0  2  0  0  0  0
   -1.7584    0.2407    0.0000 C   0  0  0  0  0  0  0  2  0  0  0  0
   -2.2914   -0.6862    0.0000 N   0  0  0  0  0  0  0  2  0  0  0  0
   -3.1164   -0.6862    0.0000 C   0  0  0  0  0  0  0  2  0  0  0  0
    0.2289   -0.6862    0.0000 O   0  0  0  0  0  0  0  2  0  0  0  0
    0.6414   -1.4006    0.0000 C   0  0  0  0  0  0  0  2  0  0  0  0
    0.2289   -2.1151    0.0000 O   0  0  0  0  0  0  0  2  0  0  0  0
    1.4664   -1.4006    0.0000 C   0  0  0  0  0  0  0  2  0  0  0  0
    1.8789   -0.6862    0.0000 C   0  0  0  0  0  0  0  2  0  0  0  0
    2.7039   -0.6862    0.0000 C   0  0  0  0  0  0  0  2  0  0  0  0
    3.1164   -1.4006    0.0000 C   0  0  0  0  0  0  0  2  0  0  0  0
    2.7039   -2.1151    0.0000 C   0  0  0  0  0  0  0  2  0  0  0  0
    1.8789   -2.1151    0.0000 C   0  0  0  0  0  0  0  2  0  0  0  0
  1  2  1  0        0
  2  3  1  0        0
  3  4  2  0        0
  3  5  1  0        0
  5  6  1  0        0
  6  7  1  0        0
  7  8  1  0        0
  8  9  1  0        0
  9 10  1  0        0
 10 11  1  0        0
  5 11  1  0        0
 11 12  1  0        0
  8 12  1  0        0
 12 13  1  0        0
  6 14  1  0        0
 14 15  1  0        0
 15 16  2  0        0
 15 17  1  0        0
 17 18  4  0        0
 18 19  4  0        0
 19 20  4  0        0
 20 21  4  0        0
 21 22  4  0        0
 17 22  4  0        0
M  END
$$$$

CDXL12

 24 27  0  0  0  0  0  0  0  0999 V2000
   -3.4721    0.2062    0.0000 C   0  0  0  0  0  0  0  2  0  0  0  0
   -2.7576    0.6187    0.0000 C   0  0  0  0  0  0  0  2  0  0  0  0
   -2.0431    0.2062    0.0000 N   0  0  0  0  0  0  0  2  0  0  0  0
   -2.0431   -0.6187    0.0000 C   0  0  0  0  0  0  0  2  0  0  0  0
   -2.7576   -1.0312    0.0000 C   0  0  0  0  0  0  0  2  0  0  0  0
   -1.3287    0.6187    0.0000 C   0  0  0  0  0  0  0  2  0  0  0  0
   -1.3287    1.4437    0.0000 O   0  0  0  0  0  0  0  2  0  0  0  0
   -0.6142    0.2062    0.0000 C   0  0  0  0  0  0  0  2  0  0  0  0
   -0.6142   -0.6187    0.0000 C   0  0  0  0  0  0  0  2  0  0  0  0
    0.1003   -1.0312    0.0000 N   0  0  0  0  0  0  0  2  0  0  0  0
    0.1003   -1.8562    0.0000 C   0  0  0  0  0  0  0  2  0  0  0  0
    0.8148   -0.6187    0.0000 C   0  0  0  0  0  0  0  2  0  0  0  0
    1.5292   -1.0312    0.0000 C   0  0  0  0  0  0  0  2  0  0  0  0
    2.2437   -0.6187    0.0000 C   0  0  0  0  0  0  0  2  0  0  0  0
    3.0596   -0.7411    0.0000 C   0  0  0  0  0  0  0  2  0  0  0  0
    3.4721   -0.0266    0.0000 N   0  0  0  0  0  0  0  2  0  0  0  0
    2.9582    0.6187    0.0000 C   0  0  0  0  0  0  0  2  0  0  0  0
    2.9582    1.4437    0.0000 C   0  0  0  0  0  0  0  2  0  0  0  0
    2.2437    1.8562    0.0000 C   0  0  0  0  0  0  0  2  0  0  0  0
    1.5292    1.4438    0.0000 C   0  0  0  0  0  0  0  2  0  0  0  0
    1.5292    0.6188    0.0000 C   0  0  0  0  0  0  0  2  0  0  0  0
    0.8148    0.2063    0.0000 C   0  0  0  0  0  0  0  2  0  0  0  0
    0.1003    0.6188    0.0000 C   0  0  0  0  0  0  0  2  0  0  0  0
    2.2437    0.2062    0.0000 C   0  0  0  0  0  0  0  2  0  0  0  0
  1  2  1  0        0
  2  3  1  0        0
  3  4  1  0        0
  4  5  1  0        0
  3  6  1  0        0
  6  7  2  0        0
  6  8  1  0        0
  8  9  1  0        0
  9 10  1  0        0
 10 11  1  0        0
 10 12  1  0        0
 12 13  1  0        0
 13 14  1  0        0
 14 15  4  0        0
 15 16  4  0        0
 16 17  4  0        0
 17 18  4  0        0
 18 19  4  0        0
 19 20  4  0        0
 20 21  4  0        0
 21 22  1  0        0
 12 22  1  0        0
 22 23  2  0        0
  8 23  1  0        0
 21 24  4  0        0
 14 24  4  0        0
 17 24  4  0        0
M  END
$$$$

CDXL12

 10 11  0  0  0  0  0  0  0  0999 V2000
   -1.3492    0.0000    0.0000 N   0  0  0  0  0  0  0  2  0  0  0  0
   -1.3492   -0.8250    0.0000 C   0  0  0  0  0  0  0  2  0  0  0  0
   -0.6348   -1.2375    0.0000 N   0  0  0  0  0  0  0  2  0  0  0  0
    0.0797   -0.8250    0.0000 C   0  0  0  0  0  0  0  2  0  0  0  0
    0.8643   -1.0799    0.0000 N   0  0  0  0  0  0  0  2  0  0  0  0
    1.3492   -0.4125    0.0000 C   0  0  0  0  0  0  0  2  0  0  0  0
    0.8643    0.2549    0.0000 N   0  0  0  0  0  0  0  2  0  0  0  0
    0.0797   -0.0000    0.0000 C   0  0  0  0  0  0  0  2  0  0  0  0
   -0.6348    0.4125    0.0000 C   0  0  0  0  0  0  0  2  0  0  0  0
   -0.6348    1.2375    0.0000 S   0  0  0  0  0  0  0  2  0  0  0  0
  1  2  4  0        0
  2  3  4  0        0
  3  4  4  0        0
  4  5  4  0        0
  5  6  4  0        0
  6  7  4  0        0
  7  8  4  0        0
  4  8  4  0        0
  8  9  4  0        0
  1  9  4  0        0
  9 10  1  0        0
M  END
$$$$

CDXL12

 20 22  0  0  0  0  0  0  0  0999 V2000
    1.4289   -2.5536    0.0000 C   0  0  0  0  0  0  0  2  0  0  0  0
    1.4289   -1.7286    0.0000 N   0  0  0  0  0  0  0  2  0  0  0  0
    0.7145   -1.3161    0.0000 C   0  0  0  0  0  0  0  2  0  0  0  0
    0.7145   -0.4911    0.0000 C   0  0  0  0  0  0  0  2  0  0  0  0
    0.0000   -0.0786    0.0000 C   0  0  0  0  0  0  0  2  0  0  0  0
    0.0000    0.7464    0.0000 N   0  0  0  0  0  0  0  2  0  0  0  0
    0.7433    1.1043    0.0000 C   0  0  0  0  0  0  0  2  0  0  0  0
    1.3481    0.5432    0.0000 C   0  0  0  0  0  0  0  2  0  0  0  0
    2.1364    0.7863    0.0000 C   0  0  0  0  0  0  0  2  0  0  0  0
    2.3200    1.5907    0.0000 C   0  0  0  0  0  0  0  2  0  0  0  0
    1.7152    2.1518    0.0000 C   0  0  0  0  0  0  0  2  0  0  0  0
    0.9269    1.9086    0.0000 C   0  0  0  0  0  0  0  2  0  0  0  0
    0.4125    2.5536    0.0000 C   0  0  0  0  0  0  0  2  0  0  0  0
   -0.4125    2.5536    0.0000 C   0  0  0  0  0  0  0  2  0  0  0  0
   -0.9269    1.9086    0.0000 C   0  0  0  0  0  0  0  2  0  0  0  0
   -1.7152    2.1518    0.0000 C   0  0  0  0  0  0  0  2  0  0  0  0
   -2.3200    1.5907    0.0000 C   0  0  0  0  0  0  0  2  0  0  0  0
   -2.1364    0.7863    0.0000 C   0  0  0  0  0  0  0  2  0  0  0  0
   -1.3481    0.5432    0.0000 C   0  0  0  0  0  0  0  2  0  0  0  0
   -0.7433    1.1043    0.0000 C   0  0  0  0  0  0  0  2  0  0  0  0
  1  2  1  0        0
  2  3  1  0        0
  3  4  1  0        0
  4  5  1  0        0
  5  6  1  0        0
  6  7  1  0        0
  7  8  4  0        0
  8  9  4  0        0
  9 10  4  0        0
 10 11  4  0        0
 11 12  4  0        0
  7 12  4  0        0
 12 13  1  0        0
 13 14  1  0        0
 14 15  1  0        0
 15 16  4  0        0
 16 17  4  0        0
 17 18  4  0        0
 18 19  4  0        0
 19 20  4  0        0
  6 20  1  0        0
 15 20  4  0        0
M  END
$$$$

CDXL12

 21 23  0  0  0  0  0  0  0  0999 V2000
    2.1434   -1.3161    0.0000 C   0  0  0  0  0  0  0  2  0  0  0  0
    1.4289   -1.7286    0.0000 N   0  0  0  0  0  0  0  2  0  0  0  0
    1.4289   -2.5536    0.0000 C   0  0  0  0  0  0  0  2  0  0  0  0
    0.7145   -1.3161    0.0000 C   0  0  0  0  0  0  0  2  0  0  0  0
    0.7145   -0.4911    0.0000 C   0  0  0  0  0  0  0  2  0  0  0  0
    0.0000   -0.0786    0.0000 C   0  0  0  0  0  0  0  2  0  0  0  0
    0.0000    0.7464    0.0000 C   0  0  0  0  0  0  0  2  0  0  0  0
    0.7433    1.1043    0.0000 C   0  0  0  0  0  0  0  2  0  0  0  0
    1.3481    0.5432    0.0000 C   0  0  0  0  0  0  0  2  0  0  0  0
    2.1364    0.7863    0.0000 C   0  0  0  0  0  0  0  2  0  0  0  0
    2.3200    1.5907    0.0000 C   0  0  0  0  0  0  0  2  0  0  0  0
    1.7152    2.1518    0.0000 C   0  0  0  0  0  0  0  2  0  0  0  0
    0.9269    1.9086    0.0000 C   0  0  0  0  0  0  0  2  0  0  0  0
    0.4125    2.5536    0.0000 C   0  0  0  0  0  0  0  2  0  0  0  0
   -0.4125    2.5536    0.0000 C   0  0  0  0  0  0  0  2  0  0  0  0
   -0.9269    1.9086    0.0000 C   0  0  0  0  0  0  0  2  0  0  0  0
   -1.7152    2.1518    0.0000 C   0  0  0  0  0  0  0  2  0  0  0  0
   -2.3200    1.5907    0.0000 C   0  0  0  0  0  0  0  2  0  0  0  0
   -2.1364    0.7863    0.0000 C   0  0  0  0  0  0  0  2  0  0  0  0
   -1.3481    0.5432    0.0000 C   0  0  0  0  0  0  0  2  0  0  0  0
   -0.7433    1.1043    0.0000 C   0  0  0  0  0  0  0  2  0  0  0  0
  1  2  1  0        0
  2  3  1  0        0
  2  4  1  0        0
  4  5  1  0        0
  5  6  1  0        0
  6  7  2  0        0
  7  8  1  0        0
  8  9  4  0        0
  9 10  4  0        0
 10 11  4  0        0
 11 12  4  0        0
 12 13  4  0        0
  8 13  4  0        0
 13 14  1  0        0
 14 15  1  0        0
 15 16  1  0        0
 16 17  4  0        0
 17 18  4  0        0
 18 19  4  0        0
 19 20  4  0        0
 20 21  4  0        0
  7 21  1  0        0
 16 21  4  0        0
M  END
$$$$

CDXL12

 21 23  0  0  0  0  0  0  0  0999 V2000
    2.1434   -1.3161    0.0000 C   0  0  0  0  0  0  0  2  0  0  0  0
    1.4289   -1.7286    0.0000 N   0  0  0  0  0  0  0  2  0  0  0  0
    1.4289   -2.5536    0.0000 C   0  0  0  0  0  0  0  2  0  0  0  0
    0.7145   -1.3161    0.0000 C   0  0  0  0  0  0  0  2  0  0  0  0
    0.7145   -0.4911    0.0000 C   0  0  0  0  0  0  0  2  0  0  0  0
    0.0000   -0.0786    0.0000 C   0  0  0  0  0  0  0  2  0  0  0  0
    0.0000    0.7464    0.0000 N   0  0  0  0  0  0  0  2  0  0  0  0
    0.7433    1.1043    0.0000 C   0  0  0  0  0  0  0  2  0  0  0  0
    1.3481    0.5432    0.0000 C   0  0  0  0  0  0  0  2  0  0  0  0
    2.1364    0.7863    0.0000 C   0  0  0  0  0  0  0  2  0  0  0  0
    2.3200    1.5907    0.0000 C   0  0  0  0  0  0  0  2  0  0  0  0
    1.7152    2.1518    0.0000 C   0  0  0  0  0  0  0  2  0  0  0  0
    0.9269    1.9086    0.0000 C   0  0  0  0  0  0  0  2  0  0  0  0
    0.4125    2.5536    0.0000 C   0  0  0  0  0  0  0  2  0  0  0  0
   -0.4125    2.5536    0.0000 C   0  0  0  0  0  0  0  2  0  0  0  0
   -0.9269    1.9086    0.0000 C   0  0  0  0  0  0  0  2  0  0  0  0
   -1.7152    2.1518    0.0000 C   0  0  0  0  0  0  0  2  0  0  0  0
   -2.3200    1.5907    0.0000 C   0  0  0  0  0  0  0  2  0  0  0  0
   -2.1364    0.7863    0.0000 C   0  0  0  0  0  0  0  2  0  0  0  0
   -1.3481    0.5432    0.0000 C   0  0  0  0  0  0  0  2  0  0  0  0
   -0.7433    1.1043    0.0000 C   0  0  0  0  0  0  0  2  0  0  0  0
  1  2  1  0        0
  2  3  1  0        0
  2  4  1  0        0
  4  5  1  0        0
  5  6  1  0        0
  6  7  1  0        0
  7  8  1  0        0
  8  9  4  0        0
  9 10  4  0        0
 10 11  4  0        0
 11 12  4  0        0
 12 13  4  0        0
  8 13  4  0        0
 13 14  1  0        0
 14 15  1  0        0
 15 16  1  0        0
 16 17  4  0        0
 17 18  4  0        0
 18 19  4  0        0
 19 20  4  0        0
 20 21  4  0        0
  7 21  1  0        0
 16 21  4  0        0
M  END
$$$$

CDXL12

 25 28  0  0  0  0  0  0  0  0999 V2000
    2.8579   -1.4438    0.0000 C   0  0  0  0  0  0  0  2  0  0  0  0
    2.1434   -1.0313    0.0000 S   0  0  0  0  0  0  0  2  0  0  0  0
    1.4289   -1.4438    0.0000 C   0  0  0  0  0  0  0  2  0  0  0  0
    1.4289   -2.2687    0.0000 C   0  0  0  0  0  0  0  2  0  0  0  0
    0.7145   -2.6812    0.0000 C   0  0  0  0  0  0  0  2  0  0  0  0
   -0.0000   -2.2687    0.0000 C   0  0  0  0  0  0  0  2  0  0  0  0
   -0.7145   -2.6812    0.0000 S   0  0  0  0  0  0  0  2  0  0  0  0
   -1.4289   -2.2687    0.0000 C   0  0  0  0  0  0  0  2  0  0  0  0
   -2.1434   -2.6812    0.0000 C   0  0  0  0  0  0  0  2  0  0  0  0
   -2.8579   -2.2687    0.0000 C   0  0  0  0  0  0  0  2  0  0  0  0
   -2.8579   -1.4438    0.0000 C   0  0  0  0  0  0  0  2  0  0  0  0
   -2.1434   -1.0313    0.0000 C   0  0  0  0  0  0  0  2  0  0  0  0
   -1.4289   -1.4438    0.0000 C   0  0  0  0  0  0  0  2  0  0  0  0
   -0.7145   -1.0313    0.0000 N   0  0  0  0  0  0  0  2  0  0  0  0
   -0.7145   -0.2062    0.0000 C   0  0  0  0  0  0  0  2  0  0  0  0
   -1.4289    0.2062    0.0000 C   0  0  0  0  0  0  0  2  0  0  0  0
   -1.4289    1.0313    0.0000 C   0  0  0  0  0  0  0  2  0  0  0  0
   -2.1434    1.4437    0.0000 C   0  0  0  0  0  0  0  2  0  0  0  0
   -2.1434    2.2687    0.0000 C   0  0  0  0  0  0  0  2  0  0  0  0
   -1.4289    2.6812    0.0000 C   0  0  0  0  0  0  0  2  0  0  0  0
   -0.7145    2.2687    0.0000 C   0  0  0  0  0  0  0  2  0  0  0  0
   -0.7145    1.4438    0.0000 N   0  0  0  0  0  0  0  2  0  0  0  0
   -0.0000    1.0312    0.0000 C   0  0  0  0  0  0  0  2  0  0  0  0
   -0.0000   -1.4438    0.0000 C   0  0  0  0  0  0  0  2  0  0  0  0
    0.7145   -1.0313    0.0000 C   0  0  0  0  0  0  0  2  0  0  0  0
  1  2  1  0        0
  2  3  1  0        0
  3  4  4  0        0
  4  5  4  0        0
  5  6  4  0        0
  6  7  1  0        0
  7  8  1  0        0
  8  9  4  0        0
  9 10  4  0        0
 10 11  4  0        0
 11 12  4  0        0
 12 13  4  0        0
  8 13  4  0        0
 13 14  1  0        0
 14 15  1  0        0
 15 16  1  0        0
 16 17  1  0        0
 17 18  1  0        0
 18 19  1  0        0
 19 20  1  0        0
 20 21  1  0        0
 21 22  1  0        0
 17 22  1  0        0
 22 23  1  0        0
 14 24  1  0        0
  6 24  4  0        0
 24 25  4  0        0
  3 25  4  0        0
M  END
$$$$

CDXL12

 21 23  0  0  0  0  0  0  0  0999 V2000
   -2.5006    1.2375    0.0000 C   0  0  0  0  0  0  0  2  0  0  0  0
   -1.7862    1.6500    0.0000 N   0  0  0  0  0  0  0  2  0  0  0  0
   -1.7862    2.4750    0.0000 C   0  0  0  0  0  0  0  2  0  0  0  0
   -1.0717    1.2375    0.0000 C   0  0  0  0  0  0  0  2  0  0  0  0
   -1.0717    0.4125    0.0000 C   0  0  0  0  0  0  0  2  0  0  0  0
   -0.3572    0.0000    0.0000 C   0  0  0  0  0  0  0  2  0  0  0  0
   -0.3572   -0.8250    0.0000 N   0  0  0  0  0  0  0  2  0  0  0  0
   -1.0717   -1.2375    0.0000 C   0  0  0  0  0  0  0  2  0  0  0  0
   -1.7862   -0.8250    0.0000 C   0  0  0  0  0  0  0  2  0  0  0  0
   -2.5006   -1.2375    0.0000 C   0  0  0  0  0  0  0  2  0  0  0  0
   -2.5006   -2.0625    0.0000 C   0  0  0  0  0  0  0  2  0  0  0  0
   -1.7862   -2.4750    0.0000 C   0  0  0  0  0  0  0  2  0  0  0  0
   -1.0717   -2.0625    0.0000 C   0  0  0  0  0  0  0  2  0  0  0  0
   -0.3572   -2.4750    0.0000 S   0  0  0  0  0  0  0  2  0  0  0  0
    0.3572   -2.0625    0.0000 C   0  0  0  0  0  0  0  2  0  0  0  0
    1.0717   -2.4750    0.0000 C   0  0  0  0  0  0  0  2  0  0  0  0
    1.7862   -2.0625    0.0000 C   0  0  0  0  0  0  0  2  0  0  0  0
    1.7862   -1.2375    0.0000 C   0  0  0  0  0  0  0  2  0  0  0  0
    2.5006   -0.8250    0.0000 Cl  0  0  0  0  0  0  0  2  0  0  0  0
    1.0717   -0.8250    0.0000 C   0  0  0  0  0  0  0  2  0  0  0  0
    0.3572   -1.2375    0.0000 C   0  0  0  0  0  0  0  2  0  0  0  0
  1  2  1  0        0
  2  3  1  0        0
  2  4  1  0        0
  4  5  1  0        0
  5  6  1  0        0
  6  7  1  0        0
  7  8  1  0        0
  8  9  4  0        0
  9 10  4  0        0
 10 11  4  0        0
 11 12  4  0        0
 12 13  4  0        0
  8 13  4  0        0
 13 14  1  0        0
 14 15  1  0        0
 15 16  4  0        0
 16 17  4  0        0
 17 18  4  0        0
 18 19  1  0        0
 18 20  4  0        0
 20 21  4  0        0
  7 21  1  0        0
 15 21  4  0        0
M  END
$$$$

CDXL12

 44 49  0  0  0  0  0  0  0  0999 V2000
   -1.4442   -1.2772    0.0000 O   0  0  0  0  0  0  0  2  0  0  0  0
   -2.1586   -0.8647    0.0000 C   0  0  0  0  0  0  0  2  0  0  0  0
   -2.1586   -0.0397    0.0000 O   0  0  0  0  0  0  0  2  0  0  0  0
   -1.4442    0.3728    0.0000 C   0  0  0  0  0  0  0  2  0  0  0  0
   -1.4442    1.1978    0.0000 C   0  0  0  0  0  0  0  2  0  0  0  0
   -2.1586    1.6103    0.0000 O   0  0  0  0  0  0  0  2  0  0  0  0
   -2.8731    1.1978    0.0000 C   0  0  0  0  0  0  0  2  0  0  0  0
   -0.7297    1.6103    0.0000 C   0  0  0  0  0  0  0  2  0  0  0  0
   -0.0152    1.1978    0.0000 C   0  0  0  0  0  0  0  2  0  0  0  0
   -0.0152    0.3728    0.0000 C   0  0  0  0  0  0  0  2  0  0  0  0
    0.6992   -0.0397    0.0000 C   0  0  0  0  0  0  0  2  0  0  0  0
    1.4137    0.3728    0.0000 N   0  0  0  0  0  0  0  2  0  0  0  0
    1.4137    1.1978    0.0000 C   0  0  0  0  0  0  0  2  0  0  0  0
    2.1282    1.6103    0.0000 C   0  0  0  0  0  0  0  2  0  0  0  0
    2.2997    2.4173    0.0000 N   0  0  0  0  0  0  0  2  0  0  0  0
    3.1202    2.5035    0.0000 C   0  0  0  0  0  0  0  2  0  0  0  0
    3.4557    1.7499    0.0000 C   0  0  0  0  0  0  0  2  0  0  0  0
    4.2762    1.6636    0.0000 C   0  0  0  0  0  0  0  2  0  0  0  0
    4.7612    2.3311    0.0000 C   0  0  0  0  0  0  0  2  0  0  0  0
    4.4256    3.0847    0.0000 C   0  0  0  0  0  0  0  2  0  0  0  0
    4.9105    3.7522    0.0000 O   0  0  0  0  0  0  0  2  0  0  0  0
    5.7310    3.6659    0.0000 C   0  0  0  0  0  0  0  2  0  0  0  0
    3.6051    3.1710    0.0000 C   0  0  0  0  0  0  0  2  0  0  0  0
    2.8427    1.1978    0.0000 C   0  0  0  0  0  0  0  2  0  0  0  0
    2.8427    0.3728    0.0000 C   0  0  0  0  0  0  0  2  0  0  0  0
    2.1282   -0.0397    0.0000 C   0  0  0  0  0  0  0  2  0  0  0  0
    0.6992    1.6103    0.0000 C   0  0  0  0  0  0  0  2  0  0  0  0
   -0.7297   -0.0397    0.0000 C   0  0  0  0  0  0  0  2  0  0  0  0
   -0.7297    2.4353    0.0000 C   0  0  0  0  0  0  0  2  0  0  0  0
   -0.0152    2.8478    0.0000 O   0  0  0  0  0  0  0  2  0  0  0  0
   -1.4442    2.8478    0.0000 O   0  0  0  0  0  0  0  2  0  0  0  0
   -1.4442    3.6728    0.0000 C   0  0  0  0  0  0  0  2  0  0  0  0
   -2.8731   -1.2772    0.0000 C   0  0  0  0  0  0  0  2  0  0  0  0
   -3.5876   -0.8647    0.0000 C   0  0  0  0  0  0  0  2  0  0  0  0
   -4.3021   -1.2772    0.0000 C   0  0  0  0  0  0  0  2  0  0  0  0
   -5.0165   -0.8647    0.0000 O   0  0  0  0  0  0  0  2  0  0  0  0
   -5.7310   -1.2772    0.0000 C   0  0  0  0  0  0  0  2  0  0  0  0
   -4.3021   -2.1022    0.0000 C   0  0  0  0  0  0  0  2  0  0  0  0
   -5.0165   -2.5147    0.0000 O   0  0  0  0  0  0  0  2  0  0  0  0
   -5.7310   -2.1022    0.0000 C   0  0  0  0  0  0  0  2  0  0  0  0
   -3.5876   -2.5147    0.0000 C   0  0  0  0  0  0  0  2  0  0  0  0
   -3.5876   -3.3397    0.0000 O   0  0  0  0  0  0  0  2  0  0  0  0
   -4.3021   -3.7522    0.0000 C   0  0  0  0  0  0  0  2  0  0  0  0
   -2.8731   -2.1022    0.0000 C   0  0  0  0  0  0  0  2  0  0  0  0
  1  2  2  0        0
  2  3  1  0        0
  3  4  1  0        0
  4  5  1  0        0
  5  6  1  0        0
  6  7  1  0        0
  5  8  1  0        0
  8  9  1  0        0
  9 10  1  0        0
 10 11  1  0        0
 11 12  1  0        0
 12 13  1  0        0
 13 14  1  0        0
 14 15  4  0        0
 15 16  4  0        0
 16 17  4  0        0
 17 18  4  0        0
 18 19  4  0        0
 19 20  4  0        0
 20 21  1  0        0
 21 22  1  0        0
 20 23  4  0        0
 16 23  4  0        0
 17 24  4  0        0
 14 24  4  0        0
 24 25  1  0        0
 25 26  1  0        0
 12 26  1  0        0
 13 27  1  0        0
  9 27  1  0        0
 10 28  1  0        0
  4 28  1  0        0
  8 29  1  0        0
 29 30  2  0        0
 29 31  1  0        0
 31 32  1  0        0
  2 33  1  0        0
 33 34  4  0        0
 34 35  4  0        0
 35 36  1  0        0
 36 37  1  0        0
 35 38  4  0        0
 38 39  1  0        0
 39 40  1  0        0
 38 41  4  0        0
 41 42  1  0        0
 42 43  1  0        0
 41 44  4  0        0
 33 44  4  0        0
M  END
$$$$

CDXL12

 21 22  0  0  0  0  0  0  0  0999 V2000
   -0.0000    1.0313    0.0000 Cl  0  0  0  0  0  0  0  2  0  0  0  0
    0.7145    0.6188    0.0000 C   0  0  0  0  0  0  0  2  0  0  0  0
    1.4289    1.0312    0.0000 C   0  0  0  0  0  0  0  2  0  0  0  0
    2.1434    0.6187    0.0000 C   0  0  0  0  0  0  0  2  0  0  0  0
    2.8579    1.0312    0.0000 N   0  0  0  0  0  0  0  2  0  0  0  0
    2.8579    1.8562    0.0000 O   0  0  0  0  0  0  0  2  0  0  0  0
    3.5724    0.6187    0.0000 O   0  0  0  0  0  0  0  2  0  0  0  0
    2.1434   -0.2063    0.0000 C   0  0  0  0  0  0  0  2  0  0  0  0
    1.4289   -0.6188    0.0000 C   0  0  0  0  0  0  0  2  0  0  0  0
    0.7145   -0.2062    0.0000 C   0  0  0  0  0  0  0  2  0  0  0  0
   -0.0000   -0.6188    0.0000 N   0  0  0  0  0  0  0  2  0  0  0  0
   -0.7145   -0.2062    0.0000 C   0  0  0  0  0  0  0  2  0  0  0  0
   -0.7145    0.6188    0.0000 O   0  0  0  0  0  0  0  2  0  0  0  0
   -1.4289   -0.6188    0.0000 C   0  0  0  0  0  0  0  2  0  0  0  0
   -2.1434   -0.2062    0.0000 C   0  0  0  0  0  0  0  2  0  0  0  0
   -2.8579   -0.6188    0.0000 C   0  0  0  0  0  0  0  2  0  0  0  0
   -3.5724   -0.2063    0.0000 Cl  0  0  0  0  0  0  0  2  0  0  0  0
   -2.8579   -1.4438    0.0000 C   0  0  0  0  0  0  0  2  0  0  0  0
   -2.1434   -1.8562    0.0000 C   0  0  0  0  0  0  0  2  0  0  0  0
   -1.4289   -1.4438    0.0000 C   0  0  0  0  0  0  0  2  0  0  0  0
   -0.7145   -1.8562    0.0000 O   0  0  0  0  0  0  0  2  0  0  0  0
  1  2  1  0        0
  2  3  4  0        0
  3  4  4  0        0
  4  5  1  0        0
  5  6  2  0        0
  5  7  2  0        0
  4  8  4  0        0
  8  9  4  0        0
  9 10  4  0        0
  2 10  4  0        0
 10 11  1  0        0
 11 12  1  0        0
 12 13  2  0        0
 12 14  1  0        0
 14 15  4  0        0
 15 16  4  0        0
 16 17  1  0        0
 16 18  4  0        0
 18 19  4  0        0
 19 20  4  0        0
 14 20  4  0        0
 20 21  1  0        0
M  END
$$$$

CDXL12

 12 11  0  0  0  0  0  0  0  0999 V2000
    2.5006    0.2062    0.0000 O   0  0  0  0  0  0  0  2  0  0  0  0
    1.7862   -0.2062    0.0000 C   0  0  0  0  0  0  0  2  0  0  0  0
    1.0717    0.2062    0.0000 C   0  0  0  0  0  0  0  2  0  0  0  0
    1.0717    1.0313    0.0000 O   0  0  0  0  0  0  0  2  0  0  0  0
    0.3572   -0.2062    0.0000 C   0  0  0  0  0  0  0  2  0  0  0  0
    0.3572   -1.0313    0.0000 O   0  0  0  0  0  0  0  2  0  0  0  0
   -0.3572    0.2062    0.0000 C   0  0  0  0  0  0  0  2  0  0  0  0
   -0.3572    1.0313    0.0000 O   0  0  0  0  0  0  0  2  0  0  0  0
   -1.0717   -0.2062    0.0000 C   0  0  0  0  0  0  0  2  0  0  0  0
   -1.0717   -1.0313    0.0000 O   0  0  0  0  0  0  0  2  0  0  0  0
   -1.7862    0.2062    0.0000 C   0  0  0  0  0  0  0  2  0  0  0  0
   -2.5006   -0.2062    0.0000 O   0  0  0  0  0  0  0  2  0  0  0  0
  1  2  1  0        0
  2  3  1  0        0
  3  4  1  0        0
  3  5  1  0        0
  5  6  1  0        0
  5  7  1  0        0
  7  8  1  0        0
  7  9  1  0        0
  9 10  1  0        0
  9 11  1  0        0
 11 12  1  0        0
M  END
$$$$

CDXL12

 10 10  0  0  0  0  0  0  0  0999 V2000
   -1.4289   -1.2375    0.0000 O   0  0  0  0  0  0  0  2  0  0  0  0
   -0.7145   -0.8250    0.0000 C   0  0  0  0  0  0  0  2  0  0  0  0
   -0.7145    0.0000    0.0000 N   0  0  0  0  0  0  0  2  0  0  0  0
    0.0000    0.4125    0.0000 C   0  0  0  0  0  0  0  2  0  0  0  0
    0.0000    1.2375    0.0000 O   0  0  0  0  0  0  0  2  0  0  0  0
    0.7145   -0.0000    0.0000 C   0  0  0  0  0  0  0  2  0  0  0  0
    1.4289    0.4125    0.0000 O   0  0  0  0  0  0  0  2  0  0  0  0
    0.7145   -0.8250    0.0000 C   0  0  0  0  0  0  0  2  0  0  0  0
    1.4289   -1.2375    0.0000 O   0  0  0  0  0  0  0  2  0  0  0  0
    0.0000   -1.2375    0.0000 N   0  0  0  0  0  0  0  2  0  0  0  0
  1  2  2  0        0
  2  3  1  0        0
  3  4  1  0        0
  4  5  2  0        0
  4  6  1  0        0
  6  7  2  0        0
  6  8  1  0        0
  8  9  2  0        0
  8 10  1  0        0
  2 10  1  0        0
M  END
$$$$

CDXL12

 13 13  0  0  0  0  0  0  0  0999 V2000
    1.0717    1.0313    0.0000 O   0  0  0  0  0  0  0  2  0  0  0  0
    1.0717    0.2062    0.0000 C   0  0  0  0  0  0  0  2  0  0  0  0
    0.3572   -0.2062    0.0000 O   0  0  0  0  0  0  0  2  0  0  0  0
   -0.3572    0.2062    0.0000 C   0  0  0  0  0  0  0  2  0  0  0  0
   -1.0717   -0.2062    0.0000 C   0  0  0  0  0  0  0  2  0  0  0  0
   -1.7862    0.2062    0.0000 C   0  0  0  0  0  0  0  2  0  0  0  0
   -1.7862    1.0313    0.0000 C   0  0  0  0  0  0  0  2  0  0  0  0
   -1.0717    1.4438    0.0000 C   0  0  0  0  0  0  0  2  0  0  0  0
   -0.3572    1.0313    0.0000 C   0  0  0  0  0  0  0  2  0  0  0  0
   -1.0717   -1.0313    0.0000 C   0  0  0  0  0  0  0  2  0  0  0  0
   -1.7862   -1.4438    0.0000 O   0  0  0  0  0  0  0  2  0  0  0  0
   -0.3572   -1.4437    0.0000 O   0  0  0  0  0  0  0  2  0  0  0  0
    1.7862   -0.2062    0.0000 C   0  0  0  0  0  0  0  2  0  0  0  0
  1  2  2  0        0
  2  3  1  0        0
  3  4  1  0        0
  4  5  4  0        0
  5  6  4  0        0
  6  7  4  0        0
  7  8  4  0        0
  8  9  4  0        0
  4  9  4  0        0
  5 10  1  0        0
 10 11  2  0        0
 10 12  1  0        0
  2 13  1  0        0
M  END
$$$$

CDXL12

 11 11  0  0  0  0  0  0  0  0999 V2000
   -0.3572    0.4125    0.0000 C   0  0  0  0  0  0  0  2  0  0  0  0
   -1.0717    0.0000    0.0000 C   0  0  0  0  0  0  0  2  0  0  0  0
   -1.7862    0.4125    0.0000 Cl  0  0  0  0  0  0  0  2  0  0  0  0
   -1.0717   -0.8250    0.0000 C   0  0  0  0  0  0  0  2  0  0  0  0
   -0.3572   -1.2375    0.0000 C   0  0  0  0  0  0  0  2  0  0  0  0
    0.3572   -0.8250    0.0000 C   0  0  0  0  0  0  0  2  0  0  0  0
    0.3572   -0.0000    0.0000 C   0  0  0  0  0  0  0  2  0  0  0  0
    1.0717    0.4125    0.0000 C   0  0  0  0  0  0  0  2  0  0  0  0
    1.0717    1.2375    0.0000 O   0  0  0  0  0  0  0  2  0  0  0  0
    1.7862   -0.0000    0.0000 O   0  0  0  0  0  0  0  2  0  0  0  0
    1.0717   -1.2375    0.0000 Cl  0  0  0  0  0  0  0  2  0  0  0  0
  1  2  4  0        0
  2  3  1  0        0
  2  4  4  0        0
  4  5  4  0        0
  5  6  4  0        0
  6  7  4  0        0
  1  7  4  0        0
  7  8  1  0        0
  8  9  2  0        0
  8 10  1  0        0
  6 11  1  0        0
M  END
$$$$

CDXL12

 12 12  0  0  0  0  0  0  0  0999 V2000
   -0.7623   -0.5896    0.0000 O   0  0  0  0  0  0  0  2  0  0  0  0
   -1.3143    0.0234    0.0000 C   0  0  0  0  0  0  0  2  0  0  0  0
   -2.1348   -0.0628    0.0000 O   0  0  0  0  0  0  0  2  0  0  0  0
   -0.9018    0.7379    0.0000 C   0  0  0  0  0  0  0  2  0  0  0  0
   -1.2374    1.4916    0.0000 O   0  0  0  0  0  0  0  2  0  0  0  0
   -0.0948    0.5664    0.0000 C   0  0  0  0  0  0  0  2  0  0  0  0
    0.5182    1.1184    0.0000 O   0  0  0  0  0  0  0  2  0  0  0  0
   -0.0086   -0.2541    0.0000 C   0  0  0  0  0  0  0  2  0  0  0  0
    0.7059   -0.6666    0.0000 C   0  0  0  0  0  0  0  2  0  0  0  0
    0.7059   -1.4916    0.0000 O   0  0  0  0  0  0  0  2  0  0  0  0
    1.4203   -0.2541    0.0000 C   0  0  0  0  0  0  0  2  0  0  0  0
    2.1348   -0.6666    0.0000 O   0  0  0  0  0  0  0  2  0  0  0  0
  1  2  1  0        0
  2  3  2  0        0
  2  4  1  0        0
  4  5  1  0        0
  4  6  2  0        0
  6  7  1  0        0
  6  8  1  0        0
  1  8  1  0        0
  8  9  1  0        0
  9 10  1  0        0
  9 11  1  0        0
 11 12  1  0        0
M  END
$$$$

CDXL12

 11 11  0  0  0  0  0  0  0  0999 V2000
    1.0717    1.2375    0.0000 O   0  0  0  0  0  0  0  2  0  0  0  0
    1.0717    0.4125    0.0000 C   0  0  0  0  0  0  0  2  0  0  0  0
    1.7862    0.0000    0.0000 O   0  0  0  0  0  0  0  2  0  0  0  0
    0.3572   -0.0000    0.0000 C   0  0  0  0  0  0  0  2  0  0  0  0
    0.3572   -0.8250    0.0000 C   0  0  0  0  0  0  0  2  0  0  0  0
   -0.3572   -1.2375    0.0000 C   0  0  0  0  0  0  0  2  0  0  0  0
   -1.0717   -0.8250    0.0000 C   0  0  0  0  0  0  0  2  0  0  0  0
   -1.0717    0.0000    0.0000 C   0  0  0  0  0  0  0  2  0  0  0  0
   -0.3572    0.4125    0.0000 C   0  0  0  0  0  0  0  2  0  0  0  0
   -1.7862   -1.2375    0.0000 Cl  0  0  0  0  0  0  0  2  0  0  0  0
    1.0717   -1.2375    0.0000 Cl  0  0  0  0  0  0  0  2  0  0  0  0
  1  2  2  0        0
  2  3  1  0        0
  2  4  1  0        0
  4  5  4  0        0
  5  6  4  0        0
  6  7  4  0        0
  7  8  4  0        0
  8  9  4  0        0
  4  9  4  0        0
  7 10  1  0        0
  5 11  1  0        0
M  END
$$$$

CDXL12

 11 11  0  0  0  0  0  0  0  0999 V2000
   -0.3572    0.4125    0.0000 C   0  0  0  0  0  0  0  2  0  0  0  0
   -1.0717    0.0000    0.0000 C   0  0  0  0  0  0  0  2  0  0  0  0
   -1.0717   -0.8250    0.0000 C   0  0  0  0  0  0  0  2  0  0  0  0
   -1.7862   -1.2375    0.0000 C   0  0  0  0  0  0  0  2  0  0  0  0
   -0.3572   -1.2375    0.0000 C   0  0  0  0  0  0  0  2  0  0  0  0
    0.3572   -0.8250    0.0000 C   0  0  0  0  0  0  0  2  0  0  0  0
    1.0717   -1.2375    0.0000 O   0  0  0  0  0  0  0  2  0  0  0  0
    0.3572   -0.0000    0.0000 C   0  0  0  0  0  0  0  2  0  0  0  0
    1.0717    0.4125    0.0000 C   0  0  0  0  0  0  0  2  0  0  0  0
    1.0717    1.2375    0.0000 O   0  0  0  0  0  0  0  2  0  0  0  0
    1.7862   -0.0000    0.0000 O   0  0  0  0  0  0  0  2  0  0  0  0
  1  2  4  0        0
  2  3  4  0        0
  3  4  1  0        0
  3  5  4  0        0
  5  6  4  0        0
  6  7  1  0        0
  6  8  4  0        0
  1  8  4  0        0
  8  9  1  0        0
  9 10  2  0        0
  9 11  1  0        0
M  END
$$$$

CDXL12

 17 18  0  0  0  0  0  0  0  0999 V2000
    0.1234    1.6978    0.0000 O   0  0  0  0  0  0  0  2  0  0  0  0
   -0.5911    1.2853    0.0000 C   0  0  0  0  0  0  0  2  0  0  0  0
   -0.5911    0.4603    0.0000 N   0  0  0  0  0  0  0  2  0  0  0  0
   -1.3056    0.0478    0.0000 C   0  0  0  0  0  0  0  2  0  0  0  0
   -2.0200    0.4603    0.0000 C   0  0  0  0  0  0  0  2  0  0  0  0
   -2.0200    1.2853    0.0000 C   0  0  0  0  0  0  0  2  0  0  0  0
   -2.7345    1.6978    0.0000 O   0  0  0  0  0  0  0  2  0  0  0  0
   -1.3056    1.6978    0.0000 N   0  0  0  0  0  0  0  2  0  0  0  0
   -2.7345    0.0478    0.0000 C   0  0  0  0  0  0  0  2  0  0  0  0
    0.1234    0.0478    0.0000 C   0  0  0  0  0  0  0  2  0  0  0  0
    0.8771    0.3834    0.0000 O   0  0  0  0  0  0  0  2  0  0  0  0
    1.4291   -0.2297    0.0000 C   0  0  0  0  0  0  0  2  0  0  0  0
    1.0166   -0.9442    0.0000 C   0  0  0  0  0  0  0  2  0  0  0  0
    1.3522   -1.6978    0.0000 O   0  0  0  0  0  0  0  2  0  0  0  0
    0.2096   -0.7726    0.0000 C   0  0  0  0  0  0  0  2  0  0  0  0
    2.2496   -0.1435    0.0000 C   0  0  0  0  0  0  0  2  0  0  0  0
    2.7345   -0.8109    0.0000 O   0  0  0  0  0  0  0  2  0  0  0  0
  1  2  2  0        0
  2  3  1  0        0
  3  4  1  0        0
  4  5  2  0        0
  5  6  1  0        0
  6  7  2  0        0
  6  8  1  0        0
  2  8  1  0        0
  5  9  1  0        0
  3 10  1  0        0
 10 11  1  0        0
 11 12  1  0        0
 12 13  1  0        0
 13 14  1  0        0
 13 15  1  0        0
 10 15  1  0        0
 12 16  1  0        0
 16 17  1  0        0
M  END
$$$$

CDXL12

 24 25  0  0  0  0  0  0  0  0999 V2000
    5.1511    0.6674    0.0000 O   0  0  0  0  0  0  0  2  0  0  0  0
    4.3665    0.4125    0.0000 C   0  0  0  0  0  0  0  2  0  0  0  0
    4.3665   -0.4125    0.0000 C   0  0  0  0  0  0  0  2  0  0  0  0
    5.1511   -0.6674    0.0000 O   0  0  0  0  0  0  0  2  0  0  0  0
    5.6361   -0.0000    0.0000 C   0  0  0  0  0  0  0  2  0  0  0  0
    3.6521   -0.8250    0.0000 C   0  0  0  0  0  0  0  2  0  0  0  0
    2.9376   -0.4125    0.0000 C   0  0  0  0  0  0  0  2  0  0  0  0
    2.9376    0.4125    0.0000 C   0  0  0  0  0  0  0  2  0  0  0  0
    2.2231    0.8250    0.0000 C   0  0  0  0  0  0  0  2  0  0  0  0
    1.5086    0.4125    0.0000 C   0  0  0  0  0  0  0  2  0  0  0  0
    0.7942    0.8250    0.0000 C   0  0  0  0  0  0  0  2  0  0  0  0
    3.6521    0.8250    0.0000 C   0  0  0  0  0  0  0  2  0  0  0  0
    2.2231   -0.8250    0.0000 C   0  0  0  0  0  0  0  2  0  0  0  0
    1.5086   -0.4125    0.0000 O   0  0  0  0  0  0  0  2  0  0  0  0
    0.7942   -0.8250    0.0000 C   0  0  0  0  0  0  0  2  0  0  0  0
    0.0797   -0.4125    0.0000 C   0  0  0  0  0  0  0  2  0  0  0  0
   -0.6348   -0.8250    0.0000 O   0  0  0  0  0  0  0  2  0  0  0  0
   -1.3492   -0.4125    0.0000 C   0  0  0  0  0  0  0  2  0  0  0  0
   -2.0637   -0.8250    0.0000 C   0  0  0  0  0  0  0  2  0  0  0  0
   -2.7782   -0.4125    0.0000 O   0  0  0  0  0  0  0  2  0  0  0  0
   -3.4927   -0.8250    0.0000 C   0  0  0  0  0  0  0  2  0  0  0  0
   -4.2071   -0.4125    0.0000 C   0  0  0  0  0  0  0  2  0  0  0  0
   -4.9216   -0.8250    0.0000 C   0  0  0  0  0  0  0  2  0  0  0  0
   -5.6361   -0.4125    0.0000 C   0  0  0  0  0  0  0  2  0  0  0  0
  1  2  1  0        0
  2  3  4  0        0
  3  4  1  0        0
  4  5  1  0        0
  1  5  1  0        0
  3  6  4  0        0
  6  7  4  0        0
  7  8  4  0        0
  8  9  1  0        0
  9 10  1  0        0
 10 11  1  0        0
  8 12  4  0        0
  2 12  4  0        0
  7 13  1  0        0
 13 14  1  0        0
 14 15  1  0        0
 15 16  1  0        0
 16 17  1  0        0
 17 18  1  0        0
 18 19  1  0        0
 19 20  1  0        0
 20 21  1  0        0
 21 22  1  0        0
 22 23  1  0        0
 23 24  1  0        0
M  END
$$$$

CDXL12

  9 10  0  0  0  0  0  0  0  0999 V2000
    0.8643   -0.6674    0.0000 N   0  0  0  0  0  0  0  2  0  0  0  0
    0.0797   -0.4125    0.0000 C   0  0  0  0  0  0  0  2  0  0  0  0
    0.0797    0.4125    0.0000 C   0  0  0  0  0  0  0  2  0  0  0  0
    0.8643    0.6674    0.0000 N   0  0  0  0  0  0  0  2  0  0  0  0
    1.3492   -0.0000    0.0000 C   0  0  0  0  0  0  0  2  0  0  0  0
   -0.6348    0.8250    0.0000 C   0  0  0  0  0  0  0  2  0  0  0  0
   -1.3492    0.4125    0.0000 C   0  0  0  0  0  0  0  2  0  0  0  0
   -1.3492   -0.4125    0.0000 C   0  0  0  0  0  0  0  2  0  0  0  0
   -0.6348   -0.8250    0.0000 C   0  0  0  0  0  0  0  2  0  0  0  0
  1  2  4  0        0
  2  3  4  0        0
  3  4  4  0        0
  4  5  4  0        0
  1  5  4  0        0
  3  6  4  0        0
  6  7  4  0        0
  7  8  4  0        0
  8  9  4  0        0
  2  9  4  0        0
M  END
$$$$

CDXL12

 22 25  0  0  0  0  0  0  0  0999 V2000
    0.4494   -0.2822    0.0000 C   0  0  0  0  0  0  0  2  0  0  0  0
    1.2246   -0.0000    0.0000 N   0  0  0  0  0  0  0  2  0  0  0  0
    1.7576    0.9269    0.0000 C   0  0  0  0  0  0  0  2  0  0  0  0
    0.9533    0.7433    0.0000 C   0  0  0  0  0  0  0  2  0  0  0  0
    0.5954   -0.0000    0.0000 C   0  0  0  0  0  0  0  2  0  0  0  0
    0.9533   -0.7433    0.0000 C   0  0  0  0  0  0  0  2  0  0  0  0
    1.7576   -0.9269    0.0000 C   0  0  0  0  0  0  0  2  0  0  0  0
    2.4027   -0.4125    0.0000 C   0  0  0  0  0  0  0  2  0  0  0  0
    3.1171   -0.0000    0.0000 O   0  0  0  0  0  0  0  2  0  0  0  0
    2.4027    0.4125    0.0000 C   0  0  0  0  0  0  0  2  0  0  0  0
   -0.2296   -0.0000    0.0000 O   0  0  0  0  0  0  0  2  0  0  0  0
   -0.6421    0.7145    0.0000 C   0  0  0  0  0  0  0  2  0  0  0  0
   -0.2296    1.4289    0.0000 O   0  0  0  0  0  0  0  2  0  0  0  0
   -1.4671    0.7145    0.0000 C   0  0  0  0  0  0  0  2  0  0  0  0
   -1.8796    1.4289    0.0000 C   0  0  0  0  0  0  0  2  0  0  0  0
   -2.7046    1.4289    0.0000 O   0  0  0  0  0  0  0  2  0  0  0  0
   -1.8796   -0.0000    0.0000 C   0  0  0  0  0  0  0  2  0  0  0  0
   -1.4671   -0.7145    0.0000 C   0  0  0  0  0  0  0  2  0  0  0  0
   -1.8796   -1.4289    0.0000 C   0  0  0  0  0  0  0  2  0  0  0  0
   -2.7046   -1.4289    0.0000 C   0  0  0  0  0  0  0  2  0  0  0  0
   -3.1171   -0.7145    0.0000 C   0  0  0  0  0  0  0  2  0  0  0  0
   -2.7046   -0.0000    0.0000 C   0  0  0  0  0  0  0  2  0  0  0  0
  1  2  1  0        0
  2  3  1  0        0
  3  4  1  0        0
  4  5  1  0        0
  5  6  1  0        0
  6  7  1  0        0
  2  7  1  0        0
  7  8  1  0        0
  8  9  1  0        0
  9 10  1  0        0
  3 10  1  0        0
  8 10  1  0        0
  5 11  1  0        0
 11 12  1  0        0
 12 13  2  0        0
 12 14  1  0        0
 14 15  1  0        0
 15 16  1  0        0
 14 17  1  0        0
 17 18  4  0        0
 18 19  4  0        0
 19 20  4  0        0
 20 21  4  0        0
 21 22  4  0        0
 17 22  4  0        0
M  END
$$$$

CDXL12

 11 11  0  0  0  0  0  0  0  0999 V2000
    1.7862    0.4125    0.0000 O   0  0  0  0  0  0  0  2  0  0  0  0
    1.0717    0.8250    0.0000 C   0  0  0  0  0  0  0  2  0  0  0  0
    1.0717    1.6500    0.0000 O   0  0  0  0  0  0  0  2  0  0  0  0
    0.3572    0.4125    0.0000 C   0  0  0  0  0  0  0  2  0  0  0  0
    0.3572   -0.4125    0.0000 C   0  0  0  0  0  0  0  2  0  0  0  0
   -0.3572   -0.8250    0.0000 C   0  0  0  0  0  0  0  2  0  0  0  0
   -0.3572   -1.6500    0.0000 Cl  0  0  0  0  0  0  0  2  0  0  0  0
   -1.0717   -0.4125    0.0000 C   0  0  0  0  0  0  0  2  0  0  0  0
   -1.0717    0.4125    0.0000 C   0  0  0  0  0  0  0  2  0  0  0  0
   -1.7862    0.8250    0.0000 Cl  0  0  0  0  0  0  0  2  0  0  0  0
   -0.3572    0.8250    0.0000 C   0  0  0  0  0  0  0  2  0  0  0  0
  1  2  1  0        0
  2  3  2  0        0
  2  4  1  0        0
  4  5  4  0        0
  5  6  4  0        0
  6  7  1  0        0
  6  8  4  0        0
  8  9  4  0        0
  9 10  1  0        0
  9 11  4  0        0
  4 11  4  0        0
M  END
$$$$

CDXL12

 13 13  0  0  0  0  0  0  0  0999 V2000
   -0.3572   -1.2375    0.0000 O   0  0  0  0  0  0  0  2  0  0  0  0
   -0.3572   -0.4125    0.0000 C   0  0  0  0  0  0  0  2  0  0  0  0
    0.3572    0.0000    0.0000 C   0  0  0  0  0  0  0  2  0  0  0  0
    0.3572    0.8250    0.0000 C   0  0  0  0  0  0  0  2  0  0  0  0
    1.0717    1.2375    0.0000 C   0  0  0  0  0  0  0  2  0  0  0  0
    1.7862    0.8250    0.0000 C   0  0  0  0  0  0  0  2  0  0  0  0
    2.5006    1.2375    0.0000 O   0  0  0  0  0  0  0  2  0  0  0  0
    1.7862    0.0000    0.0000 C   0  0  0  0  0  0  0  2  0  0  0  0
    2.5006   -0.4125    0.0000 O   0  0  0  0  0  0  0  2  0  0  0  0
    1.0717   -0.4125    0.0000 C   0  0  0  0  0  0  0  2  0  0  0  0
   -1.0717   -0.0000    0.0000 C   0  0  0  0  0  0  0  2  0  0  0  0
   -1.7862   -0.4125    0.0000 N   0  0  0  0  0  0  0  2  0  0  0  0
   -2.5006   -0.0000    0.0000 C   0  0  0  0  0  0  0  2  0  0  0  0
  1  2  1  0        0
  2  3  1  0        0
  3  4  4  0        0
  4  5  4  0        0
  5  6  4  0        0
  6  7  1  0        0
  6  8  4  0        0
  8  9  1  0        0
  8 10  4  0        0
  3 10  4  0        0
  2 11  1  0        0
 11 12  1  0        0
 12 13  1  0        0
M  END
$$$$

CDXL12

 21 23  0  0  0  0  0  0  0  0999 V2000
    0.2289   -1.4289    0.0000 O   0  0  0  0  0  0  0  2  0  0  0  0
    0.6414   -0.7145    0.0000 C   0  0  0  0  0  0  0  2  0  0  0  0
    0.2289   -0.0000    0.0000 O   0  0  0  0  0  0  0  2  0  0  0  0
   -0.5961   -0.0000    0.0000 C   0  0  0  0  0  0  0  2  0  0  0  0
   -0.9541   -0.7433    0.0000 C   0  0  0  0  0  0  0  2  0  0  0  0
   -1.7584   -0.9269    0.0000 C   0  0  0  0  0  0  0  2  0  0  0  0
   -2.2914   -0.0000    0.0000 N   0  0  0  0  0  0  0  2  0  0  0  0
   -1.7584    0.9269    0.0000 C   0  0  0  0  0  0  0  2  0  0  0  0
   -2.4034    0.4125    0.0000 C   0  0  0  0  0  0  0  2  0  0  0  0
   -2.4034   -0.4125    0.0000 C   0  0  0  0  0  0  0  2  0  0  0  0
   -0.9541    0.7433    0.0000 C   0  0  0  0  0  0  0  2  0  0  0  0
   -3.1164   -0.0000    0.0000 C   0  0  0  0  0  0  0  2  0  0  0  0
    1.4664   -0.7145    0.0000 C   0  0  0  0  0  0  0  2  0  0  0  0
    1.8789   -0.0000    0.0000 C   0  0  0  0  0  0  0  2  0  0  0  0
    1.4664    0.7145    0.0000 C   0  0  0  0  0  0  0  2  0  0  0  0
    1.8789    1.4289    0.0000 C   0  0  0  0  0  0  0  2  0  0  0  0
    2.7039    1.4289    0.0000 C   0  0  0  0  0  0  0  2  0  0  0  0
    3.1164    0.7145    0.0000 C   0  0  0  0  0  0  0  2  0  0  0  0
    2.7039   -0.0000    0.0000 C   0  0  0  0  0  0  0  2  0  0  0  0
    1.8789   -1.4289    0.0000 C   0  0  0  0  0  0  0  2  0  0  0  0
    2.7039   -1.4289    0.0000 O   0  0  0  0  0  0  0  2  0  0  0  0
  1  2  2  0        0
  2  3  1  0        0
  3  4  1  0        0
  4  5  1  0        0
  5  6  1  0        0
  6  7  1  0        0
  7  8  1  0        0
  8  9  1  0        0
  9 10  1  0        0
  6 10  1  0        0
  8 11  1  0        0
  4 11  1  0        0
  7 12  1  0        0
  2 13  1  0        0
 13 14  1  0        0
 14 15  4  0        0
 15 16  4  0        0
 16 17  4  0        0
 17 18  4  0        0
 18 19  4  0        0
 14 19  4  0        0
 13 20  1  0        0
 20 21  1  0        0
M  END
$$$$

CDXL12

 10 10  0  0  0  0  0  0  0  0999 V2000
    2.1434   -0.8250    0.0000 N   0  0  0  0  0  0  0  2  0  0  0  0
    1.4289   -0.4125    0.0000 C   0  0  0  0  0  0  0  2  0  0  0  0
    0.7145   -0.8250    0.0000 C   0  0  0  0  0  0  0  2  0  0  0  0
    0.0000   -0.4125    0.0000 C   0  0  0  0  0  0  0  2  0  0  0  0
   -0.7145   -0.8250    0.0000 C   0  0  0  0  0  0  0  2  0  0  0  0
   -1.4289   -0.4125    0.0000 C   0  0  0  0  0  0  0  2  0  0  0  0
   -1.4289    0.4125    0.0000 C   0  0  0  0  0  0  0  2  0  0  0  0
   -2.1434    0.8250    0.0000 O   0  0  0  0  0  0  0  2  0  0  0  0
   -0.7145    0.8250    0.0000 C   0  0  0  0  0  0  0  2  0  0  0  0
    0.0000    0.4125    0.0000 C   0  0  0  0  0  0  0  2  0  0  0  0
  1  2  1  0        0
  2  3  1  0        0
  3  4  1  0        0
  4  5  4  0        0
  5  6  4  0        0
  6  7  4  0        0
  7  8  1  0        0
  7  9  4  0        0
  9 10  4  0        0
  4 10  4  0        0
M  END
$$$$

CDXL12

 29 33  0  0  0  0  0  0  0  0999 V2000
    3.4856    2.3304    0.0000 O   0  0  0  0  0  0  0  2  0  0  0  0
    2.6925    2.1030    0.0000 C   0  0  0  0  0  0  0  2  0  0  0  0
    2.4104    1.3277    0.0000 O   0  0  0  0  0  0  0  2  0  0  0  0
    1.5859    1.3565    0.0000 C   0  0  0  0  0  0  0  2  0  0  0  0
    0.8012    1.1016    0.0000 C   0  0  0  0  0  0  0  2  0  0  0  0
    0.8012    0.2766    0.0000 C   0  0  0  0  0  0  0  2  0  0  0  0
    0.0868   -0.1359    0.0000 C   0  0  0  0  0  0  0  2  0  0  0  0
   -0.6277    0.2766    0.0000 C   0  0  0  0  0  0  0  2  0  0  0  0
   -1.3422   -0.1359    0.0000 C   0  0  0  0  0  0  0  2  0  0  0  0
   -1.3422   -0.9609    0.0000 C   0  0  0  0  0  0  0  2  0  0  0  0
   -2.0566   -1.3734    0.0000 C   0  0  0  0  0  0  0  2  0  0  0  0
   -2.7711   -0.9609    0.0000 C   0  0  0  0  0  0  0  2  0  0  0  0
   -3.4856   -1.3734    0.0000 O   0  0  0  0  0  0  0  2  0  0  0  0
   -2.7711   -0.1359    0.0000 C   0  0  0  0  0  0  0  2  0  0  0  0
   -2.0566    0.2766    0.0000 C   0  0  0  0  0  0  0  2  0  0  0  0
   -0.6277   -1.3734    0.0000 C   0  0  0  0  0  0  0  2  0  0  0  0
    0.0868   -0.9609    0.0000 C   0  0  0  0  0  0  0  2  0  0  0  0
    0.8012   -1.3734    0.0000 S   0  0  0  0  0  0  0  2  0  0  0  0
    0.8012   -2.1984    0.0000 C   0  0  0  0  0  0  0  2  0  0  0  0
    0.0868   -2.6109    0.0000 O   0  0  0  0  0  0  0  2  0  0  0  0
    1.5157   -2.6109    0.0000 C   0  0  0  0  0  0  0  2  0  0  0  0
   -1.3422    0.6891    0.0000 C   0  0  0  0  0  0  0  2  0  0  0  0
   -0.6277    1.1016    0.0000 C   0  0  0  0  0  0  0  2  0  0  0  0
    0.0868    1.5141    0.0000 C   0  0  0  0  0  0  0  2  0  0  0  0
    1.5859    0.0217    0.0000 C   0  0  0  0  0  0  0  2  0  0  0  0
    2.0708    0.6891    0.0000 C   0  0  0  0  0  0  0  2  0  0  0  0
    0.8875    1.9221    0.0000 C   0  0  0  0  0  0  0  2  0  0  0  0
    1.3585    2.1496    0.0000 C   0  0  0  0  0  0  0  2  0  0  0  0
    2.0424    2.6109    0.0000 C   0  0  0  0  0  0  0  2  0  0  0  0
  1  2  2  0        0
  2  3  1  0        0
  3  4  1  0        0
  4  5  1  0        0
  5  6  1  0        0
  6  7  1  0        0
  7  8  1  0        0
  8  9  1  0        0
  9 10  1  0        0
 10 11  2  0        0
 11 12  1  0        0
 12 13  2  0        0
 12 14  1  0        0
 14 15  1  0        0
  9 15  1  0        0
 10 16  1  0        0
 16 17  1  0        0
  7 17  1  0        0
 17 18  1  0        0
 18 19  1  0        0
 19 20  2  0        0
 19 21  1  0        0
  9 22  1  0        0
  8 23  1  0        0
 23 24  1  0        0
  5 24  1  0        0
  6 25  1  0        0
 25 26  1  0        0
  4 26  1  0        0
  5 27  1  0        0
  4 28  1  0        0
 28 29  1  0        0
  2 29  1  0        0
M  END
$$$$

CDXL12

 15 15  0  0  0  0  0  0  0  0999 V2000
    2.3092   -0.5230    0.0000 C   0  0  0  0  0  0  0  2  0  0  0  0
    1.5947   -0.1105    0.0000 C   0  0  0  0  0  0  0  2  0  0  0  0
    0.8803   -0.5230    0.0000 C   0  0  0  0  0  0  0  2  0  0  0  0
    0.1658   -0.1105    0.0000 C   0  0  0  0  0  0  0  2  0  0  0  0
    0.8803    0.3020    0.0000 C   0  0  0  0  0  0  0  2  0  0  0  0
    0.8803    1.1270    0.0000 C   0  0  0  0  0  0  0  2  0  0  0  0
    1.5947    1.5395    0.0000 C   0  0  0  0  0  0  0  2  0  0  0  0
   -0.2467   -0.8250    0.0000 C   0  0  0  0  0  0  0  2  0  0  0  0
    0.1658   -1.5395    0.0000 O   0  0  0  0  0  0  0  2  0  0  0  0
   -1.0717   -0.8250    0.0000 N   0  0  0  0  0  0  0  2  0  0  0  0
   -1.4842   -0.1105    0.0000 C   0  0  0  0  0  0  0  2  0  0  0  0
   -2.3092   -0.1105    0.0000 O   0  0  0  0  0  0  0  2  0  0  0  0
   -1.0717    0.6039    0.0000 N   0  0  0  0  0  0  0  2  0  0  0  0
   -0.2467    0.6039    0.0000 C   0  0  0  0  0  0  0  2  0  0  0  0
    0.1658    1.3184    0.0000 O   0  0  0  0  0  0  0  2  0  0  0  0
  1  2  2  0        0
  2  3  1  0        0
  3  4  1  0        0
  4  5  1  0        0
  5  6  1  0        0
  6  7  2  0        0
  4  8  1  0        0
  8  9  2  0        0
  8 10  1  0        0
 10 11  1  0        0
 11 12  2  0        0
 11 13  1  0        0
 13 14  1  0        0
  4 14  1  0        0
 14 15  2  0        0
M  END
$$$$

CDXL12

  9  8  0  0  0  0  0  0  0  0999 V2000
    0.7145    1.2375    0.0000 O   0  0  0  0  0  0  0  2  0  0  0  0
    0.7145    0.4125    0.0000 N   0  0  0  0  0  0  0  2  0  0  0  0
    1.4289   -0.0000    0.0000 O   0  0  0  0  0  0  0  2  0  0  0  0
    0.0000   -0.0000    0.0000 C   0  0  0  0  0  0  0  2  0  0  0  0
    0.0000    0.8250    0.0000 Br  0  0  0  0  0  0  0  2  0  0  0  0
   -0.7145    0.4125    0.0000 C   0  0  0  0  0  0  0  2  0  0  0  0
   -1.4289   -0.0000    0.0000 O   0  0  0  0  0  0  0  2  0  0  0  0
    0.0000   -0.8250    0.0000 C   0  0  0  0  0  0  0  2  0  0  0  0
   -0.7145   -1.2375    0.0000 O   0  0  0  0  0  0  0  2  0  0  0  0
  1  2  2  0        0
  2  3  2  0        0
  2  4  1  0        0
  4  5  1  0        0
  4  6  1  0        0
  6  7  1  0        0
  4  8  1  0        0
  8  9  1  0        0
M  END
$$$$

CDXL12

  9  8  0  0  0  0  0  0  0  0999 V2000
   -0.7145    1.0313    0.0000 C   0  0  0  0  0  0  0  2  0  0  0  0
   -0.7145    0.2062    0.0000 C   0  0  0  0  0  0  0  2  0  0  0  0
   -1.4289   -0.2062    0.0000 C   0  0  0  0  0  0  0  2  0  0  0  0
   -1.4289    0.6188    0.0000 S   0  0  0  0  0  0  0  2  0  0  0  0
    0.0000   -0.2062    0.0000 C   0  0  0  0  0  0  0  2  0  0  0  0
    0.0000   -1.0313    0.0000 N   0  0  0  0  0  0  0  2  0  0  0  0
    0.7145    0.2062    0.0000 C   0  0  0  0  0  0  0  2  0  0  0  0
    1.4289   -0.2062    0.0000 O   0  0  0  0  0  0  0  2  0  0  0  0
    0.7145    1.0313    0.0000 O   0  0  0  0  0  0  0  2  0  0  0  0
  1  2  1  0        0
  2  3  1  0        0
  2  4  1  0        0
  2  5  1  0        0
  5  6  1  0        0
  5  7  1  0        0
  7  8  1  0        0
  7  9  2  0        0
M  END
$$$$

CDXL12

 12 11  0  0  0  0  0  0  0  0999 V2000
    1.7862    0.2062    0.0000 C   0  0  0  0  0  0  0  2  0  0  0  0
    1.0717   -0.2062    0.0000 O   0  0  0  0  0  0  0  2  0  0  0  0
    0.3572    0.2062    0.0000 P   0  0  0  0  0  0  0  2  0  0  0  0
    0.3572    1.0313    0.0000 O   0  0  0  0  0  0  0  2  0  0  0  0
    0.3572   -0.6188    0.0000 O   0  0  0  0  0  0  0  2  0  0  0  0
    1.0717   -1.0313    0.0000 C   0  0  0  0  0  0  0  2  0  0  0  0
   -0.3572   -0.2062    0.0000 C   0  0  0  0  0  0  0  2  0  0  0  0
   -0.3572   -1.0313    0.0000 O   0  0  0  0  0  0  0  2  0  0  0  0
   -1.0717    0.2062    0.0000 C   0  0  0  0  0  0  0  2  0  0  0  0
   -1.7862   -0.2062    0.0000 Cl  0  0  0  0  0  0  0  2  0  0  0  0
   -1.0717    1.0313    0.0000 Cl  0  0  0  0  0  0  0  2  0  0  0  0
   -1.7862    0.6187    0.0000 Cl  0  0  0  0  0  0  0  2  0  0  0  0
  1  2  1  0        0
  2  3  1  0        0
  3  4  2  0        0
  3  5  1  0        0
  5  6  1  0        0
  3  7  1  0        0
  7  8  1  0        0
  7  9  1  0        0
  9 10  1  0        0
  9 11  1  0        0
  9 12  1  0        0
M  END
$$$$

CDXL12

 26 29  0  0  0  0  0  0  0  0999 V2000
   -1.3829    0.0180    0.0000 C   0  0  0  0  0  0  0  2  0  0  0  0
   -1.3829   -0.8070    0.0000 C   0  0  0  0  0  0  0  2  0  0  0  0
   -2.0973   -0.3945    0.0000 C   0  0  0  0  0  0  0  2  0  0  0  0
   -2.8118   -0.8070    0.0000 C   0  0  0  0  0  0  0  2  0  0  0  0
   -2.8118   -1.6320    0.0000 C   0  0  0  0  0  0  0  2  0  0  0  0
   -3.5263   -2.0445    0.0000 O   0  0  0  0  0  0  0  2  0  0  0  0
   -2.0973   -2.0445    0.0000 C   0  0  0  0  0  0  0  2  0  0  0  0
   -1.3829   -1.6320    0.0000 C   0  0  0  0  0  0  0  2  0  0  0  0
   -0.6684   -2.0445    0.0000 C   0  0  0  0  0  0  0  2  0  0  0  0
    0.0461   -1.6320    0.0000 C   0  0  0  0  0  0  0  2  0  0  0  0
    0.0461   -0.8070    0.0000 C   0  0  0  0  0  0  0  2  0  0  0  0
    0.7606   -0.3945    0.0000 C   0  0  0  0  0  0  0  2  0  0  0  0
    1.5452   -0.6494    0.0000 C   0  0  0  0  0  0  0  2  0  0  0  0
    2.0301    0.0180    0.0000 C   0  0  0  0  0  0  0  2  0  0  0  0
    1.5452    0.6855    0.0000 C   0  0  0  0  0  0  0  2  0  0  0  0
    1.3737    1.4924    0.0000 O   0  0  0  0  0  0  0  2  0  0  0  0
    2.1583    1.2375    0.0000 C   0  0  0  0  0  0  0  2  0  0  0  0
    1.9868    2.0445    0.0000 O   0  0  0  0  0  0  0  2  0  0  0  0
    2.9429    0.9826    0.0000 C   0  0  0  0  0  0  0  2  0  0  0  0
    3.5263    1.5659    0.0000 O   0  0  0  0  0  0  0  2  0  0  0  0
    0.7606    0.4305    0.0000 C   0  0  0  0  0  0  0  2  0  0  0  0
    0.8468    1.2510    0.0000 C   0  0  0  0  0  0  0  2  0  0  0  0
    0.0461    0.8430    0.0000 C   0  0  0  0  0  0  0  2  0  0  0  0
   -0.6684    0.4305    0.0000 C   0  0  0  0  0  0  0  2  0  0  0  0
   -1.3829    0.8430    0.0000 O   0  0  0  0  0  0  0  2  0  0  0  0
   -0.6684   -0.3945    0.0000 C   0  0  0  0  0  0  0  2  0  0  0  0
  1  2  1  0        0
  2  3  1  0        0
  3  4  1  0        0
  4  5  1  0        0
  5  6  2  0        0
  5  7  1  0        0
  7  8  2  0        0
  2  8  1  0        0
  8  9  1  0        0
  9 10  1  0        0
 10 11  1  0        0
 11 12  1  0        0
 12 13  1  0        0
 13 14  1  0        0
 14 15  1  0        0
 15 16  1  0        0
 15 17  1  0        0
 17 18  2  0        0
 17 19  1  0        0
 19 20  1  0        0
 15 21  1  0        0
 12 21  1  0        0
 21 22  1  0        0
 21 23  1  0        0
 23 24  1  0        0
 24 25  2  0        0
 24 26  1  0        0
  2 26  1  0        0
 11 26  1  0        0
M  END
$$$$

CDXL12

 20 23  0  0  0  0  0  0  0  0999 V2000
    2.5482    1.7573    0.0000 O   0  0  0  0  0  0  0  2  0  0  0  0
    2.2933    0.9727    0.0000 C   0  0  0  0  0  0  0  2  0  0  0  0
    1.5086    0.7177    0.0000 C   0  0  0  0  0  0  0  2  0  0  0  0
    1.5086   -0.1073    0.0000 C   0  0  0  0  0  0  0  2  0  0  0  0
    0.7942   -0.5198    0.0000 C   0  0  0  0  0  0  0  2  0  0  0  0
    0.0797   -0.1073    0.0000 C   0  0  0  0  0  0  0  2  0  0  0  0
   -0.6348   -0.5198    0.0000 C   0  0  0  0  0  0  0  2  0  0  0  0
   -0.6348   -1.3448    0.0000 C   0  0  0  0  0  0  0  2  0  0  0  0
   -1.3492   -1.7573    0.0000 C   0  0  0  0  0  0  0  2  0  0  0  0
   -2.0637   -1.3448    0.0000 C   0  0  0  0  0  0  0  2  0  0  0  0
   -2.7782   -1.7573    0.0000 O   0  0  0  0  0  0  0  2  0  0  0  0
   -2.0637   -0.5198    0.0000 C   0  0  0  0  0  0  0  2  0  0  0  0
   -1.3492   -0.1073    0.0000 C   0  0  0  0  0  0  0  2  0  0  0  0
    0.0797   -1.7573    0.0000 C   0  0  0  0  0  0  0  2  0  0  0  0
    0.7942   -1.3448    0.0000 C   0  0  0  0  0  0  0  2  0  0  0  0
    0.0797    0.7177    0.0000 C   0  0  0  0  0  0  0  2  0  0  0  0
    0.7942    1.1302    0.0000 C   0  0  0  0  0  0  0  2  0  0  0  0
    2.2933   -0.3622    0.0000 C   0  0  0  0  0  0  0  2  0  0  0  0
    2.7782    0.3052    0.0000 C   0  0  0  0  0  0  0  2  0  0  0  0
    1.5949    1.5382    0.0000 C   0  0  0  0  0  0  0  2  0  0  0  0
  1  2  2  0        0
  2  3  1  0        0
  3  4  1  0        0
  4  5  1  0        0
  5  6  1  0        0
  6  7  1  0        0
  7  8  4  0        0
  8  9  4  0        0
  9 10  4  0        0
 10 11  1  0        0
 10 12  4  0        0
 12 13  4  0        0
  7 13  4  0        0
  8 14  1  0        0
 14 15  1  0        0
  5 15  1  0        0
  6 16  1  0        0
 16 17  1  0        0
  3 17  1  0        0
  4 18  1  0        0
 18 19  1  0        0
  2 19  1  0        0
  3 20  1  0        0
M  END
$$$$

CDXL12

 18 19  0  0  0  0  0  0  0  0999 V2000
    1.0717    2.0625    0.0000 Cl  0  0  0  0  0  0  0  2  0  0  0  0
    1.0717    1.2375    0.0000 C   0  0  0  0  0  0  0  2  0  0  0  0
    1.7862    0.8250    0.0000 Cl  0  0  0  0  0  0  0  2  0  0  0  0
    0.3572    0.8250    0.0000 C   0  0  0  0  0  0  0  2  0  0  0  0
    0.3572    0.0000    0.0000 C   0  0  0  0  0  0  0  2  0  0  0  0
    1.0717   -0.4125    0.0000 C   0  0  0  0  0  0  0  2  0  0  0  0
    1.0717   -1.2375    0.0000 C   0  0  0  0  0  0  0  2  0  0  0  0
    0.3572   -1.6500    0.0000 C   0  0  0  0  0  0  0  2  0  0  0  0
    0.3572   -2.4750    0.0000 Cl  0  0  0  0  0  0  0  2  0  0  0  0
   -0.3572   -1.2375    0.0000 C   0  0  0  0  0  0  0  2  0  0  0  0
   -0.3572   -0.4125    0.0000 C   0  0  0  0  0  0  0  2  0  0  0  0
   -0.3572    1.2375    0.0000 C   0  0  0  0  0  0  0  2  0  0  0  0
   -1.0717    0.8250    0.0000 C   0  0  0  0  0  0  0  2  0  0  0  0
   -1.7862    1.2375    0.0000 C   0  0  0  0  0  0  0  2  0  0  0  0
   -1.7862    2.0625    0.0000 C   0  0  0  0  0  0  0  2  0  0  0  0
   -1.0717    2.4750    0.0000 C   0  0  0  0  0  0  0  2  0  0  0  0
   -0.3572    2.0625    0.0000 C   0  0  0  0  0  0  0  2  0  0  0  0
    0.3572    2.4750    0.0000 Cl  0  0  0  0  0  0  0  2  0  0  0  0
  1  2  1  0        0
  2  3  1  0        0
  2  4  1  0        0
  4  5  1  0        0
  5  6  4  0        0
  6  7  4  0        0
  7  8  4  0        0
  8  9  1  0        0
  8 10  4  0        0
 10 11  4  0        0
  5 11  4  0        0
  4 12  1  0        0
 12 13  4  0        0
 13 14  4  0        0
 14 15  4  0        0
 15 16  4  0        0
 16 17  4  0        0
 12 17  4  0        0
 17 18  1  0        0
M  END
$$$$

CDXL12

 21 24  0  0  0  0  0  0  0  0999 V2000
   -2.0637   -0.5198    0.0000 C   0  0  0  0  0  0  0  2  0  0  0  0
   -2.0637   -1.3448    0.0000 C   0  0  0  0  0  0  0  2  0  0  0  0
   -2.7782   -1.7573    0.0000 O   0  0  0  0  0  0  0  2  0  0  0  0
   -1.3492   -1.7573    0.0000 C   0  0  0  0  0  0  0  2  0  0  0  0
   -0.6348   -1.3448    0.0000 C   0  0  0  0  0  0  0  2  0  0  0  0
    0.0797   -1.7573    0.0000 C   0  0  0  0  0  0  0  2  0  0  0  0
    0.7942   -1.3448    0.0000 C   0  0  0  0  0  0  0  2  0  0  0  0
    0.7942   -0.5198    0.0000 C   0  0  0  0  0  0  0  2  0  0  0  0
    1.5086   -0.1073    0.0000 C   0  0  0  0  0  0  0  2  0  0  0  0
    2.2933   -0.3622    0.0000 C   0  0  0  0  0  0  0  2  0  0  0  0
    2.7782    0.3052    0.0000 C   0  0  0  0  0  0  0  2  0  0  0  0
    2.2933    0.9727    0.0000 C   0  0  0  0  0  0  0  2  0  0  0  0
    2.5482    1.7573    0.0000 O   0  0  0  0  0  0  0  2  0  0  0  0
    1.5086    0.7177    0.0000 C   0  0  0  0  0  0  0  2  0  0  0  0
    1.5949    1.5382    0.0000 C   0  0  0  0  0  0  0  2  0  0  0  0
    0.7942    1.1302    0.0000 C   0  0  0  0  0  0  0  2  0  0  0  0
    0.0797    0.7177    0.0000 C   0  0  0  0  0  0  0  2  0  0  0  0
    0.0797   -0.1073    0.0000 C   0  0  0  0  0  0  0  2  0  0  0  0
   -0.6348   -0.5198    0.0000 C   0  0  0  0  0  0  0  2  0  0  0  0
   -0.6348    0.3052    0.0000 C   0  0  0  0  0  0  0  2  0  0  0  0
   -1.3492   -0.1073    0.0000 C   0  0  0  0  0  0  0  2  0  0  0  0
  1  2  1  0        0
  2  3  1  0        0
  2  4  1  0        0
  4  5  1  0        0
  5  6  1  0        0
  6  7  1  0        0
  7  8  1  0        0
  8  9  1  0        0
  9 10  1  0        0
 10 11  1  0        0
 11 12  1  0        0
 12 13  2  0        0
 12 14  1  0        0
  9 14  1  0        0
 14 15  1  0        0
 14 16  1  0        0
 16 17  1  0        0
 17 18  1  0        0
  8 18  1  0        0
 18 19  1  0        0
  5 19  1  0        0
 19 20  1  0        0
 19 21  1  0        0
  1 21  1  0        0
M  END
$$$$

CDXL12

 21 24  0  0  0  0  0  0  0  0999 V2000
   -2.0637   -0.5198    0.0000 C   0  0  0  0  0  0  0  2  0  0  0  0
   -2.0637   -1.3448    0.0000 C   0  0  0  0  0  0  0  2  0  0  0  0
   -2.7782   -1.7573    0.0000 O   0  0  0  0  0  0  0  2  0  0  0  0
   -1.3492   -1.7573    0.0000 C   0  0  0  0  0  0  0  2  0  0  0  0
   -0.6348   -1.3448    0.0000 C   0  0  0  0  0  0  0  2  0  0  0  0
    0.0797   -1.7573    0.0000 C   0  0  0  0  0  0  0  2  0  0  0  0
    0.7942   -1.3448    0.0000 C   0  0  0  0  0  0  0  2  0  0  0  0
    0.7942   -0.5198    0.0000 C   0  0  0  0  0  0  0  2  0  0  0  0
    1.5086   -0.1073    0.0000 C   0  0  0  0  0  0  0  2  0  0  0  0
    2.2933   -0.3622    0.0000 C   0  0  0  0  0  0  0  2  0  0  0  0
    2.7782    0.3052    0.0000 C   0  0  0  0  0  0  0  2  0  0  0  0
    2.2933    0.9727    0.0000 C   0  0  0  0  0  0  0  2  0  0  0  0
    2.5482    1.7573    0.0000 O   0  0  0  0  0  0  0  2  0  0  0  0
    1.5086    0.7177    0.0000 C   0  0  0  0  0  0  0  2  0  0  0  0
    1.5949    1.5382    0.0000 C   0  0  0  0  0  0  0  2  0  0  0  0
    0.7942    1.1302    0.0000 C   0  0  0  0  0  0  0  2  0  0  0  0
    0.0797    0.7177    0.0000 C   0  0  0  0  0  0  0  2  0  0  0  0
    0.0797   -0.1073    0.0000 C   0  0  0  0  0  0  0  2  0  0  0  0
   -0.6348   -0.5198    0.0000 C   0  0  0  0  0  0  0  2  0  0  0  0
   -0.6348    0.3052    0.0000 C   0  0  0  0  0  0  0  2  0  0  0  0
   -1.3492   -0.1073    0.0000 C   0  0  0  0  0  0  0  2  0  0  0  0
  1  2  1  0        0
  2  3  1  0        0
  2  4  1  0        0
  4  5  1  0        0
  5  6  2  0        0
  6  7  1  0        0
  7  8  1  0        0
  8  9  1  0        0
  9 10  1  0        0
 10 11  1  0        0
 11 12  1  0        0
 12 13  2  0        0
 12 14  1  0        0
  9 14  1  0        0
 14 15  1  0        0
 14 16  1  0        0
 16 17  1  0        0
 17 18  1  0        0
  8 18  1  0        0
 18 19  1  0        0
  5 19  1  0        0
 19 20  1  0        0
 19 21  1  0        0
  1 21  1  0        0
M  END
$$$$

CDXL12

 25 27  0  0  0  0  0  0  0  0999 V2000
   -2.6282   -1.1606    0.0000 C   0  0  0  0  0  0  0  2  0  0  0  0
   -1.9138   -1.5731    0.0000 O   0  0  0  0  0  0  0  2  0  0  0  0
   -1.1993   -1.1606    0.0000 C   0  0  0  0  0  0  0  2  0  0  0  0
   -1.1993   -0.3356    0.0000 C   0  0  0  0  0  0  0  2  0  0  0  0
   -0.4848    0.0769    0.0000 C   0  0  0  0  0  0  0  2  0  0  0  0
    0.2297   -0.3356    0.0000 C   0  0  0  0  0  0  0  2  0  0  0  0
    1.0143   -0.0807    0.0000 N   0  0  0  0  0  0  0  2  0  0  0  0
    1.2692    0.7039    0.0000 C   0  0  0  0  0  0  0  2  0  0  0  0
    2.0762    0.8755    0.0000 O   0  0  0  0  0  0  0  2  0  0  0  0
    0.7172    1.3170    0.0000 C   0  0  0  0  0  0  0  2  0  0  0  0
   -0.0898    1.1455    0.0000 C   0  0  0  0  0  0  0  2  0  0  0  0
   -0.6418    1.7586    0.0000 C   0  0  0  0  0  0  0  2  0  0  0  0
   -0.3869    2.5432    0.0000 C   0  0  0  0  0  0  0  2  0  0  0  0
   -0.9389    3.1563    0.0000 Cl  0  0  0  0  0  0  0  2  0  0  0  0
    0.4201    2.7148    0.0000 C   0  0  0  0  0  0  0  2  0  0  0  0
    0.9721    2.1017    0.0000 C   0  0  0  0  0  0  0  2  0  0  0  0
    1.4992   -0.7481    0.0000 C   0  0  0  0  0  0  0  2  0  0  0  0
    2.3242   -0.7481    0.0000 C   0  0  0  0  0  0  0  2  0  0  0  0
    1.0143   -1.4156    0.0000 C   0  0  0  0  0  0  0  2  0  0  0  0
    1.2692   -2.2002    0.0000 C   0  0  0  0  0  0  0  2  0  0  0  0
    2.0762   -2.3717    0.0000 C   0  0  0  0  0  0  0  2  0  0  0  0
    2.3311   -3.1563    0.0000 O   0  0  0  0  0  0  0  2  0  0  0  0
    2.6282   -1.7586    0.0000 O   0  0  0  0  0  0  0  2  0  0  0  0
    0.2297   -1.1606    0.0000 C   0  0  0  0  0  0  0  2  0  0  0  0
   -0.4848   -1.5731    0.0000 C   0  0  0  0  0  0  0  2  0  0  0  0
  1  2  1  0        0
  2  3  1  0        0
  3  4  4  0        0
  4  5  4  0        0
  5  6  4  0        0
  6  7  4  0        0
  7  8  1  0        0
  8  9  2  0        0
  8 10  1  0        0
 10 11  4  0        0
 11 12  4  0        0
 12 13  4  0        0
 13 14  1  0        0
 13 15  4  0        0
 15 16  4  0        0
 10 16  4  0        0
  7 17  4  0        0
 17 18  1  0        0
 17 19  4  0        0
 19 20  1  0        0
 20 21  1  0        0
 21 22  2  0        0
 21 23  1  0        0
 19 24  4  0        0
  6 24  4  0        0
 24 25  4  0        0
  3 25  4  0        0
M  END
$$$$

CDXL12

 15 16  0  0  0  0  0  0  0  0999 V2000
    0.8097   -1.9232    0.0000 O   0  0  0  0  0  0  0  2  0  0  0  0
    1.3617   -1.3101    0.0000 C   0  0  0  0  0  0  0  2  0  0  0  0
    2.1687   -1.4816    0.0000 O   0  0  0  0  0  0  0  2  0  0  0  0
    1.1068   -0.5254    0.0000 C   0  0  0  0  0  0  0  2  0  0  0  0
    1.6588    0.0877    0.0000 N   0  0  0  0  0  0  0  2  0  0  0  0
    0.2998   -0.3539    0.0000 C   0  0  0  0  0  0  0  2  0  0  0  0
    0.0449    0.4307    0.0000 C   0  0  0  0  0  0  0  2  0  0  0  0
   -0.7398    0.6857    0.0000 C   0  0  0  0  0  0  0  2  0  0  0  0
   -0.7398    1.5107    0.0000 C   0  0  0  0  0  0  0  2  0  0  0  0
    0.0449    1.7656    0.0000 N   0  0  0  0  0  0  0  2  0  0  0  0
    0.5298    1.0982    0.0000 C   0  0  0  0  0  0  0  2  0  0  0  0
   -1.4542    1.9232    0.0000 C   0  0  0  0  0  0  0  2  0  0  0  0
   -2.1687    1.5107    0.0000 C   0  0  0  0  0  0  0  2  0  0  0  0
   -2.1687    0.6857    0.0000 C   0  0  0  0  0  0  0  2  0  0  0  0
   -1.4542    0.2732    0.0000 C   0  0  0  0  0  0  0  2  0  0  0  0
  1  2  2  0        0
  2  3  1  0        0
  2  4  1  0        0
  4  5  1  0        0
  4  6  1  0        0
  6  7  1  0        0
  7  8  4  0        0
  8  9  4  0        0
  9 10  4  0        0
 10 11  4  0        0
  7 11  4  0        0
  9 12  4  0        0
 12 13  4  0        0
 13 14  4  0        0
 14 15  4  0        0
  8 15  4  0        0
M  END
$$$$

CDXL12

 11 11  0  0  0  0  0  0  0  0999 V2000
    0.3572   -1.2375    0.0000 O   0  0  0  0  0  0  0  2  0  0  0  0
   -0.3572   -0.8250    0.0000 C   0  0  0  0  0  0  0  2  0  0  0  0
   -1.0717   -1.2375    0.0000 C   0  0  0  0  0  0  0  2  0  0  0  0
   -1.7862   -0.8250    0.0000 C   0  0  0  0  0  0  0  2  0  0  0  0
   -1.7862   -0.0000    0.0000 C   0  0  0  0  0  0  0  2  0  0  0  0
   -1.0717    0.4125    0.0000 C   0  0  0  0  0  0  0  2  0  0  0  0
   -0.3572    0.0000    0.0000 C   0  0  0  0  0  0  0  2  0  0  0  0
    0.3572    0.4125    0.0000 C   0  0  0  0  0  0  0  2  0  0  0  0
    0.3572    1.2375    0.0000 O   0  0  0  0  0  0  0  2  0  0  0  0
    1.0717    0.0000    0.0000 O   0  0  0  0  0  0  0  2  0  0  0  0
    1.7862    0.4125    0.0000 Na  0  0  0  0  0  0  0  2  0  0  0  0
  1  2  1  0        0
  2  3  4  0        0
  3  4  4  0        0
  4  5  4  0        0
  5  6  4  0        0
  6  7  4  0        0
  2  7  4  0        0
  7  8  1  0        0
  8  9  2  0        0
  8 10  1  0        0
 10 11  1  0        0
M  END
$$$$

CDXL12

 21 22  0  0  0  0  0  0  0  0999 V2000
   -3.1535    1.3210    0.0000 N   0  0  0  0  0  0  0  2  0  0  0  0
   -2.4390    0.9085    0.0000 S   0  0  0  0  0  0  0  2  0  0  0  0
   -2.0265    1.6230    0.0000 O   0  0  0  0  0  0  0  2  0  0  0  0
   -2.8515    0.1940    0.0000 O   0  0  0  0  0  0  0  2  0  0  0  0
   -1.7246    0.4960    0.0000 C   0  0  0  0  0  0  0  2  0  0  0  0
   -1.0101    0.9085    0.0000 C   0  0  0  0  0  0  0  2  0  0  0  0
   -0.2956    0.4960    0.0000 C   0  0  0  0  0  0  0  2  0  0  0  0
    0.4189    0.9085    0.0000 C   0  0  0  0  0  0  0  2  0  0  0  0
    1.1333    0.4960    0.0000 O   0  0  0  0  0  0  0  2  0  0  0  0
    0.4189    1.7335    0.0000 O   0  0  0  0  0  0  0  2  0  0  0  0
   -0.2956   -0.3290    0.0000 C   0  0  0  0  0  0  0  2  0  0  0  0
    0.4189   -0.7415    0.0000 N   0  0  0  0  0  0  0  2  0  0  0  0
    1.1333   -0.3290    0.0000 C   0  0  0  0  0  0  0  2  0  0  0  0
    1.8478   -0.7415    0.0000 C   0  0  0  0  0  0  0  2  0  0  0  0
    2.6015   -0.4059    0.0000 C   0  0  0  0  0  0  0  2  0  0  0  0
    3.1535   -1.0190    0.0000 C   0  0  0  0  0  0  0  2  0  0  0  0
    2.7410   -1.7335    0.0000 C   0  0  0  0  0  0  0  2  0  0  0  0
    1.9340   -1.5620    0.0000 O   0  0  0  0  0  0  0  2  0  0  0  0
   -1.0101   -0.7415    0.0000 C   0  0  0  0  0  0  0  2  0  0  0  0
   -1.7246   -0.3290    0.0000 C   0  0  0  0  0  0  0  2  0  0  0  0
   -2.4390   -0.7415    0.0000 Cl  0  0  0  0  0  0  0  2  0  0  0  0
  1  2  1  0        0
  2  3  2  0        0
  2  4  2  0        0
  2  5  1  0        0
  5  6  4  0        0
  6  7  4  0        0
  7  8  1  0        0
  8  9  1  0        0
  8 10  2  0        0
  7 11  4  0        0
 11 12  1  0        0
 12 13  1  0        0
 13 14  1  0        0
 14 15  4  0        0
 15 16  4  0        0
 16 17  4  0        0
 17 18  4  0        0
 14 18  4  0        0
 11 19  4  0        0
 19 20  4  0        0
  5 20  4  0        0
 20 21  1  0        0
M  END
$$$$

CDXL12

  7  6  0  0  0  0  0  0  0  0999 V2000
    1.4289   -0.4125    0.0000 O   0  0  0  0  0  0  0  2  0  0  0  0
    0.7145   -0.8250    0.0000 N   0  0  0  0  0  0  0  2  0  0  0  0
    0.0000   -0.4125    0.0000 N   0  0  0  0  0  0  0  2  0  0  0  0
   -0.7145   -0.8250    0.0000 C   0  0  0  0  0  0  0  2  0  0  0  0
   -1.4289   -0.4125    0.0000 C   0  0  0  0  0  0  0  2  0  0  0  0
    0.0000    0.4125    0.0000 C   0  0  0  0  0  0  0  2  0  0  0  0
   -0.7145    0.8250    0.0000 C   0  0  0  0  0  0  0  2  0  0  0  0
  1  2  2  0        0
  2  3  1  0        0
  3  4  1  0        0
  4  5  1  0        0
  3  6  1  0        0
  6  7  1  0        0
M  END
$$$$

CDXL12

  9  9  0  0  0  0  0  0  0  0999 V2000
    0.7145    1.2375    0.0000 O   0  0  0  0  0  0  0  2  0  0  0  0
    0.7145    0.4125    0.0000 C   0  0  0  0  0  0  0  2  0  0  0  0
    1.4289   -0.0000    0.0000 N   0  0  0  0  0  0  0  2  0  0  0  0
    0.0000   -0.0000    0.0000 C   0  0  0  0  0  0  0  2  0  0  0  0
   -0.7145    0.4125    0.0000 C   0  0  0  0  0  0  0  2  0  0  0  0
   -1.4289   -0.0000    0.0000 C   0  0  0  0  0  0  0  2  0  0  0  0
   -1.4289   -0.8250    0.0000 C   0  0  0  0  0  0  0  2  0  0  0  0
   -0.7145   -1.2375    0.0000 C   0  0  0  0  0  0  0  2  0  0  0  0
    0.0000   -0.8250    0.0000 C   0  0  0  0  0  0  0  2  0  0  0  0
  1  2  2  0        0
  2  3  1  0        0
  2  4  1  0        0
  4  5  4  0        0
  5  6  4  0        0
  6  7  4  0        0
  7  8  4  0        0
  8  9  4  0        0
  4  9  4  0        0
M  END
$$$$

CDXL12

  9  9  0  0  0  0  0  0  0  0999 V2000
    0.7145    1.2375    0.0000 O   0  0  0  0  0  0  0  2  0  0  0  0
    0.7145    0.4125    0.0000 C   0  0  0  0  0  0  0  2  0  0  0  0
    1.4289   -0.0000    0.0000 O   0  0  0  0  0  0  0  2  0  0  0  0
    0.0000   -0.0000    0.0000 C   0  0  0  0  0  0  0  2  0  0  0  0
   -0.7145    0.4125    0.0000 C   0  0  0  0  0  0  0  2  0  0  0  0
   -1.4289   -0.0000    0.0000 C   0  0  0  0  0  0  0  2  0  0  0  0
   -1.4289   -0.8250    0.0000 N   0  0  0  0  0  0  0  2  0  0  0  0
   -0.7145   -1.2375    0.0000 C   0  0  0  0  0  0  0  2  0  0  0  0
    0.0000   -0.8250    0.0000 C   0  0  0  0  0  0  0  2  0  0  0  0
  1  2  2  0        0
  2  3  1  0        0
  2  4  1  0        0
  4  5  4  0        0
  5  6  4  0        0
  6  7  4  0        0
  7  8  4  0        0
  8  9  4  0        0
  4  9  4  0        0
M  END
$$$$

CDXL12

 34 35  0  0  0  0  0  0  0  0999 V2000
   -3.2151   -1.0312    0.0000 N   0  0  0  0  0  0  0  2  0  0  0  0
   -3.2151   -0.2062    0.0000 C   0  0  0  0  0  0  0  2  0  0  0  0
   -2.5006    0.2062    0.0000 N   0  0  0  0  0  0  0  2  0  0  0  0
   -1.7862   -0.2062    0.0000 C   0  0  0  0  0  0  0  2  0  0  0  0
   -1.0717    0.2062    0.0000 C   0  0  0  0  0  0  0  2  0  0  0  0
   -0.3572   -0.2062    0.0000 C   0  0  0  0  0  0  0  2  0  0  0  0
    0.3572    0.2062    0.0000 C   0  0  0  0  0  0  0  2  0  0  0  0
    1.0717   -0.2062    0.0000 C   0  0  0  0  0  0  0  2  0  0  0  0
    1.7862    0.2062    0.0000 C   0  0  0  0  0  0  0  2  0  0  0  0
    2.5006   -0.2062    0.0000 N   0  0  0  0  0  0  0  2  0  0  0  0
    3.2151    0.2062    0.0000 C   0  0  0  0  0  0  0  2  0  0  0  0
    3.2151    1.0312    0.0000 N   0  0  0  0  0  0  0  2  0  0  0  0
    3.9296   -0.2062    0.0000 N   0  0  0  0  0  0  0  2  0  0  0  0
    4.6441    0.2062    0.0000 C   0  0  0  0  0  0  0  2  0  0  0  0
    4.6441    1.0312    0.0000 N   0  0  0  0  0  0  0  2  0  0  0  0
    5.3585   -0.2062    0.0000 N   0  0  0  0  0  0  0  2  0  0  0  0
    6.0730    0.2062    0.0000 C   0  0  0  0  0  0  0  2  0  0  0  0
    6.0730    1.0312    0.0000 C   0  0  0  0  0  0  0  2  0  0  0  0
    6.7875    1.4437    0.0000 C   0  0  0  0  0  0  0  2  0  0  0  0
    7.5019    1.0312    0.0000 C   0  0  0  0  0  0  0  2  0  0  0  0
    7.5019    0.2062    0.0000 C   0  0  0  0  0  0  0  2  0  0  0  0
    6.7875   -0.2062    0.0000 C   0  0  0  0  0  0  0  2  0  0  0  0
    8.2164    1.4437    0.0000 Cl  0  0  0  0  0  0  0  2  0  0  0  0
   -3.9296    0.2063    0.0000 N   0  0  0  0  0  0  0  2  0  0  0  0
   -4.6441   -0.2062    0.0000 C   0  0  0  0  0  0  0  2  0  0  0  0
   -4.6441   -1.0312    0.0000 N   0  0  0  0  0  0  0  2  0  0  0  0
   -5.3585    0.2062    0.0000 N   0  0  0  0  0  0  0  2  0  0  0  0
   -6.0730   -0.2062    0.0000 C   0  0  0  0  0  0  0  2  0  0  0  0
   -6.0730   -1.0312    0.0000 C   0  0  0  0  0  0  0  2  0  0  0  0
   -6.7875   -1.4437    0.0000 C   0  0  0  0  0  0  0  2  0  0  0  0
   -7.5019   -1.0312    0.0000 C   0  0  0  0  0  0  0  2  0  0  0  0
   -7.5019   -0.2062    0.0000 C   0  0  0  0  0  0  0  2  0  0  0  0
   -6.7875    0.2062    0.0000 C   0  0  0  0  0  0  0  2  0  0  0  0
   -8.2164   -1.4437    0.0000 Cl  0  0  0  0  0  0  0  2  0  0  0  0
  1  2  2  0        0
  2  3  1  0        0
  3  4  1  0        0
  4  5  1  0        0
  5  6  1  0        0
  6  7  1  0        0
  7  8  1  0        0
  8  9  1  0        0
  9 10  1  0        0
 10 11  1  0        0
 11 12  2  0        0
 11 13  1  0        0
 13 14  1  0        0
 14 15  2  0        0
 14 16  1  0        0
 16 17  1  0        0
 17 18  4  0        0
 18 19  4  0        0
 19 20  4  0        0
 20 21  4  0        0
 21 22  4  0        0
 17 22  4  0        0
 20 23  1  0        0
  2 24  1  0        0
 24 25  1  0        0
 25 26  2  0        0
 25 27  1  0        0
 27 28  1  0        0
 28 29  4  0        0
 29 30  4  0        0
 30 31  4  0        0
 31 32  4  0        0
 32 33  4  0        0
 28 33  4  0        0
 31 34  1  0        0
M  END
$$$$

CDXL12

 15 14  0  0  0  0  0  0  0  0999 V2000
   -2.1434   -1.6500    0.0000 O   0  0  0  0  0  0  0  2  0  0  0  0
   -2.1434   -0.8250    0.0000 N   0  0  0  0  0  0  0  2  0  0  0  0
   -2.8579   -0.4125    0.0000 O   0  0  0  0  0  0  0  2  0  0  0  0
   -1.4289   -0.4125    0.0000 O   0  0  0  0  0  0  0  2  0  0  0  0
   -0.7145   -0.8250    0.0000 C   0  0  0  0  0  0  0  2  0  0  0  0
    0.0000   -0.4125    0.0000 C   0  0  0  0  0  0  0  2  0  0  0  0
    0.0000    0.4125    0.0000 O   0  0  0  0  0  0  0  2  0  0  0  0
   -0.7145    0.8250    0.0000 N   0  0  0  0  0  0  0  2  0  0  0  0
   -0.7145    1.6500    0.0000 O   0  0  0  0  0  0  0  2  0  0  0  0
   -1.4289    0.4125    0.0000 O   0  0  0  0  0  0  0  2  0  0  0  0
    0.7145   -0.8250    0.0000 C   0  0  0  0  0  0  0  2  0  0  0  0
    1.4289   -0.4125    0.0000 O   0  0  0  0  0  0  0  2  0  0  0  0
    2.1434   -0.8250    0.0000 N   0  0  0  0  0  0  0  2  0  0  0  0
    2.8579   -0.4125    0.0000 O   0  0  0  0  0  0  0  2  0  0  0  0
    2.1434   -1.6500    0.0000 O   0  0  0  0  0  0  0  2  0  0  0  0
  1  2  2  0        0
  2  3  2  0        0
  2  4  1  0        0
  4  5  1  0        0
  5  6  1  0        0
  6  7  1  0        0
  7  8  1  0        0
  8  9  2  0        0
  8 10  2  0        0
  6 11  1  0        0
 11 12  1  0        0
 12 13  1  0        0
 13 14  2  0        0
 13 15  2  0        0
M  END
$$$$

CDXL12

 18 19  0  0  0  0  0  0  0  0999 V2000
   -0.0000    0.6187    0.0000 N   0  0  0  0  0  0  0  2  0  0  0  0
    0.7145    0.2062    0.0000 N   0  0  0  0  0  0  0  2  0  0  0  0
    1.4289    0.6187    0.0000 C   0  0  0  0  0  0  0  2  0  0  0  0
    1.4289    1.4437    0.0000 C   0  0  0  0  0  0  0  2  0  0  0  0
    2.1434    1.8562    0.0000 C   0  0  0  0  0  0  0  2  0  0  0  0
    2.8579    1.4437    0.0000 C   0  0  0  0  0  0  0  2  0  0  0  0
    2.8579    0.6187    0.0000 C   0  0  0  0  0  0  0  2  0  0  0  0
    3.5724    0.2062    0.0000 C   0  0  0  0  0  0  0  2  0  0  0  0
    2.1434    0.2062    0.0000 C   0  0  0  0  0  0  0  2  0  0  0  0
   -0.7145    0.2062    0.0000 C   0  0  0  0  0  0  0  2  0  0  0  0
   -0.7145   -0.6188    0.0000 C   0  0  0  0  0  0  0  2  0  0  0  0
   -1.4289   -1.0312    0.0000 C   0  0  0  0  0  0  0  2  0  0  0  0
   -2.1434   -0.6188    0.0000 C   0  0  0  0  0  0  0  2  0  0  0  0
   -2.8579   -1.0312    0.0000 N   0  0  0  0  0  0  0  2  0  0  0  0
   -2.8579   -1.8562    0.0000 C   0  0  0  0  0  0  0  2  0  0  0  0
   -3.5724   -0.6188    0.0000 C   0  0  0  0  0  0  0  2  0  0  0  0
   -2.1434    0.2062    0.0000 C   0  0  0  0  0  0  0  2  0  0  0  0
   -1.4289    0.6187    0.0000 C   0  0  0  0  0  0  0  2  0  0  0  0
  1  2  2  0        0
  2  3  1  0        0
  3  4  4  0        0
  4  5  4  0        0
  5  6  4  0        0
  6  7  4  0        0
  7  8  1  0        0
  7  9  4  0        0
  3  9  4  0        0
  1 10  1  0        0
 10 11  4  0        0
 11 12  4  0        0
 12 13  4  0        0
 13 14  1  0        0
 14 15  1  0        0
 14 16  1  0        0
 13 17  4  0        0
 17 18  4  0        0
 10 18  4  0        0
M  END
$$$$

CDXL12

 11 10  0  0  0  0  0  0  0  0999 V2000
    0.0000    0.8250    0.0000 O   0  0  0  0  0  0  0  2  0  0  0  0
    0.0000   -0.0000    0.0000 P   0  0  0  0  0  0  0  2  0  0  0  0
    0.0000   -0.8250    0.0000 F   0  0  0  0  0  0  0  2  0  0  0  0
    0.7145   -0.4125    0.0000 O   0  0  0  0  0  0  0  2  0  0  0  0
    1.4289    0.0000    0.0000 C   0  0  0  0  0  0  0  2  0  0  0  0
    1.4289    0.8250    0.0000 C   0  0  0  0  0  0  0  2  0  0  0  0
    2.1434   -0.4125    0.0000 C   0  0  0  0  0  0  0  2  0  0  0  0
   -0.7145   -0.4125    0.0000 O   0  0  0  0  0  0  0  2  0  0  0  0
   -1.4289   -0.0000    0.0000 C   0  0  0  0  0  0  0  2  0  0  0  0
   -2.1434   -0.4125    0.0000 C   0  0  0  0  0  0  0  2  0  0  0  0
   -1.4289    0.8250    0.0000 C   0  0  0  0  0  0  0  2  0  0  0  0
  1  2  2  0        0
  2  3  1  0        0
  2  4  1  0        0
  4  5  1  0        0
  5  6  1  0        0
  5  7  1  0        0
  2  8  1  0        0
  8  9  1  0        0
  9 10  1  0        0
  9 11  1  0        0
M  END
$$$$

CDXL12

  9  9  0  0  0  0  0  0  0  0999 V2000
    0.7145   -0.0000    0.0000 N   0  0  0  0  0  0  0  2  0  0  0  0
    0.0000   -0.4125    0.0000 C   0  0  0  0  0  0  0  2  0  0  0  0
    0.0000   -1.2375    0.0000 O   0  0  0  0  0  0  0  2  0  0  0  0
   -0.7145   -0.0000    0.0000 C   0  0  0  0  0  0  0  2  0  0  0  0
   -0.7145    0.8250    0.0000 C   0  0  0  0  0  0  0  2  0  0  0  0
    0.0000    1.2375    0.0000 N   0  0  0  0  0  0  0  2  0  0  0  0
    0.7145    0.8250    0.0000 C   0  0  0  0  0  0  0  2  0  0  0  0
    1.4289    1.2375    0.0000 S   0  0  0  0  0  0  0  2  0  0  0  0
   -1.4289    1.2375    0.0000 C   0  0  0  0  0  0  0  2  0  0  0  0
  1  2  4  0        0
  2  3  1  0        0
  2  4  4  0        0
  4  5  4  0        0
  5  6  4  0        0
  6  7  4  0        0
  1  7  4  0        0
  7  8  1  0        0
  5  9  1  0        0
M  END
$$$$

CDXL12

  5  4  0  0  0  0  0  0  0  0999 V2000
    0.0000   -0.0000    0.0000 C   0  0  0  0  0  0  0  2  0  0  0  0
   -0.8250   -0.0000    0.0000 Cl  0  0  0  0  0  0  0  2  0  0  0  0
    0.0000   -0.8250    0.0000 Cl  0  0  0  0  0  0  0  2  0  0  0  0
    0.8250   -0.0000    0.0000 Cl  0  0  0  0  0  0  0  2  0  0  0  0
    0.0000    0.8250    0.0000 Cl  0  0  0  0  0  0  0  2  0  0  0  0
  1  2  1  0        0
  1  3  1  0        0
  1  4  1  0        0
  1  5  1  0        0
M  END
$$$$

CDXL12

 17 18  0  0  0  0  0  0  0  0999 V2000
   -2.1434    0.2062    0.0000 C   0  0  0  0  0  0  0  2  0  0  0  0
   -1.4289   -0.2062    0.0000 N   0  0  0  0  0  0  0  2  0  0  0  0
   -1.4289   -1.0313    0.0000 C   0  0  0  0  0  0  0  2  0  0  0  0
   -2.1434   -1.4438    0.0000 O   0  0  0  0  0  0  0  2  0  0  0  0
   -0.7145   -1.4437    0.0000 N   0  0  0  0  0  0  0  2  0  0  0  0
    0.0000   -1.0313    0.0000 C   0  0  0  0  0  0  0  2  0  0  0  0
    0.7145   -1.4437    0.0000 O   0  0  0  0  0  0  0  2  0  0  0  0
    0.0000   -0.2062    0.0000 C   0  0  0  0  0  0  0  2  0  0  0  0
    0.0000    0.6188    0.0000 C   0  0  0  0  0  0  0  2  0  0  0  0
    0.7145    0.2062    0.0000 C   0  0  0  0  0  0  0  2  0  0  0  0
    0.7145    1.0313    0.0000 C   0  0  0  0  0  0  0  2  0  0  0  0
    1.4289    1.4438    0.0000 C   0  0  0  0  0  0  0  2  0  0  0  0
    2.1434    1.0313    0.0000 C   0  0  0  0  0  0  0  2  0  0  0  0
    2.1434    0.2062    0.0000 C   0  0  0  0  0  0  0  2  0  0  0  0
    1.4289   -0.2062    0.0000 C   0  0  0  0  0  0  0  2  0  0  0  0
   -0.7145    0.2062    0.0000 C   0  0  0  0  0  0  0  2  0  0  0  0
   -0.7145    1.0313    0.0000 O   0  0  0  0  0  0  0  2  0  0  0  0
  1  2  1  0        0
  2  3  1  0        0
  3  4  2  0        0
  3  5  1  0        0
  5  6  1  0        0
  6  7  2  0        0
  6  8  1  0        0
  8  9  1  0        0
  8 10  1  0        0
 10 11  2  0        0
 11 12  1  0        0
 12 13  1  0        0
 13 14  1  0        0
 14 15  1  0        0
 10 15  1  0        0
  8 16  1  0        0
  2 16  1  0        0
 16 17  2  0        0
M  END
$$$$

CDXL12

 18 18  0  0  0  0  0  0  0  0999 V2000
    2.8579   -0.8250    0.0000 C   0  0  0  0  0  0  0  2  0  0  0  0
    2.1434   -1.2375    0.0000 C   0  0  0  0  0  0  0  2  0  0  0  0
    1.4289   -0.8250    0.0000 O   0  0  0  0  0  0  0  2  0  0  0  0
    0.7145   -1.2375    0.0000 P   0  0  0  0  0  0  0  2  0  0  0  0
    0.7145   -2.0625    0.0000 S   0  0  0  0  0  0  0  2  0  0  0  0
   -0.0000   -0.8250    0.0000 O   0  0  0  0  0  0  0  2  0  0  0  0
   -0.7145   -1.2375    0.0000 C   0  0  0  0  0  0  0  2  0  0  0  0
   -1.4289   -0.8250    0.0000 C   0  0  0  0  0  0  0  2  0  0  0  0
    0.7145   -0.4125    0.0000 O   0  0  0  0  0  0  0  2  0  0  0  0
   -0.0000    0.0000    0.0000 C   0  0  0  0  0  0  0  2  0  0  0  0
   -0.7145   -0.4125    0.0000 C   0  0  0  0  0  0  0  2  0  0  0  0
   -1.4289    0.0000    0.0000 C   0  0  0  0  0  0  0  2  0  0  0  0
   -1.4289    0.8250    0.0000 C   0  0  0  0  0  0  0  2  0  0  0  0
   -0.7145    1.2375    0.0000 C   0  0  0  0  0  0  0  2  0  0  0  0
   -0.0000    0.8250    0.0000 C   0  0  0  0  0  0  0  2  0  0  0  0
   -2.1434    1.2375    0.0000 N   0  0  0  0  0  0  0  2  0  0  0  0
   -2.1434    2.0625    0.0000 O   0  0  0  0  0  0  0  2  0  0  0  0
   -2.8579    0.8250    0.0000 O   0  0  0  0  0  0  0  2  0  0  0  0
  1  2  1  0        0
  2  3  1  0        0
  3  4  1  0        0
  4  5  2  0        0
  4  6  1  0        0
  6  7  1  0        0
  7  8  1  0        0
  4  9  1  0        0
  9 10  1  0        0
 10 11  4  0        0
 11 12  4  0        0
 12 13  4  0        0
 13 14  4  0        0
 14 15  4  0        0
 10 15  4  0        0
 13 16  1  0        0
 16 17  2  0        0
 16 18  2  0        0
M  END
$$$$

CDXL12

  5  4  0  0  0  0  0  0  0  0999 V2000
    0.3572    0.6187    0.0000 O   0  0  0  0  0  0  0  2  0  0  0  0
    0.3572   -0.2062    0.0000 C   0  0  0  0  0  0  0  2  0  0  0  0
    1.0717   -0.6187    0.0000 O   0  0  0  0  0  0  0  2  0  0  0  0
   -0.3572   -0.6187    0.0000 C   0  0  0  0  0  0  0  2  0  0  0  0
   -1.0717   -0.2062    0.0000 N   0  0  0  0  0  0  0  2  0  0  0  0
  1  2  2  0        0
  2  3  1  0        0
  2  4  1  0        0
  4  5  1  0        0
M  END
$$$$

CDXL12

  6  5  0  0  0  0  0  0  0  0999 V2000
    0.3572    1.0313    0.0000 O   0  0  0  0  0  0  0  2  0  0  0  0
    0.3572    0.2062    0.0000 C   0  0  0  0  0  0  0  2  0  0  0  0
    1.0717   -0.2062    0.0000 O   0  0  0  0  0  0  0  2  0  0  0  0
   -0.3572   -0.2062    0.0000 C   0  0  0  0  0  0  0  2  0  0  0  0
   -0.3572   -1.0313    0.0000 N   0  0  0  0  0  0  0  2  0  0  0  0
   -1.0717    0.2062    0.0000 C   0  0  0  0  0  0  0  2  0  0  0  0
  1  2  2  0        0
  2  3  1  0        0
  2  4  1  0        0
  4  5  1  0        0
  4  6  1  0        0
M  END
$$$$

CDXL12

  7  6  0  0  0  0  0  0  0  0999 V2000
    0.7145    1.0313    0.0000 O   0  0  0  0  0  0  0  2  0  0  0  0
    0.7145    0.2062    0.0000 C   0  0  0  0  0  0  0  2  0  0  0  0
    1.4289   -0.2062    0.0000 O   0  0  0  0  0  0  0  2  0  0  0  0
    0.0000   -0.2062    0.0000 C   0  0  0  0  0  0  0  2  0  0  0  0
    0.0000   -1.0313    0.0000 N   0  0  0  0  0  0  0  2  0  0  0  0
   -0.7145    0.2062    0.0000 C   0  0  0  0  0  0  0  2  0  0  0  0
   -1.4289   -0.2062    0.0000 O   0  0  0  0  0  0  0  2  0  0  0  0
  1  2  2  0        0
  2  3  1  0        0
  2  4  1  0        0
  4  5  1  0        0
  4  6  1  0        0
  6  7  1  0        0
M  END
$$$$

CDXL12

 21 25  0  0  0  0  0  0  0  0999 V2000
    0.7145    0.6474    0.0000 C   0  0  0  0  0  0  0  2  0  0  0  0
    0.7145   -0.1776    0.0000 C   0  0  0  0  0  0  0  2  0  0  0  0
    1.4289   -0.5901    0.0000 C   0  0  0  0  0  0  0  2  0  0  0  0
    2.1434   -0.1776    0.0000 C   0  0  0  0  0  0  0  2  0  0  0  0
    2.1434    0.6474    0.0000 C   0  0  0  0  0  0  0  2  0  0  0  0
    2.8579    1.0599    0.0000 C   0  0  0  0  0  0  0  2  0  0  0  0
    1.4289    1.0599    0.0000 C   0  0  0  0  0  0  0  2  0  0  0  0
    1.1270    1.8276    0.0000 C   0  0  0  0  0  0  0  2  0  0  0  0
    0.3020    1.8276    0.0000 C   0  0  0  0  0  0  0  2  0  0  0  0
    0.0000    1.0599    0.0000 C   0  0  0  0  0  0  0  2  0  0  0  0
   -0.7145    0.6474    0.0000 C   0  0  0  0  0  0  0  2  0  0  0  0
   -0.7145   -0.1776    0.0000 C   0  0  0  0  0  0  0  2  0  0  0  0
    0.0000   -0.5901    0.0000 C   0  0  0  0  0  0  0  2  0  0  0  0
   -1.4289   -0.5901    0.0000 C   0  0  0  0  0  0  0  2  0  0  0  0
   -2.1434   -0.1776    0.0000 C   0  0  0  0  0  0  0  2  0  0  0  0
   -2.1434    0.6474    0.0000 C   0  0  0  0  0  0  0  2  0  0  0  0
   -1.4289    1.0599    0.0000 C   0  0  0  0  0  0  0  2  0  0  0  0
   -2.8579   -0.5901    0.0000 C   0  0  0  0  0  0  0  2  0  0  0  0
   -2.8579   -1.4151    0.0000 C   0  0  0  0  0  0  0  2  0  0  0  0
   -2.1434   -1.8276    0.0000 C   0  0  0  0  0  0  0  2  0  0  0  0
   -1.4289   -1.4151    0.0000 C   0  0  0  0  0  0  0  2  0  0  0  0
  1  2  4  0        0
  2  3  4  0        0
  3  4  4  0        0
  4  5  4  0        0
  5  6  1  0        0
  5  7  4  0        0
  1  7  4  0        0
  7  8  1  0        0
  8  9  1  0        0
  9 10  1  0        0
  1 10  4  0        0
 10 11  4  0        0
 11 12  4  0        0
 12 13  4  0        0
  2 13  4  0        0
 12 14  4  0        0
 14 15  4  0        0
 15 16  4  0        0
 16 17  4  0        0
 11 17  4  0        0
 15 18  4  0        0
 18 19  4  0        0
 19 20  4  0        0
 20 21  4  0        0
 14 21  4  0        0
M  END
$$$$

CDXL12

 18 21  0  0  0  0  0  0  0  0999 V2000
    0.3572   -1.0312    0.0000 C   0  0  0  0  0  0  0  2  0  0  0  0
    0.3572   -0.2063    0.0000 C   0  0  0  0  0  0  0  2  0  0  0  0
    1.0717    0.2062    0.0000 C   0  0  0  0  0  0  0  2  0  0  0  0
    1.7862   -0.2063    0.0000 C   0  0  0  0  0  0  0  2  0  0  0  0
    1.7862   -1.0312    0.0000 C   0  0  0  0  0  0  0  2  0  0  0  0
    1.0717   -1.4437    0.0000 C   0  0  0  0  0  0  0  2  0  0  0  0
    2.5006    0.2062    0.0000 C   0  0  0  0  0  0  0  2  0  0  0  0
    2.5006    1.0312    0.0000 C   0  0  0  0  0  0  0  2  0  0  0  0
    1.7862    1.4437    0.0000 C   0  0  0  0  0  0  0  2  0  0  0  0
    1.0717    1.0313    0.0000 C   0  0  0  0  0  0  0  2  0  0  0  0
   -0.3572    0.2063    0.0000 C   0  0  0  0  0  0  0  2  0  0  0  0
   -1.0717   -0.2063    0.0000 C   0  0  0  0  0  0  0  2  0  0  0  0
   -1.0717   -1.0312    0.0000 C   0  0  0  0  0  0  0  2  0  0  0  0
   -1.7862   -1.4437    0.0000 C   0  0  0  0  0  0  0  2  0  0  0  0
   -2.5006   -1.0312    0.0000 C   0  0  0  0  0  0  0  2  0  0  0  0
   -2.5006   -0.2063    0.0000 C   0  0  0  0  0  0  0  2  0  0  0  0
   -1.7862    0.2062    0.0000 C   0  0  0  0  0  0  0  2  0  0  0  0
   -0.3572   -1.4437    0.0000 C   0  0  0  0  0  0  0  2  0  0  0  0
  1  2  4  0        0
  2  3  4  0        0
  3  4  4  0        0
  4  5  4  0        0
  5  6  4  0        0
  1  6  4  0        0
  4  7  4  0        0
  7  8  4  0        0
  8  9  4  0        0
  9 10  4  0        0
  3 10  4  0        0
  2 11  4  0        0
 11 12  4  0        0
 12 13  4  0        0
 13 14  4  0        0
 14 15  4  0        0
 15 16  4  0        0
 16 17  4  0        0
 12 17  4  0        0
 13 18  4  0        0
  1 18  4  0        0
M  END
$$$$

CDXL12

 22 23  0  0  0  0  0  0  0  0999 V2000
   -1.0717    2.0625    0.0000 S   0  0  0  0  0  0  0  2  0  0  0  0
   -1.0717    1.2375    0.0000 P   0  0  0  0  0  0  0  2  0  0  0  0
   -1.7862    0.8250    0.0000 O   0  0  0  0  0  0  0  2  0  0  0  0
   -2.5006    1.2375    0.0000 C   0  0  0  0  0  0  0  2  0  0  0  0
   -3.2151    0.8250    0.0000 C   0  0  0  0  0  0  0  2  0  0  0  0
   -0.3572    0.8250    0.0000 O   0  0  0  0  0  0  0  2  0  0  0  0
    0.3572    1.2375    0.0000 C   0  0  0  0  0  0  0  2  0  0  0  0
    1.0717    0.8250    0.0000 C   0  0  0  0  0  0  0  2  0  0  0  0
   -1.0717    0.4125    0.0000 O   0  0  0  0  0  0  0  2  0  0  0  0
   -0.3572    0.0000    0.0000 C   0  0  0  0  0  0  0  2  0  0  0  0
   -0.3572   -0.8250    0.0000 C   0  0  0  0  0  0  0  2  0  0  0  0
    0.3572   -1.2375    0.0000 C   0  0  0  0  0  0  0  2  0  0  0  0
    1.0717   -0.8250    0.0000 C   0  0  0  0  0  0  0  2  0  0  0  0
    1.7862   -1.2375    0.0000 C   0  0  0  0  0  0  0  2  0  0  0  0
    1.7862   -2.0625    0.0000 C   0  0  0  0  0  0  0  2  0  0  0  0
    2.5006   -0.8250    0.0000 C   0  0  0  0  0  0  0  2  0  0  0  0
    3.2151   -1.2375    0.0000 Cl  0  0  0  0  0  0  0  2  0  0  0  0
    2.5006    0.0000    0.0000 C   0  0  0  0  0  0  0  2  0  0  0  0
    3.2151    0.4125    0.0000 O   0  0  0  0  0  0  0  2  0  0  0  0
    1.7862    0.4125    0.0000 O   0  0  0  0  0  0  0  2  0  0  0  0
    1.0717    0.0000    0.0000 C   0  0  0  0  0  0  0  2  0  0  0  0
    0.3572    0.4125    0.0000 C   0  0  0  0  0  0  0  2  0  0  0  0
  1  2  2  0        0
  2  3  1  0        0
  3  4  1  0        0
  4  5  1  0        0
  2  6  1  0        0
  6  7  1  0        0
  7  8  1  0        0
  2  9  1  0        0
  9 10  1  0        0
 10 11  4  0        0
 11 12  4  0        0
 12 13  4  0        0
 13 14  1  0        0
 14 15  1  0        0
 14 16  2  0        0
 16 17  1  0        0
 16 18  1  0        0
 18 19  2  0        0
 18 20  1  0        0
 20 21  1  0        0
 13 21  4  0        0
 21 22  4  0        0
 10 22  4  0        0
M  END
$$$$

CDXL12

 20 20  0  0  0  0  0  0  0  0999 V2000
   -2.1434    0.4125    0.0000 O   0  0  0  0  0  0  0  2  0  0  0  0
   -2.1434   -0.4125    0.0000 C   0  0  0  0  0  0  0  2  0  0  0  0
   -1.4289   -0.8250    0.0000 N   0  0  0  0  0  0  0  2  0  0  0  0
   -0.7145   -0.4125    0.0000 C   0  0  0  0  0  0  0  2  0  0  0  0
    0.0000   -0.8250    0.0000 C   0  0  0  0  0  0  0  2  0  0  0  0
    0.0000   -1.6500    0.0000 O   0  0  0  0  0  0  0  2  0  0  0  0
    0.7145   -0.4125    0.0000 C   0  0  0  0  0  0  0  2  0  0  0  0
    0.7145    0.4125    0.0000 C   0  0  0  0  0  0  0  2  0  0  0  0
    1.4289    0.8250    0.0000 C   0  0  0  0  0  0  0  2  0  0  0  0
    2.1434    0.4125    0.0000 C   0  0  0  0  0  0  0  2  0  0  0  0
    2.8579    0.8250    0.0000 N   0  0  0  0  0  0  0  2  0  0  0  0
    2.8579    1.6500    0.0000 O   0  0  0  0  0  0  0  2  0  0  0  0
    3.5724    0.4125    0.0000 O   0  0  0  0  0  0  0  2  0  0  0  0
    2.1434   -0.4125    0.0000 C   0  0  0  0  0  0  0  2  0  0  0  0
    1.4289   -0.8250    0.0000 C   0  0  0  0  0  0  0  2  0  0  0  0
   -0.7145    0.4125    0.0000 C   0  0  0  0  0  0  0  2  0  0  0  0
    0.0000    0.8250    0.0000 O   0  0  0  0  0  0  0  2  0  0  0  0
   -2.8579   -0.8250    0.0000 C   0  0  0  0  0  0  0  2  0  0  0  0
   -2.8579   -1.6500    0.0000 Cl  0  0  0  0  0  0  0  2  0  0  0  0
   -3.5724   -0.4125    0.0000 Cl  0  0  0  0  0  0  0  2  0  0  0  0
  1  2  2  0        0
  2  3  1  0        0
  3  4  1  0        0
  4  5  1  0        0
  5  6  1  0        0
  5  7  1  0        0
  7  8  4  0        0
  8  9  4  0        0
  9 10  4  0        0
 10 11  1  0        0
 11 12  2  0        0
 11 13  2  0        0
 10 14  4  0        0
 14 15  4  0        0
  7 15  4  0        0
  4 16  1  0        0
 16 17  1  0        0
  2 18  1  0        0
 18 19  1  0        0
 18 20  1  0        0
M  END
$$$$

CDXL12

  6  5  0  0  0  0  0  0  0  0999 V2000
    1.4289   -0.2062    0.0000 O   0  0  0  0  0  0  0  2  0  0  0  0
    0.7145   -0.6188    0.0000 C   0  0  0  0  0  0  0  2  0  0  0  0
    0.0000   -0.2062    0.0000 C   0  0  0  0  0  0  0  2  0  0  0  0
    0.0000    0.6188    0.0000 O   0  0  0  0  0  0  0  2  0  0  0  0
   -0.7145   -0.6187    0.0000 C   0  0  0  0  0  0  0  2  0  0  0  0
   -1.4289   -0.2062    0.0000 O   0  0  0  0  0  0  0  2  0  0  0  0
  1  2  1  0        0
  2  3  1  0        0
  3  4  1  0        0
  3  5  1  0        0
  5  6  1  0        0
M  END
$$$$

CDXL12

  9  8  0  0  0  0  0  0  0  0999 V2000
    1.0717    1.0313    0.0000 O   0  0  0  0  0  0  0  2  0  0  0  0
    1.0717    0.2062    0.0000 C   0  0  0  0  0  0  0  2  0  0  0  0
    1.7862   -0.2062    0.0000 O   0  0  0  0  0  0  0  2  0  0  0  0
    0.3572   -0.2062    0.0000 C   0  0  0  0  0  0  0  2  0  0  0  0
    0.3572   -1.0313    0.0000 N   0  0  0  0  0  0  0  2  0  0  0  0
   -0.3572    0.2062    0.0000 C   0  0  0  0  0  0  0  2  0  0  0  0
   -1.0717   -0.2062    0.0000 C   0  0  0  0  0  0  0  2  0  0  0  0
   -1.0717   -1.0313    0.0000 O   0  0  0  0  0  0  0  2  0  0  0  0
   -1.7862    0.2062    0.0000 O   0  0  0  0  0  0  0  2  0  0  0  0
  1  2  2  0        0
  2  3  1  0        0
  2  4  1  0        0
  4  5  1  0        0
  4  6  1  0        0
  6  7  1  0        0
  7  8  2  0        0
  7  9  1  0        0
M  END
$$$$

CDXL12

 10  9  0  0  0  0  0  0  0  0999 V2000
    1.4289    1.0313    0.0000 O   0  0  0  0  0  0  0  2  0  0  0  0
    1.4289    0.2062    0.0000 C   0  0  0  0  0  0  0  2  0  0  0  0
    2.1434   -0.2062    0.0000 O   0  0  0  0  0  0  0  2  0  0  0  0
    0.7145   -0.2062    0.0000 C   0  0  0  0  0  0  0  2  0  0  0  0
    0.7145   -1.0313    0.0000 N   0  0  0  0  0  0  0  2  0  0  0  0
    0.0000    0.2062    0.0000 C   0  0  0  0  0  0  0  2  0  0  0  0
   -0.7145   -0.2062    0.0000 C   0  0  0  0  0  0  0  2  0  0  0  0
   -1.4289    0.2062    0.0000 C   0  0  0  0  0  0  0  2  0  0  0  0
   -1.4289    1.0312    0.0000 O   0  0  0  0  0  0  0  2  0  0  0  0
   -2.1434   -0.2062    0.0000 N   0  0  0  0  0  0  0  2  0  0  0  0
  1  2  2  0        0
  2  3  1  0        0
  2  4  1  0        0
  4  5  1  0        0
  4  6  1  0        0
  6  7  1  0        0
  7  8  1  0        0
  8  9  2  0        0
  8 10  1  0        0
M  END
$$$$

CDXL12

 10  9  0  0  0  0  0  0  0  0999 V2000
    1.4289    1.0313    0.0000 O   0  0  0  0  0  0  0  2  0  0  0  0
    1.4289    0.2062    0.0000 C   0  0  0  0  0  0  0  2  0  0  0  0
    2.1434   -0.2062    0.0000 O   0  0  0  0  0  0  0  2  0  0  0  0
    0.7145   -0.2062    0.0000 C   0  0  0  0  0  0  0  2  0  0  0  0
    0.7145   -1.0313    0.0000 N   0  0  0  0  0  0  0  2  0  0  0  0
    0.0000    0.2062    0.0000 C   0  0  0  0  0  0  0  2  0  0  0  0
   -0.7145   -0.2062    0.0000 C   0  0  0  0  0  0  0  2  0  0  0  0
   -1.4289    0.2062    0.0000 C   0  0  0  0  0  0  0  2  0  0  0  0
   -1.4289    1.0312    0.0000 O   0  0  0  0  0  0  0  2  0  0  0  0
   -2.1434   -0.2062    0.0000 O   0  0  0  0  0  0  0  2  0  0  0  0
  1  2  2  0        0
  2  3  1  0        0
  2  4  1  0        0
  4  5  1  0        0
  4  6  1  0        0
  6  7  1  0        0
  7  8  1  0        0
  8  9  2  0        0
  8 10  1  0        0
M  END
$$$$

CDXL12

 14 13  0  0  0  0  0  0  0  0999 V2000
    2.5006    1.0313    0.0000 O   0  0  0  0  0  0  0  2  0  0  0  0
    2.5006    0.2062    0.0000 C   0  0  0  0  0  0  0  2  0  0  0  0
    3.2151   -0.2062    0.0000 O   0  0  0  0  0  0  0  2  0  0  0  0
    1.7862   -0.2062    0.0000 C   0  0  0  0  0  0  0  2  0  0  0  0
    1.7862   -1.0313    0.0000 N   0  0  0  0  0  0  0  2  0  0  0  0
    1.0717    0.2062    0.0000 C   0  0  0  0  0  0  0  2  0  0  0  0
    0.3572   -0.2062    0.0000 S   0  0  0  0  0  0  0  2  0  0  0  0
   -0.3572    0.2062    0.0000 S   0  0  0  0  0  0  0  2  0  0  0  0
   -1.0717   -0.2062    0.0000 C   0  0  0  0  0  0  0  2  0  0  0  0
   -1.7862    0.2062    0.0000 C   0  0  0  0  0  0  0  2  0  0  0  0
   -1.7862    1.0312    0.0000 N   0  0  0  0  0  0  0  2  0  0  0  0
   -2.5006   -0.2062    0.0000 C   0  0  0  0  0  0  0  2  0  0  0  0
   -2.5006   -1.0313    0.0000 O   0  0  0  0  0  0  0  2  0  0  0  0
   -3.2151    0.2062    0.0000 O   0  0  0  0  0  0  0  2  0  0  0  0
  1  2  2  0        0
  2  3  1  0        0
  2  4  1  0        0
  4  5  1  0        0
  4  6  1  0        0
  6  7  1  0        0
  7  8  1  0        0
  8  9  1  0        0
  9 10  1  0        0
 10 11  1  0        0
 10 12  1  0        0
 12 13  2  0        0
 12 14  1  0        0
M  END
$$$$

CDXL12

  9  8  0  0  0  0  0  0  0  0999 V2000
    1.0717   -1.0312    0.0000 O   0  0  0  0  0  0  0  2  0  0  0  0
    1.0717   -0.2062    0.0000 C   0  0  0  0  0  0  0  2  0  0  0  0
    1.7862    0.2062    0.0000 O   0  0  0  0  0  0  0  2  0  0  0  0
    0.3572    0.2062    0.0000 C   0  0  0  0  0  0  0  2  0  0  0  0
   -0.3572   -0.2062    0.0000 N   0  0  0  0  0  0  0  2  0  0  0  0
   -1.0717    0.2063    0.0000 C   0  0  0  0  0  0  0  2  0  0  0  0
   -1.0717    1.0312    0.0000 N   0  0  0  0  0  0  0  2  0  0  0  0
   -1.7862   -0.2062    0.0000 N   0  0  0  0  0  0  0  2  0  0  0  0
   -0.3572   -1.0312    0.0000 C   0  0  0  0  0  0  0  2  0  0  0  0
  1  2  2  0        0
  2  3  1  0        0
  2  4  1  0        0
  4  5  1  0        0
  5  6  1  0        0
  6  7  2  0        0
  6  8  1  0        0
  5  9  1  0        0
M  END
$$$$

CDXL12

  6  5  0  0  0  0  0  0  0  0999 V2000
   -0.3572   -0.4125    0.0000 N   0  0  0  0  0  0  0  2  0  0  0  0
   -1.0717   -0.0000    0.0000 C   0  0  0  0  0  0  0  2  0  0  0  0
   -1.7862    0.4125    0.0000 S   0  0  0  0  0  0  0  2  0  0  0  0
    0.3572    0.0000    0.0000 C   0  0  0  0  0  0  0  2  0  0  0  0
    1.0717   -0.4125    0.0000 C   0  0  0  0  0  0  0  2  0  0  0  0
    1.7862   -0.0000    0.0000 C   0  0  0  0  0  0  0  2  0  0  0  0
  1  2  2  0        0
  2  3  2  0        0
  1  4  1  0        0
  4  5  1  0        0
  5  6  2  0        0
M  END
$$$$

CDXL12

 18 17  0  0  0  0  0  0  0  0999 V2000
    5.0013    0.6187    0.0000 O   0  0  0  0  0  0  0  2  0  0  0  0
    5.0013   -0.2062    0.0000 C   0  0  0  0  0  0  0  2  0  0  0  0
    5.7158   -0.6187    0.0000 O   0  0  0  0  0  0  0  2  0  0  0  0
    4.2868   -0.6187    0.0000 C   0  0  0  0  0  0  0  2  0  0  0  0
    3.5724   -0.2062    0.0000 C   0  0  0  0  0  0  0  2  0  0  0  0
    2.8579   -0.6187    0.0000 C   0  0  0  0  0  0  0  2  0  0  0  0
    2.1434   -0.2062    0.0000 C   0  0  0  0  0  0  0  2  0  0  0  0
    1.4289   -0.6187    0.0000 C   0  0  0  0  0  0  0  2  0  0  0  0
    0.7145   -0.2062    0.0000 C   0  0  0  0  0  0  0  2  0  0  0  0
   -0.0000   -0.6187    0.0000 C   0  0  0  0  0  0  0  2  0  0  0  0
   -0.7145   -0.2062    0.0000 C   0  0  0  0  0  0  0  2  0  0  0  0
   -1.4289   -0.6187    0.0000 C   0  0  0  0  0  0  0  2  0  0  0  0
   -2.1434   -0.2062    0.0000 C   0  0  0  0  0  0  0  2  0  0  0  0
   -2.8579   -0.6187    0.0000 C   0  0  0  0  0  0  0  2  0  0  0  0
   -3.5724   -0.2062    0.0000 C   0  0  0  0  0  0  0  2  0  0  0  0
   -4.2868   -0.6187    0.0000 C   0  0  0  0  0  0  0  2  0  0  0  0
   -5.0013   -0.2062    0.0000 C   0  0  0  0  0  0  0  2  0  0  0  0
   -5.7158   -0.6187    0.0000 C   0  0  0  0  0  0  0  2  0  0  0  0
  1  2  2  0        0
  2  3  1  0        0
  2  4  1  0        0
  4  5  1  0        0
  5  6  1  0        0
  6  7  1  0        0
  7  8  1  0        0
  8  9  1  0        0
  9 10  1  0        0
 10 11  1  0        0
 11 12  1  0        0
 12 13  1  0        0
 13 14  1  0        0
 14 15  1  0        0
 15 16  1  0        0
 16 17  1  0        0
 17 18  1  0        0
M  END
$$$$

CDXL12

  4  3  0  0  0  0  0  0  0  0999 V2000
    0.0000   -0.2062    0.0000 N   0  0  0  0  0  0  0  2  0  0  0  0
   -0.7145   -0.6187    0.0000 N   0  0  0  0  0  0  0  2  0  0  0  0
    0.7145   -0.6188    0.0000 C   0  0  0  0  0  0  0  2  0  0  0  0
    0.0000    0.6188    0.0000 C   0  0  0  0  0  0  0  2  0  0  0  0
  1  2  1  0        0
  1  3  1  0        0
  1  4  1  0        0
M  END
$$$$

CDXL12

  8  7  0  0  0  0  0  0  0  0999 V2000
    1.2375   -0.0000    0.0000 O   0  0  0  0  0  0  0  2  0  0  0  0
    0.4125   -0.0000    0.0000 C   0  0  0  0  0  0  0  2  0  0  0  0
   -0.4125   -0.0000    0.0000 C   0  0  0  0  0  0  0  2  0  0  0  0
   -1.2375   -0.0000    0.0000 Cl  0  0  0  0  0  0  0  2  0  0  0  0
   -0.8250   -0.7145    0.0000 Cl  0  0  0  0  0  0  0  2  0  0  0  0
   -0.8250    0.7145    0.0000 Cl  0  0  0  0  0  0  0  2  0  0  0  0
    0.8250   -0.7145    0.0000 C   0  0  0  0  0  0  0  2  0  0  0  0
    0.8250    0.7145    0.0000 C   0  0  0  0  0  0  0  2  0  0  0  0
  1  2  1  0        0
  2  3  1  0        0
  3  4  1  0        0
  3  5  1  0        0
  3  6  1  0        0
  2  7  1  0        0
  2  8  1  0        0
M  END
$$$$

CDXL12

 19 21  0  0  0  0  0  0  0  0999 V2000
    2.0899    0.4037    0.0000 O   0  0  0  0  0  0  0  2  0  0  0  0
    1.3754   -0.0088    0.0000 C   0  0  0  0  0  0  0  2  0  0  0  0
    1.2322   -0.8213    0.0000 N   0  0  0  0  0  0  0  2  0  0  0  0
    0.4152   -0.9361    0.0000 C   0  0  0  0  0  0  0  2  0  0  0  0
    0.0027   -1.6506    0.0000 O   0  0  0  0  0  0  0  2  0  0  0  0
    0.0535   -0.1946    0.0000 C   0  0  0  0  0  0  0  2  0  0  0  0
    0.6470    0.3785    0.0000 N   0  0  0  0  0  0  0  2  0  0  0  0
   -0.6609   -0.6071    0.0000 C   0  0  0  0  0  0  0  2  0  0  0  0
   -0.6609   -1.4321    0.0000 C   0  0  0  0  0  0  0  2  0  0  0  0
   -1.3754   -1.8446    0.0000 C   0  0  0  0  0  0  0  2  0  0  0  0
   -2.0899   -1.4321    0.0000 C   0  0  0  0  0  0  0  2  0  0  0  0
   -2.0899   -0.6071    0.0000 C   0  0  0  0  0  0  0  2  0  0  0  0
   -1.3754   -0.1946    0.0000 C   0  0  0  0  0  0  0  2  0  0  0  0
   -0.4768    0.4374    0.0000 C   0  0  0  0  0  0  0  2  0  0  0  0
   -1.2892    0.2941    0.0000 C   0  0  0  0  0  0  0  2  0  0  0  0
   -1.8195    0.9261    0.0000 C   0  0  0  0  0  0  0  2  0  0  0  0
   -1.5374    1.7013    0.0000 C   0  0  0  0  0  0  0  2  0  0  0  0
   -0.7249    1.8446    0.0000 C   0  0  0  0  0  0  0  2  0  0  0  0
   -0.1946    1.2126    0.0000 C   0  0  0  0  0  0  0  2  0  0  0  0
  1  2  2  0        0
  2  3  1  0        0
  3  4  1  0        0
  4  5  2  0        0
  4  6  1  0        0
  6  7  1  0        0
  2  7  1  0        0
  6  8  1  0        0
  8  9  4  0        0
  9 10  4  0        0
 10 11  4  0        0
 11 12  4  0        0
 12 13  4  0        0
  8 13  4  0        0
  6 14  1  0        0
 14 15  4  0        0
 15 16  4  0        0
 16 17  4  0        0
 17 18  4  0        0
 18 19  4  0        0
 14 19  4  0        0
M  END
$$$$

CDXL12

 13 13  0  0  0  0  0  0  0  0999 V2000
   -1.9520   -0.0000    0.0000 C   0  0  0  0  0  0  0  2  0  0  0  0
   -1.2375    0.4125    0.0000 C   0  0  0  0  0  0  0  2  0  0  0  0
   -0.5230   -0.0000    0.0000 C   0  0  0  0  0  0  0  2  0  0  0  0
   -1.2375   -0.4125    0.0000 C   0  0  0  0  0  0  0  2  0  0  0  0
   -1.2375   -1.2375    0.0000 C   0  0  0  0  0  0  0  2  0  0  0  0
   -0.1105    0.7145    0.0000 C   0  0  0  0  0  0  0  2  0  0  0  0
   -0.5230    1.4289    0.0000 O   0  0  0  0  0  0  0  2  0  0  0  0
    0.7145    0.7145    0.0000 N   0  0  0  0  0  0  0  2  0  0  0  0
    1.1270   -0.0000    0.0000 C   0  0  0  0  0  0  0  2  0  0  0  0
    1.9520   -0.0000    0.0000 O   0  0  0  0  0  0  0  2  0  0  0  0
    0.7145   -0.7145    0.0000 N   0  0  0  0  0  0  0  2  0  0  0  0
   -0.1105   -0.7145    0.0000 C   0  0  0  0  0  0  0  2  0  0  0  0
   -0.5230   -1.4289    0.0000 O   0  0  0  0  0  0  0  2  0  0  0  0
  1  2  1  0        0
  2  3  1  0        0
  3  4  1  0        0
  4  5  1  0        0
  3  6  1  0        0
  6  7  2  0        0
  6  8  1  0        0
  8  9  1  0        0
  9 10  2  0        0
  9 11  1  0        0
 11 12  1  0        0
  3 12  1  0        0
 12 13  2  0        0
M  END
$$$$

CDXL12

 23 24  0  0  0  0  0  0  0  0999 V2000
    0.8728    1.0246    0.0000 O   0  0  0  0  0  0  0  2  0  0  0  0
    1.5873    0.6121    0.0000 C   0  0  0  0  0  0  0  2  0  0  0  0
    1.5873   -0.2129    0.0000 C   0  0  0  0  0  0  0  2  0  0  0  0
    2.3018   -0.6254    0.0000 O   0  0  0  0  0  0  0  2  0  0  0  0
    0.8728   -0.6254    0.0000 C   0  0  0  0  0  0  0  2  0  0  0  0
    0.8728   -1.4504    0.0000 O   0  0  0  0  0  0  0  2  0  0  0  0
    0.1584   -0.2129    0.0000 C   0  0  0  0  0  0  0  2  0  0  0  0
   -0.5561   -0.6254    0.0000 O   0  0  0  0  0  0  0  2  0  0  0  0
    0.1584    0.6121    0.0000 C   0  0  0  0  0  0  0  2  0  0  0  0
   -0.5561    1.0246    0.0000 O   0  0  0  0  0  0  0  2  0  0  0  0
   -1.2706    0.6121    0.0000 C   0  0  0  0  0  0  0  2  0  0  0  0
   -0.9350   -0.1416    0.0000 O   0  0  0  0  0  0  0  2  0  0  0  0
   -1.5481   -0.6936    0.0000 C   0  0  0  0  0  0  0  2  0  0  0  0
   -2.2626   -0.2811    0.0000 C   0  0  0  0  0  0  0  2  0  0  0  0
   -3.0163   -0.6166    0.0000 O   0  0  0  0  0  0  0  2  0  0  0  0
   -2.0911    0.5259    0.0000 C   0  0  0  0  0  0  0  2  0  0  0  0
   -2.6431    1.1390    0.0000 O   0  0  0  0  0  0  0  2  0  0  0  0
   -1.4619   -1.5141    0.0000 C   0  0  0  0  0  0  0  2  0  0  0  0
   -0.7082   -1.8496    0.0000 O   0  0  0  0  0  0  0  2  0  0  0  0
   -1.2706    1.4371    0.0000 C   0  0  0  0  0  0  0  2  0  0  0  0
   -1.9850    1.8496    0.0000 O   0  0  0  0  0  0  0  2  0  0  0  0
    2.3018    1.0246    0.0000 C   0  0  0  0  0  0  0  2  0  0  0  0
    3.0163    0.6121    0.0000 O   0  0  0  0  0  0  0  2  0  0  0  0
  1  2  1  0        0
  2  3  1  0        0
  3  4  1  0        0
  3  5  1  0        0
  5  6  1  0        0
  5  7  1  0        0
  7  8  1  0        0
  7  9  1  0        0
  1  9  1  0        0
  9 10  1  0        0
 10 11  1  0        0
 11 12  1  0        0
 12 13  1  0        0
 13 14  1  0        0
 14 15  1  0        0
 14 16  1  0        0
 11 16  1  0        0
 16 17  1  0        0
 13 18  1  0        0
 18 19  1  0        0
 11 20  1  0        0
 20 21  1  0        0
  2 22  1  0        0
 22 23  1  0        0
M  END
$$$$

CDXL12

 15 14  0  0  0  0  0  0  0  0999 V2000
    2.1434    1.6500    0.0000 O   0  0  0  0  0  0  0  2  0  0  0  0
    2.1434    0.8250    0.0000 C   0  0  0  0  0  0  0  2  0  0  0  0
    1.4289    0.4125    0.0000 O   0  0  0  0  0  0  0  2  0  0  0  0
    0.7145    0.8250    0.0000 C   0  0  0  0  0  0  0  2  0  0  0  0
   -0.0000    0.4125    0.0000 C   0  0  0  0  0  0  0  2  0  0  0  0
   -0.0000   -0.4125    0.0000 C   0  0  0  0  0  0  0  2  0  0  0  0
   -0.7145   -0.8250    0.0000 C   0  0  0  0  0  0  0  2  0  0  0  0
   -0.7145   -1.6500    0.0000 C   0  0  0  0  0  0  0  2  0  0  0  0
   -0.0000    1.2375    0.0000 C   0  0  0  0  0  0  0  2  0  0  0  0
   -0.7145    0.8250    0.0000 C   0  0  0  0  0  0  0  2  0  0  0  0
   -1.4289    0.4125    0.0000 O   0  0  0  0  0  0  0  2  0  0  0  0
   -2.1434    0.8250    0.0000 C   0  0  0  0  0  0  0  2  0  0  0  0
   -2.1434    1.6500    0.0000 O   0  0  0  0  0  0  0  2  0  0  0  0
   -2.8579    0.4125    0.0000 N   0  0  0  0  0  0  0  2  0  0  0  0
    2.8579    0.4125    0.0000 N   0  0  0  0  0  0  0  2  0  0  0  0
  1  2  2  0        0
  2  3  1  0        0
  3  4  1  0        0
  4  5  1  0        0
  5  6  1  0        0
  6  7  1  0        0
  7  8  1  0        0
  5  9  1  0        0
  5 10  1  0        0
 10 11  1  0        0
 11 12  1  0        0
 12 13  2  0        0
 12 14  1  0        0
  2 15  1  0        0
M  END
$$$$

CDXL12

  5  4  0  0  0  0  0  0  0  0999 V2000
   -1.0717   -0.2062    0.0000 O   0  0  0  0  0  0  0  2  0  0  0  0
   -0.3572   -0.6187    0.0000 C   0  0  0  0  0  0  0  2  0  0  0  0
    0.3572   -0.2062    0.0000 C   0  0  0  0  0  0  0  2  0  0  0  0
    0.3572    0.6187    0.0000 O   0  0  0  0  0  0  0  2  0  0  0  0
    1.0717   -0.6187    0.0000 C   0  0  0  0  0  0  0  2  0  0  0  0
  1  2  1  0        0
  2  3  1  0        0
  3  4  1  0        0
  3  5  1  0        0
M  END
$$$$

CDXL12

  5  5  0  0  0  0  0  0  0  0999 V2000
    0.7042    0.7042    0.0000 O   0  0  0  0  0  0  0  2  0  0  0  0
    0.1208    0.1208    0.0000 C   0  0  0  0  0  0  0  2  0  0  0  0
    0.1208   -0.7042    0.0000 O   0  0  0  0  0  0  0  2  0  0  0  0
   -0.7042   -0.7042    0.0000 C   0  0  0  0  0  0  0  2  0  0  0  0
   -0.7042    0.1208    0.0000 C   0  0  0  0  0  0  0  2  0  0  0  0
  1  2  2  0        0
  2  3  1  0        0
  3  4  1  0        0
  4  5  1  0        0
  2  5  1  0        0
M  END
$$$$

CDXL12

 14 14  0  0  0  0  0  0  0  0999 V2000
   -1.0717   -0.4678    0.0000 C   0  0  0  0  0  0  0  2  0  0  0  0
   -1.7862   -0.0553    0.0000 C   0  0  0  0  0  0  0  2  0  0  0  0
   -1.7862    0.7697    0.0000 C   0  0  0  0  0  0  0  2  0  0  0  0
   -2.5006    1.1822    0.0000 N   0  0  0  0  0  0  0  2  0  0  0  0
   -1.0717    1.1822    0.0000 C   0  0  0  0  0  0  0  2  0  0  0  0
   -0.3572    0.7697    0.0000 C   0  0  0  0  0  0  0  2  0  0  0  0
   -0.3572   -0.0553    0.0000 C   0  0  0  0  0  0  0  2  0  0  0  0
    0.3572   -0.4678    0.0000 S   0  0  0  0  0  0  0  2  0  0  0  0
    0.7697    0.2467    0.0000 O   0  0  0  0  0  0  0  2  0  0  0  0
   -0.0553   -1.1822    0.0000 O   0  0  0  0  0  0  0  2  0  0  0  0
    1.0717   -0.8803    0.0000 N   0  0  0  0  0  0  0  2  0  0  0  0
    1.7862   -0.4678    0.0000 C   0  0  0  0  0  0  0  2  0  0  0  0
    1.7862    0.3572    0.0000 N   0  0  0  0  0  0  0  2  0  0  0  0
    2.5006   -0.8803    0.0000 N   0  0  0  0  0  0  0  2  0  0  0  0
  1  2  4  0        0
  2  3  4  0        0
  3  4  1  0        0
  3  5  4  0        0
  5  6  4  0        0
  6  7  4  0        0
  1  7  4  0        0
  7  8  1  0        0
  8  9  2  0        0
  8 10  2  0        0
  8 11  1  0        0
 11 12  1  0        0
 12 13  2  0        0
 12 14  1  0        0
M  END
$$$$

CDXL12

 19 20  0  0  0  0  0  0  0  0999 V2000
   -0.0553   -0.0405    0.0000 O   0  0  0  0  0  0  0  2  0  0  0  0
    0.3572    0.6740    0.0000 S   0  0  0  0  0  0  0  2  0  0  0  0
    0.7697    1.3885    0.0000 O   0  0  0  0  0  0  0  2  0  0  0  0
   -0.3572    1.0865    0.0000 N   0  0  0  0  0  0  0  2  0  0  0  0
   -1.0717    0.6740    0.0000 C   0  0  0  0  0  0  0  2  0  0  0  0
   -1.0717   -0.1510    0.0000 N   0  0  0  0  0  0  0  2  0  0  0  0
   -1.7862   -0.5635    0.0000 C   0  0  0  0  0  0  0  2  0  0  0  0
   -2.5006   -0.1510    0.0000 C   0  0  0  0  0  0  0  2  0  0  0  0
   -2.5006    0.6740    0.0000 C   0  0  0  0  0  0  0  2  0  0  0  0
   -3.2151    1.0865    0.0000 C   0  0  0  0  0  0  0  2  0  0  0  0
   -1.7862    1.0865    0.0000 N   0  0  0  0  0  0  0  2  0  0  0  0
   -1.7862   -1.3885    0.0000 C   0  0  0  0  0  0  0  2  0  0  0  0
    1.0717    0.2615    0.0000 C   0  0  0  0  0  0  0  2  0  0  0  0
    1.7862    0.6740    0.0000 C   0  0  0  0  0  0  0  2  0  0  0  0
    2.5006    0.2615    0.0000 C   0  0  0  0  0  0  0  2  0  0  0  0
    2.5006   -0.5635    0.0000 C   0  0  0  0  0  0  0  2  0  0  0  0
    3.2151   -0.9760    0.0000 N   0  0  0  0  0  0  0  2  0  0  0  0
    1.7862   -0.9760    0.0000 C   0  0  0  0  0  0  0  2  0  0  0  0
    1.0717   -0.5635    0.0000 C   0  0  0  0  0  0  0  2  0  0  0  0
  1  2  2  0        0
  2  3  2  0        0
  2  4  1  0        0
  4  5  1  0        0
  5  6  4  0        0
  6  7  4  0        0
  7  8  4  0        0
  8  9  4  0        0
  9 10  1  0        0
  9 11  4  0        0
  5 11  4  0        0
  7 12  1  0        0
  2 13  1  0        0
 13 14  4  0        0
 14 15  4  0        0
 15 16  4  0        0
 16 17  1  0        0
 16 18  4  0        0
 18 19  4  0        0
 13 19  4  0        0
M  END
$$$$

CDXL12

 23 26  0  0  0  0  0  0  0  0999 V2000
    1.6763    2.0490    0.0000 O   0  0  0  0  0  0  0  2  0  0  0  0
    2.2597    1.4656    0.0000 C   0  0  0  0  0  0  0  2  0  0  0  0
    2.0048    0.6810    0.0000 C   0  0  0  0  0  0  0  2  0  0  0  0
    1.2201    0.4260    0.0000 C   0  0  0  0  0  0  0  2  0  0  0  0
    1.2201   -0.3990    0.0000 C   0  0  0  0  0  0  0  2  0  0  0  0
    0.5057   -0.8115    0.0000 C   0  0  0  0  0  0  0  2  0  0  0  0
   -0.2088   -0.3990    0.0000 C   0  0  0  0  0  0  0  2  0  0  0  0
   -0.9233   -0.8115    0.0000 C   0  0  0  0  0  0  0  2  0  0  0  0
   -0.9233   -1.6365    0.0000 C   0  0  0  0  0  0  0  2  0  0  0  0
   -1.6377   -2.0490    0.0000 C   0  0  0  0  0  0  0  2  0  0  0  0
   -2.3522   -1.6365    0.0000 C   0  0  0  0  0  0  0  2  0  0  0  0
   -3.0667   -2.0490    0.0000 O   0  0  0  0  0  0  0  2  0  0  0  0
   -2.3522   -0.8115    0.0000 C   0  0  0  0  0  0  0  2  0  0  0  0
   -1.6377   -0.3990    0.0000 C   0  0  0  0  0  0  0  2  0  0  0  0
   -0.2088   -2.0490    0.0000 C   0  0  0  0  0  0  0  2  0  0  0  0
    0.5057   -1.6365    0.0000 C   0  0  0  0  0  0  0  2  0  0  0  0
   -0.9233    0.0135    0.0000 C   0  0  0  0  0  0  0  2  0  0  0  0
   -0.2088    0.4260    0.0000 C   0  0  0  0  0  0  0  2  0  0  0  0
    0.5057    0.8385    0.0000 C   0  0  0  0  0  0  0  2  0  0  0  0
    2.0048   -0.6539    0.0000 C   0  0  0  0  0  0  0  2  0  0  0  0
    2.4897    0.0135    0.0000 C   0  0  0  0  0  0  0  2  0  0  0  0
    1.3064    1.2465    0.0000 C   0  0  0  0  0  0  0  2  0  0  0  0
    3.0667    1.6371    0.0000 C   0  0  0  0  0  0  0  2  0  0  0  0
  1  2  2  0        0
  2  3  1  0        0
  3  4  1  0        0
  4  5  1  0        0
  5  6  1  0        0
  6  7  1  0        0
  7  8  1  0        0
  8  9  1  0        0
  9 10  2  0        0
 10 11  1  0        0
 11 12  2  0        0
 11 13  1  0        0
 13 14  1  0        0
  8 14  1  0        0
  9 15  1  0        0
 15 16  1  0        0
  6 16  1  0        0
  8 17  1  0        0
  7 18  1  0        0
 18 19  1  0        0
  4 19  1  0        0
  5 20  1  0        0
 20 21  1  0        0
  3 21  1  0        0
  4 22  1  0        0
  2 23  1  0        0
M  END
$$$$

CDXL12

 28 31  0  0  0  0  0  0  0  0999 V2000
   -4.1286   -3.0051    0.0000 O   0  0  0  0  0  0  0  2  0  0  0  0
   -3.4141   -2.5926    0.0000 C   0  0  0  0  0  0  0  2  0  0  0  0
   -3.4141   -1.7676    0.0000 C   0  0  0  0  0  0  0  2  0  0  0  0
   -2.6996   -1.3551    0.0000 C   0  0  0  0  0  0  0  2  0  0  0  0
   -1.9852   -1.7676    0.0000 C   0  0  0  0  0  0  0  2  0  0  0  0
   -1.9852   -2.5926    0.0000 C   0  0  0  0  0  0  0  2  0  0  0  0
   -1.2707   -3.0051    0.0000 C   0  0  0  0  0  0  0  2  0  0  0  0
   -0.5562   -2.5926    0.0000 C   0  0  0  0  0  0  0  2  0  0  0  0
   -0.5562   -1.7676    0.0000 C   0  0  0  0  0  0  0  2  0  0  0  0
    0.1582   -1.3551    0.0000 C   0  0  0  0  0  0  0  2  0  0  0  0
    0.1582   -0.5301    0.0000 C   0  0  0  0  0  0  0  2  0  0  0  0
    0.9429   -0.2752    0.0000 C   0  0  0  0  0  0  0  2  0  0  0  0
    1.4278   -0.9426    0.0000 C   0  0  0  0  0  0  0  2  0  0  0  0
    0.9429   -1.6100    0.0000 C   0  0  0  0  0  0  0  2  0  0  0  0
    1.1978    0.5094    0.0000 C   0  0  0  0  0  0  0  2  0  0  0  0
    2.0048    0.6810    0.0000 C   0  0  0  0  0  0  0  2  0  0  0  0
    2.2597    1.4656    0.0000 C   0  0  0  0  0  0  0  2  0  0  0  0
    3.0667    1.6371    0.0000 C   0  0  0  0  0  0  0  2  0  0  0  0
    3.3216    2.4217    0.0000 C   0  0  0  0  0  0  0  2  0  0  0  0
    2.7383    3.0051    0.0000 C   0  0  0  0  0  0  0  2  0  0  0  0
    4.1286    2.5933    0.0000 C   0  0  0  0  0  0  0  2  0  0  0  0
    0.6144    1.0928    0.0000 C   0  0  0  0  0  0  0  2  0  0  0  0
   -0.5562   -0.1176    0.0000 C   0  0  0  0  0  0  0  2  0  0  0  0
   -1.2707   -0.5301    0.0000 C   0  0  0  0  0  0  0  2  0  0  0  0
   -1.2707   -1.3551    0.0000 C   0  0  0  0  0  0  0  2  0  0  0  0
    0.2445    0.2904    0.0000 C   0  0  0  0  0  0  0  2  0  0  0  0
   -2.6996   -3.0051    0.0000 C   0  0  0  0  0  0  0  2  0  0  0  0
   -1.9852   -0.9426    0.0000 C   0  0  0  0  0  0  0  2  0  0  0  0
  1  2  1  0        0
  2  3  1  0        0
  3  4  1  0        0
  4  5  1  0        0
  5  6  1  0        0
  6  7  2  0        0
  7  8  1  0        0
  8  9  1  0        0
  9 10  1  0        0
 10 11  1  0        0
 11 12  1  0        0
 12 13  1  0        0
 13 14  1  0        0
 10 14  1  0        0
 12 15  1  0        0
 15 16  1  0        0
 16 17  1  0        0
 17 18  1  0        0
 18 19  1  0        0
 19 20  1  0        0
 19 21  1  0        0
 15 22  1  0        0
 11 23  1  0        0
 23 24  1  0        0
 24 25  1  0        0
  5 25  1  0        0
  9 25  1  0        0
 11 26  1  0        0
  6 27  1  0        0
  2 27  1  0        0
  5 28  1  0        0
M  END
$$$$

CDXL12

 47 53  0  0  0  0  0  0  0  0999 V2000
   -2.5444    1.5124    0.0000 C   0  0  0  0  0  0  0  2  0  0  0  0
   -2.8266    0.7371    0.0000 C   0  0  0  0  0  0  0  2  0  0  0  0
   -3.5411    1.1496    0.0000 N   0  0  0  0  0  0  0  2  0  0  0  0
   -3.1286    1.8641    0.0000 C   0  0  0  0  0  0  0  2  0  0  0  0
   -3.9536    1.8641    0.0000 Cl  0  0  0  0  0  0  0  2  0  0  0  0
   -4.2556    0.7371    0.0000 C   0  0  0  0  0  0  0  2  0  0  0  0
   -4.2556   -0.0879    0.0000 C   0  0  0  0  0  0  0  2  0  0  0  0
   -3.5411   -0.5004    0.0000 C   0  0  0  0  0  0  0  2  0  0  0  0
   -3.4820   -1.3233    0.0000 C   0  0  0  0  0  0  0  2  0  0  0  0
   -2.7907   -1.7736    0.0000 C   0  0  0  0  0  0  0  2  0  0  0  0
   -2.8867   -2.5930    0.0000 O   0  0  0  0  0  0  0  2  0  0  0  0
   -3.6443   -2.9196    0.0000 C   0  0  0  0  0  0  0  2  0  0  0  0
   -2.0141   -1.4951    0.0000 C   0  0  0  0  0  0  0  2  0  0  0  0
   -2.5444   -0.8631    0.0000 C   0  0  0  0  0  0  0  2  0  0  0  0
   -2.8266   -0.0879    0.0000 C   0  0  0  0  0  0  0  2  0  0  0  0
   -1.2997   -1.9076    0.0000 O   0  0  0  0  0  0  0  2  0  0  0  0
   -0.4872   -2.0509    0.0000 C   0  0  0  0  0  0  0  2  0  0  0  0
    0.3253   -1.9076    0.0000 C   0  0  0  0  0  0  0  2  0  0  0  0
    1.0397   -1.4951    0.0000 C   0  0  0  0  0  0  0  2  0  0  0  0
    0.6798   -0.7528    0.0000 C   0  0  0  0  0  0  0  2  0  0  0  0
   -0.1371   -0.6373    0.0000 C   0  0  0  0  0  0  0  2  0  0  0  0
   -0.6887   -1.2508    0.0000 C   0  0  0  0  0  0  0  2  0  0  0  0
   -1.4895   -1.0525    0.0000 O   0  0  0  0  0  0  0  2  0  0  0  0
    1.5700   -0.8631    0.0000 C   0  0  0  0  0  0  0  2  0  0  0  0
    1.8522   -0.0879    0.0000 C   0  0  0  0  0  0  0  2  0  0  0  0
    2.2530   -0.8090    0.0000 N   0  0  0  0  0  0  0  2  0  0  0  0
    1.4280   -0.8090    0.0000 C   0  0  0  0  0  0  0  2  0  0  0  0
    1.8405   -1.5235    0.0000 C   0  0  0  0  0  0  0  2  0  0  0  0
    2.6655   -1.5235    0.0000 Cl  0  0  0  0  0  0  0  2  0  0  0  0
    3.0729   -0.7177    0.0000 C   0  0  0  0  0  0  0  2  0  0  0  0
    3.3052    0.0739    0.0000 C   0  0  0  0  0  0  0  2  0  0  0  0
    2.6647    0.5939    0.0000 C   0  0  0  0  0  0  0  2  0  0  0  0
    3.1950    1.2258    0.0000 C   0  0  0  0  0  0  0  2  0  0  0  0
    2.9128    2.0011    0.0000 C   0  0  0  0  0  0  0  2  0  0  0  0
    3.4431    2.6331    0.0000 O   0  0  0  0  0  0  0  2  0  0  0  0
    4.2556    2.4898    0.0000 C   0  0  0  0  0  0  0  2  0  0  0  0
    2.1003    2.1444    0.0000 C   0  0  0  0  0  0  0  2  0  0  0  0
    1.8182    2.9196    0.0000 O   0  0  0  0  0  0  0  2  0  0  0  0
    1.5700    1.5124    0.0000 C   0  0  0  0  0  0  0  2  0  0  0  0
    1.0397    2.1444    0.0000 O   0  0  0  0  0  0  0  2  0  0  0  0
    0.3253    2.5569    0.0000 C   0  0  0  0  0  0  0  2  0  0  0  0
   -0.3892    2.1444    0.0000 C   0  0  0  0  0  0  0  2  0  0  0  0
   -1.2017    2.0011    0.0000 C   0  0  0  0  0  0  0  2  0  0  0  0
   -2.0141    2.1444    0.0000 C   0  0  0  0  0  0  0  2  0  0  0  0
   -1.2997    2.5569    0.0000 C   0  0  0  0  0  0  0  2  0  0  0  0
   -0.4872    2.7001    0.0000 C   0  0  0  0  0  0  0  2  0  0  0  0
    1.8522    0.7371    0.0000 C   0  0  0  0  0  0  0  2  0  0  0  0
  1  2  1  0        0
  2  3  1  0        0
  3  4  1  0        0
  3  5  1  0        0
  3  6  1  0        0
  6  7  1  0        0
  7  8  1  0        0
  8  9  4  0        0
  9 10  4  0        0
 10 11  1  0        0
 11 12  1  0        0
 10 13  4  0        0
 13 14  4  0        0
 14 15  4  0        0
  2 15  1  0        0
  8 15  4  0        0
 13 16  1  0        0
 16 17  1  0        0
 17 18  1  0        0
 18 19  1  0        0
 19 20  4  0        0
 20 21  4  0        0
 21 22  4  0        0
 17 22  4  0        0
 22 23  1  0        0
 19 24  1  0        0
 24 25  1  0        0
 25 26  1  0        0
 26 27  1  0        0
 26 28  1  0        0
 26 29  1  0        0
 26 30  1  0        0
 30 31  1  0        0
 31 32  1  0        0
 32 33  4  0        0
 33 34  4  0        0
 34 35  1  0        0
 35 36  1  0        0
 34 37  4  0        0
 37 38  1  0        0
 37 39  4  0        0
 39 40  1  0        0
 40 41  1  0        0
 41 42  1  0        0
 42 43  1  0        0
 43 44  1  0        0
  1 44  1  0        0
 44 45  1  0        0
 45 46  1  0        0
 41 46  1  0        0
 39 47  4  0        0
 25 47  1  0        0
 32 47  4  0        0
M  END
$$$$

CDXL12

 20 23  0  0  0  0  0  0  0  0999 V2000
    0.3572   -0.6187    0.0000 C   0  0  0  0  0  0  0  2  0  0  0  0
    0.3572    0.2062    0.0000 C   0  0  0  0  0  0  0  2  0  0  0  0
    1.0717    0.6187    0.0000 C   0  0  0  0  0  0  0  2  0  0  0  0
    1.7862    0.2062    0.0000 C   0  0  0  0  0  0  0  2  0  0  0  0
    1.7862   -0.6187    0.0000 C   0  0  0  0  0  0  0  2  0  0  0  0
    1.0717   -1.0312    0.0000 C   0  0  0  0  0  0  0  2  0  0  0  0
    2.5006    0.6187    0.0000 C   0  0  0  0  0  0  0  2  0  0  0  0
    2.5006    1.4437    0.0000 C   0  0  0  0  0  0  0  2  0  0  0  0
    1.7862    1.8562    0.0000 C   0  0  0  0  0  0  0  2  0  0  0  0
    1.0717    1.4438    0.0000 C   0  0  0  0  0  0  0  2  0  0  0  0
   -0.3572    0.6188    0.0000 C   0  0  0  0  0  0  0  2  0  0  0  0
   -1.0717    0.2062    0.0000 C   0  0  0  0  0  0  0  2  0  0  0  0
   -1.0717   -0.6187    0.0000 C   0  0  0  0  0  0  0  2  0  0  0  0
   -1.7862   -1.0312    0.0000 C   0  0  0  0  0  0  0  2  0  0  0  0
   -2.5006   -0.6187    0.0000 C   0  0  0  0  0  0  0  2  0  0  0  0
   -2.5006    0.2062    0.0000 C   0  0  0  0  0  0  0  2  0  0  0  0
   -1.7862    0.6187    0.0000 C   0  0  0  0  0  0  0  2  0  0  0  0
   -0.3572   -1.0312    0.0000 C   0  0  0  0  0  0  0  2  0  0  0  0
   -0.3572   -1.8562    0.0000 C   0  0  0  0  0  0  0  2  0  0  0  0
   -0.3572    1.4438    0.0000 C   0  0  0  0  0  0  0  2  0  0  0  0
  1  2  4  0        0
  2  3  4  0        0
  3  4  4  0        0
  4  5  4  0        0
  5  6  4  0        0
  1  6  4  0        0
  4  7  4  0        0
  7  8  4  0        0
  8  9  4  0        0
  9 10  4  0        0
  3 10  4  0        0
  2 11  4  0        0
 11 12  4  0        0
 12 13  4  0        0
 13 14  4  0        0
 14 15  4  0        0
 15 16  4  0        0
 16 17  4  0        0
 12 17  4  0        0
 13 18  4  0        0
  1 18  4  0        0
 18 19  1  0        0
 11 20  1  0        0
M  END
$$$$

CDXL12

 14 15  0  0  0  0  0  0  0  0999 V2000
   -1.7065    0.8250    0.0000 C   0  0  0  0  0  0  0  2  0  0  0  0
   -0.9920    0.4125    0.0000 N   0  0  0  0  0  0  0  2  0  0  0  0
   -0.9920   -0.4125    0.0000 C   0  0  0  0  0  0  0  2  0  0  0  0
   -1.7065   -0.8250    0.0000 O   0  0  0  0  0  0  0  2  0  0  0  0
   -0.2775   -0.8250    0.0000 N   0  0  0  0  0  0  0  2  0  0  0  0
   -0.2775   -1.6500    0.0000 C   0  0  0  0  0  0  0  2  0  0  0  0
    0.4369   -0.4125    0.0000 C   0  0  0  0  0  0  0  2  0  0  0  0
    1.2216   -0.6674    0.0000 N   0  0  0  0  0  0  0  2  0  0  0  0
    1.7065   -0.0000    0.0000 C   0  0  0  0  0  0  0  2  0  0  0  0
    1.2216    0.6674    0.0000 N   0  0  0  0  0  0  0  2  0  0  0  0
    1.4765    1.4521    0.0000 C   0  0  0  0  0  0  0  2  0  0  0  0
    0.4369    0.4125    0.0000 C   0  0  0  0  0  0  0  2  0  0  0  0
   -0.2775    0.8250    0.0000 C   0  0  0  0  0  0  0  2  0  0  0  0
   -0.2775    1.6500    0.0000 O   0  0  0  0  0  0  0  2  0  0  0  0
  1  2  1  0        0
  2  3  1  0        0
  3  4  2  0        0
  3  5  1  0        0
  5  6  1  0        0
  5  7  1  0        0
  7  8  4  0        0
  8  9  4  0        0
  9 10  4  0        0
 10 11  1  0        0
 10 12  4  0        0
  7 12  4  0        0
 12 13  1  0        0
  2 13  1  0        0
 13 14  2  0        0
M  END
$$$$

CDXL12

 17 18  0  0  0  0  0  0  0  0999 V2000
   -0.9483   -1.2853    0.0000 C   0  0  0  0  0  0  0  2  0  0  0  0
   -1.6628   -1.6978    0.0000 C   0  0  0  0  0  0  0  2  0  0  0  0
   -2.3773   -1.2853    0.0000 C   0  0  0  0  0  0  0  2  0  0  0  0
   -2.3773   -0.4603    0.0000 C   0  0  0  0  0  0  0  2  0  0  0  0
   -1.6628   -0.0478    0.0000 C   0  0  0  0  0  0  0  2  0  0  0  0
   -0.9483   -0.4603    0.0000 C   0  0  0  0  0  0  0  2  0  0  0  0
   -0.2338   -0.0478    0.0000 N   0  0  0  0  0  0  0  2  0  0  0  0
    0.5198   -0.3834    0.0000 C   0  0  0  0  0  0  0  2  0  0  0  0
    0.6914   -1.1904    0.0000 O   0  0  0  0  0  0  0  2  0  0  0  0
    1.0719    0.2297    0.0000 C   0  0  0  0  0  0  0  2  0  0  0  0
    1.8923    0.1435    0.0000 N   0  0  0  0  0  0  0  2  0  0  0  0
    2.2279   -0.6102    0.0000 C   0  0  0  0  0  0  0  2  0  0  0  0
    2.3773    0.8109    0.0000 C   0  0  0  0  0  0  0  2  0  0  0  0
    0.6594    0.9442    0.0000 C   0  0  0  0  0  0  0  2  0  0  0  0
    0.9949    1.6978    0.0000 C   0  0  0  0  0  0  0  2  0  0  0  0
   -0.1476    0.7726    0.0000 N   0  0  0  0  0  0  0  2  0  0  0  0
   -0.7607    1.3247    0.0000 C   0  0  0  0  0  0  0  2  0  0  0  0
  1  2  4  0        0
  2  3  4  0        0
  3  4  4  0        0
  4  5  4  0        0
  5  6  4  0        0
  1  6  4  0        0
  6  7  1  0        0
  7  8  1  0        0
  8  9  2  0        0
  8 10  1  0        0
 10 11  1  0        0
 11 12  1  0        0
 11 13  1  0        0
 10 14  2  0        0
 14 15  1  0        0
 14 16  1  0        0
  7 16  1  0        0
 16 17  1  0        0
M  END
$$$$

CDXL12

 22 25  0  0  0  0  0  0  0  0999 V2000
   -2.8423   -1.7685    0.0000 O   0  0  0  0  0  0  0  2  0  0  0  0
   -2.1278   -1.3560    0.0000 C   0  0  0  0  0  0  0  2  0  0  0  0
   -1.4133   -1.7685    0.0000 C   0  0  0  0  0  0  0  2  0  0  0  0
   -0.6989   -1.3560    0.0000 C   0  0  0  0  0  0  0  2  0  0  0  0
   -0.6989   -0.5310    0.0000 C   0  0  0  0  0  0  0  2  0  0  0  0
    0.0156   -0.1185    0.0000 C   0  0  0  0  0  0  0  2  0  0  0  0
    0.7301   -0.5310    0.0000 C   0  0  0  0  0  0  0  2  0  0  0  0
    1.4446   -0.1185    0.0000 C   0  0  0  0  0  0  0  2  0  0  0  0
    1.4446    0.7065    0.0000 C   0  0  0  0  0  0  0  2  0  0  0  0
    2.2292    0.9615    0.0000 C   0  0  0  0  0  0  0  2  0  0  0  0
    2.0576    1.7685    0.0000 O   0  0  0  0  0  0  0  2  0  0  0  0
    2.8423    1.5135    0.0000 C   0  0  0  0  0  0  0  2  0  0  0  0
    2.7141    0.2940    0.0000 C   0  0  0  0  0  0  0  2  0  0  0  0
    2.2292   -0.3734    0.0000 C   0  0  0  0  0  0  0  2  0  0  0  0
    0.7301    1.1190    0.0000 C   0  0  0  0  0  0  0  2  0  0  0  0
    0.0156    0.7065    0.0000 C   0  0  0  0  0  0  0  2  0  0  0  0
    1.5308    1.5270    0.0000 C   0  0  0  0  0  0  0  2  0  0  0  0
    0.7301   -1.3560    0.0000 C   0  0  0  0  0  0  0  2  0  0  0  0
    0.0156   -1.7685    0.0000 C   0  0  0  0  0  0  0  2  0  0  0  0
   -1.4133   -0.1185    0.0000 C   0  0  0  0  0  0  0  2  0  0  0  0
   -2.1278   -0.5310    0.0000 C   0  0  0  0  0  0  0  2  0  0  0  0
   -0.6989    0.2940    0.0000 C   0  0  0  0  0  0  0  2  0  0  0  0
  1  2  2  0        0
  2  3  1  0        0
  3  4  2  0        0
  4  5  1  0        0
  5  6  1  0        0
  6  7  1  0        0
  7  8  1  0        0
  8  9  1  0        0
  9 10  1  0        0
 10 11  1  0        0
 10 12  1  0        0
 10 13  1  0        0
 13 14  1  0        0
  8 14  1  0        0
  9 15  1  0        0
 15 16  1  0        0
  6 16  1  0        0
  9 17  1  0        0
  7 18  1  0        0
 18 19  1  0        0
  4 19  1  0        0
  5 20  1  0        0
 20 21  1  0        0
  2 21  1  0        0
  5 22  1  0        0
M  END
$$$$

CDXL12

 21 24  0  0  0  0  0  0  0  0999 V2000
   -2.0637   -0.5198    0.0000 C   0  0  0  0  0  0  0  2  0  0  0  0
   -2.0637   -1.3448    0.0000 C   0  0  0  0  0  0  0  2  0  0  0  0
   -2.7782   -1.7573    0.0000 O   0  0  0  0  0  0  0  2  0  0  0  0
   -1.3492   -1.7573    0.0000 C   0  0  0  0  0  0  0  2  0  0  0  0
   -0.6348   -1.3448    0.0000 C   0  0  0  0  0  0  0  2  0  0  0  0
    0.0797   -1.7573    0.0000 C   0  0  0  0  0  0  0  2  0  0  0  0
    0.7942   -1.3448    0.0000 C   0  0  0  0  0  0  0  2  0  0  0  0
    0.7942   -0.5198    0.0000 C   0  0  0  0  0  0  0  2  0  0  0  0
    1.5086   -0.1073    0.0000 C   0  0  0  0  0  0  0  2  0  0  0  0
    2.2933   -0.3622    0.0000 C   0  0  0  0  0  0  0  2  0  0  0  0
    2.7782    0.3052    0.0000 C   0  0  0  0  0  0  0  2  0  0  0  0
    2.2933    0.9727    0.0000 C   0  0  0  0  0  0  0  2  0  0  0  0
    2.5482    1.7573    0.0000 O   0  0  0  0  0  0  0  2  0  0  0  0
    1.5086    0.7177    0.0000 C   0  0  0  0  0  0  0  2  0  0  0  0
    1.5949    1.5382    0.0000 C   0  0  0  0  0  0  0  2  0  0  0  0
    0.7942    1.1302    0.0000 C   0  0  0  0  0  0  0  2  0  0  0  0
    0.0797    0.7177    0.0000 C   0  0  0  0  0  0  0  2  0  0  0  0
    0.0797   -0.1073    0.0000 C   0  0  0  0  0  0  0  2  0  0  0  0
   -0.6348   -0.5198    0.0000 C   0  0  0  0  0  0  0  2  0  0  0  0
   -0.6348    0.3052    0.0000 C   0  0  0  0  0  0  0  2  0  0  0  0
   -1.3492   -0.1073    0.0000 C   0  0  0  0  0  0  0  2  0  0  0  0
  1  2  1  0        0
  2  3  2  0        0
  2  4  1  0        0
  4  5  2  0        0
  5  6  1  0        0
  6  7  1  0        0
  7  8  1  0        0
  8  9  1  0        0
  9 10  1  0        0
 10 11  1  0        0
 11 12  1  0        0
 12 13  1  0        0
 12 14  1  0        0
  9 14  1  0        0
 14 15  1  0        0
 14 16  1  0        0
 16 17  1  0        0
 17 18  1  0        0
  8 18  1  0        0
 18 19  1  0        0
  5 19  1  0        0
 19 20  1  0        0
 19 21  1  0        0
  1 21  1  0        0
M  END
$$$$

CDXL12

 21 23  0  0  0  0  0  0  0  0999 V2000
    2.4615    2.2411    0.0000 C   0  0  0  0  0  0  0  2  0  0  0  0
    1.6457    2.3641    0.0000 N   0  0  0  0  0  0  0  2  0  0  0  0
    1.1313    1.7191    0.0000 C   0  0  0  0  0  0  0  2  0  0  0  0
    0.3270    1.9026    0.0000 N   0  0  0  0  0  0  0  2  0  0  0  0
   -0.3180    1.3883    0.0000 C   0  0  0  0  0  0  0  2  0  0  0  0
   -1.0325    1.8008    0.0000 C   0  0  0  0  0  0  0  2  0  0  0  0
   -1.7470    1.3883    0.0000 C   0  0  0  0  0  0  0  2  0  0  0  0
   -1.7470    0.5633    0.0000 C   0  0  0  0  0  0  0  2  0  0  0  0
   -2.4615    0.1508    0.0000 Cl  0  0  0  0  0  0  0  2  0  0  0  0
   -1.0325    0.1508    0.0000 C   0  0  0  0  0  0  0  2  0  0  0  0
   -0.3180    0.5633    0.0000 C   0  0  0  0  0  0  0  2  0  0  0  0
    0.3270    0.0489    0.0000 C   0  0  0  0  0  0  0  2  0  0  0  0
    1.1313    0.2325    0.0000 N   0  0  0  0  0  0  0  2  0  0  0  0
    1.6457   -0.4126    0.0000 O   0  0  0  0  0  0  0  2  0  0  0  0
    1.4892    0.9758    0.0000 C   0  0  0  0  0  0  0  2  0  0  0  0
    0.1434   -0.7554    0.0000 C   0  0  0  0  0  0  0  2  0  0  0  0
    0.7482   -1.3166    0.0000 C   0  0  0  0  0  0  0  2  0  0  0  0
    0.5646   -2.1209    0.0000 C   0  0  0  0  0  0  0  2  0  0  0  0
   -0.2238   -2.3641    0.0000 C   0  0  0  0  0  0  0  2  0  0  0  0
   -0.8285   -1.8029    0.0000 C   0  0  0  0  0  0  0  2  0  0  0  0
   -0.6450   -0.9986    0.0000 C   0  0  0  0  0  0  0  2  0  0  0  0
  1  2  1  0        0
  2  3  1  0        0
  3  4  2  0        0
  4  5  1  0        0
  5  6  4  0        0
  6  7  4  0        0
  7  8  4  0        0
  8  9  1  0        0
  8 10  4  0        0
 10 11  4  0        0
  5 11  4  0        0
 11 12  1  0        0
 12 13  2  0        0
 13 14  2  0        0
 13 15  1  0        0
  3 15  1  0        0
 12 16  1  0        0
 16 17  4  0        0
 17 18  4  0        0
 18 19  4  0        0
 19 20  4  0        0
 20 21  4  0        0
 16 21  4  0        0
M  END
$$$$

CDXL12

 13 14  0  0  0  0  0  0  0  0999 V2000
   -1.7862   -0.4125    0.0000 C   0  0  0  0  0  0  0  2  0  0  0  0
   -1.0717   -0.8250    0.0000 C   0  0  0  0  0  0  0  2  0  0  0  0
   -0.3572   -0.4125    0.0000 C   0  0  0  0  0  0  0  2  0  0  0  0
    0.3572   -0.8250    0.0000 C   0  0  0  0  0  0  0  2  0  0  0  0
    0.3572   -1.6500    0.0000 O   0  0  0  0  0  0  0  2  0  0  0  0
    1.0717   -0.4125    0.0000 C   0  0  0  0  0  0  0  2  0  0  0  0
    1.0717    0.4125    0.0000 C   0  0  0  0  0  0  0  2  0  0  0  0
    1.7862    0.8250    0.0000 C   0  0  0  0  0  0  0  2  0  0  0  0
    0.3572    0.8250    0.0000 C   0  0  0  0  0  0  0  2  0  0  0  0
    0.3572    1.6500    0.0000 O   0  0  0  0  0  0  0  2  0  0  0  0
   -0.3572    0.4125    0.0000 C   0  0  0  0  0  0  0  2  0  0  0  0
   -1.0717    0.8250    0.0000 C   0  0  0  0  0  0  0  2  0  0  0  0
   -1.7862    0.4125    0.0000 C   0  0  0  0  0  0  0  2  0  0  0  0
  1  2  4  0        0
  2  3  4  0        0
  3  4  1  0        0
  4  5  2  0        0
  4  6  1  0        0
  6  7  2  0        0
  7  8  1  0        0
  7  9  1  0        0
  9 10  2  0        0
  9 11  1  0        0
  3 11  4  0        0
 11 12  4  0        0
 12 13  4  0        0
  1 13  4  0        0
M  END
$$$$

CDXL12

 27 30  0  0  0  0  0  0  0  0999 V2000
   -3.9296    2.6812    0.0000 O   0  0  0  0  0  0  0  2  0  0  0  0
   -3.2151    2.2687    0.0000 C   0  0  0  0  0  0  0  2  0  0  0  0
   -2.5006    2.6812    0.0000 C   0  0  0  0  0  0  0  2  0  0  0  0
   -1.7862    2.2687    0.0000 N   0  0  0  0  0  0  0  2  0  0  0  0
   -1.0717    2.6812    0.0000 C   0  0  0  0  0  0  0  2  0  0  0  0
   -0.3572    2.2687    0.0000 C   0  0  0  0  0  0  0  2  0  0  0  0
   -0.3572    1.4438    0.0000 N   0  0  0  0  0  0  0  2  0  0  0  0
    0.3572    1.0313    0.0000 C   0  0  0  0  0  0  0  2  0  0  0  0
    0.3572    0.2062    0.0000 C   0  0  0  0  0  0  0  2  0  0  0  0
    1.0717   -0.2062    0.0000 C   0  0  0  0  0  0  0  2  0  0  0  0
    1.0717   -1.0313    0.0000 N   0  0  0  0  0  0  0  2  0  0  0  0
    0.3572   -1.4438    0.0000 C   0  0  0  0  0  0  0  2  0  0  0  0
   -0.3572   -1.0313    0.0000 C   0  0  0  0  0  0  0  2  0  0  0  0
   -1.0717   -1.4438    0.0000 C   0  0  0  0  0  0  0  2  0  0  0  0
   -1.0717   -2.2687    0.0000 C   0  0  0  0  0  0  0  2  0  0  0  0
   -0.3572   -2.6812    0.0000 C   0  0  0  0  0  0  0  2  0  0  0  0
    0.3572   -2.2687    0.0000 C   0  0  0  0  0  0  0  2  0  0  0  0
    1.0717   -2.6812    0.0000 S   0  0  0  0  0  0  0  2  0  0  0  0
    1.7862   -2.2687    0.0000 C   0  0  0  0  0  0  0  2  0  0  0  0
    2.5006   -2.6812    0.0000 C   0  0  0  0  0  0  0  2  0  0  0  0
    3.2151   -2.2687    0.0000 C   0  0  0  0  0  0  0  2  0  0  0  0
    3.2151   -1.4438    0.0000 C   0  0  0  0  0  0  0  2  0  0  0  0
    3.9296   -1.0313    0.0000 Cl  0  0  0  0  0  0  0  2  0  0  0  0
    2.5006   -1.0313    0.0000 C   0  0  0  0  0  0  0  2  0  0  0  0
    1.7862   -1.4438    0.0000 C   0  0  0  0  0  0  0  2  0  0  0  0
   -1.0717    1.0313    0.0000 C   0  0  0  0  0  0  0  2  0  0  0  0
   -1.7862    1.4438    0.0000 C   0  0  0  0  0  0  0  2  0  0  0  0
  1  2  1  0        0
  2  3  1  0        0
  3  4  1  0        0
  4  5  1  0        0
  5  6  1  0        0
  6  7  1  0        0
  7  8  1  0        0
  8  9  1  0        0
  9 10  1  0        0
 10 11  1  0        0
 11 12  1  0        0
 12 13  4  0        0
 13 14  4  0        0
 14 15  4  0        0
 15 16  4  0        0
 16 17  4  0        0
 12 17  4  0        0
 17 18  1  0        0
 18 19  1  0        0
 19 20  4  0        0
 20 21  4  0        0
 21 22  4  0        0
 22 23  1  0        0
 22 24  4  0        0
 24 25  4  0        0
 11 25  1  0        0
 19 25  4  0        0
  7 26  1  0        0
 26 27  1  0        0
  4 27  1  0        0
M  END
$$$$

CDXL12

 20 22  0  0  0  0  0  0  0  0999 V2000
   -2.1434   -1.2375    0.0000 C   0  0  0  0  0  0  0  2  0  0  0  0
   -2.1434   -2.0625    0.0000 C   0  0  0  0  0  0  0  2  0  0  0  0
   -1.4289   -2.4750    0.0000 C   0  0  0  0  0  0  0  2  0  0  0  0
   -0.7145   -2.0625    0.0000 C   0  0  0  0  0  0  0  2  0  0  0  0
    0.0000   -2.4750    0.0000 S   0  0  0  0  0  0  0  2  0  0  0  0
    0.7145   -2.0625    0.0000 C   0  0  0  0  0  0  0  2  0  0  0  0
    1.4289   -2.4750    0.0000 C   0  0  0  0  0  0  0  2  0  0  0  0
    2.1434   -2.0625    0.0000 C   0  0  0  0  0  0  0  2  0  0  0  0
    2.1434   -1.2375    0.0000 C   0  0  0  0  0  0  0  2  0  0  0  0
    1.4289   -0.8250    0.0000 C   0  0  0  0  0  0  0  2  0  0  0  0
    0.7145   -1.2375    0.0000 C   0  0  0  0  0  0  0  2  0  0  0  0
    0.0000   -0.8250    0.0000 N   0  0  0  0  0  0  0  2  0  0  0  0
    0.0000    0.0000    0.0000 C   0  0  0  0  0  0  0  2  0  0  0  0
    0.7145    0.4125    0.0000 C   0  0  0  0  0  0  0  2  0  0  0  0
    0.7145    1.2375    0.0000 C   0  0  0  0  0  0  0  2  0  0  0  0
    1.4289    1.6500    0.0000 N   0  0  0  0  0  0  0  2  0  0  0  0
    1.4289    2.4750    0.0000 C   0  0  0  0  0  0  0  2  0  0  0  0
    2.1434    1.2375    0.0000 C   0  0  0  0  0  0  0  2  0  0  0  0
   -0.7145   -1.2375    0.0000 C   0  0  0  0  0  0  0  2  0  0  0  0
   -1.4289   -0.8250    0.0000 C   0  0  0  0  0  0  0  2  0  0  0  0
  1  2  4  0        0
  2  3  4  0        0
  3  4  4  0        0
  4  5  1  0        0
  5  6  1  0        0
  6  7  4  0        0
  7  8  4  0        0
  8  9  4  0        0
  9 10  4  0        0
 10 11  4  0        0
  6 11  4  0        0
 11 12  1  0        0
 12 13  1  0        0
 13 14  1  0        0
 14 15  1  0        0
 15 16  1  0        0
 16 17  1  0        0
 16 18  1  0        0
 12 19  1  0        0
  4 19  4  0        0
 19 20  4  0        0
  1 20  4  0        0
M  END
$$$$

CDXL12

 13 14  0  0  0  0  0  0  0  0999 V2000
   -1.7065    0.8250    0.0000 C   0  0  0  0  0  0  0  2  0  0  0  0
   -0.9920    0.4125    0.0000 N   0  0  0  0  0  0  0  2  0  0  0  0
   -0.9920   -0.4125    0.0000 C   0  0  0  0  0  0  0  2  0  0  0  0
   -1.7065   -0.8250    0.0000 O   0  0  0  0  0  0  0  2  0  0  0  0
   -0.2775   -0.8250    0.0000 N   0  0  0  0  0  0  0  2  0  0  0  0
   -0.2775   -1.6500    0.0000 C   0  0  0  0  0  0  0  2  0  0  0  0
    0.4369   -0.4125    0.0000 C   0  0  0  0  0  0  0  2  0  0  0  0
    1.2216   -0.6674    0.0000 N   0  0  0  0  0  0  0  2  0  0  0  0
    1.7065   -0.0000    0.0000 C   0  0  0  0  0  0  0  2  0  0  0  0
    1.2216    0.6674    0.0000 N   0  0  0  0  0  0  0  2  0  0  0  0
    0.4369    0.4125    0.0000 C   0  0  0  0  0  0  0  2  0  0  0  0
   -0.2775    0.8250    0.0000 C   0  0  0  0  0  0  0  2  0  0  0  0
   -0.2775    1.6500    0.0000 O   0  0  0  0  0  0  0  2  0  0  0  0
  1  2  1  0        0
  2  3  1  0        0
  3  4  2  0        0
  3  5  1  0        0
  5  6  1  0        0
  5  7  1  0        0
  7  8  4  0        0
  8  9  4  0        0
  9 10  4  0        0
 10 11  4  0        0
  7 11  4  0        0
 11 12  1  0        0
  2 12  1  0        0
 12 13  2  0        0
M  END
$$$$

CDXL12

 14 14  0  0  0  0  0  0  0  0999 V2000
   -1.8414   -0.6740    0.0000 Cl  0  0  0  0  0  0  0  2  0  0  0  0
   -1.0164   -0.6740    0.0000 N   0  0  0  0  0  0  0  2  0  0  0  0
   -1.4289   -1.3885    0.0000 H   0  0  0  0  0  0  0  2  0  0  0  0
   -0.3020   -1.0865    0.0000 C   0  0  0  0  0  0  0  2  0  0  0  0
    0.4125   -0.6740    0.0000 C   0  0  0  0  0  0  0  2  0  0  0  0
    1.1270   -1.0865    0.0000 C   0  0  0  0  0  0  0  2  0  0  0  0
    1.8414   -0.6740    0.0000 O   0  0  0  0  0  0  0  2  0  0  0  0
    0.4125    0.1510    0.0000 C   0  0  0  0  0  0  0  2  0  0  0  0
    1.1270    0.5635    0.0000 C   0  0  0  0  0  0  0  2  0  0  0  0
    1.8414    0.1510    0.0000 O   0  0  0  0  0  0  0  2  0  0  0  0
   -0.3020    0.5635    0.0000 C   0  0  0  0  0  0  0  2  0  0  0  0
   -0.3020    1.3885    0.0000 O   0  0  0  0  0  0  0  2  0  0  0  0
   -1.0164    0.1510    0.0000 C   0  0  0  0  0  0  0  2  0  0  0  0
   -1.7309    0.5635    0.0000 C   0  0  0  0  0  0  0  2  0  0  0  0
  1  2  1  0        0
  2  3  1  0        0
  2  4  1  0        0
  4  5  1  0        0
  5  6  1  0        0
  6  7  1  0        0
  5  8  1  0        0
  8  9  1  0        0
  9 10  1  0        0
  8 11  1  0        0
 11 12  1  0        0
 11 13  1  0        0
  2 13  1  0        0
 13 14  1  0        0
M  END
$$$$

CDXL12

 17 18  0  0  0  0  0  0  0  0999 V2000
   -1.0164    1.1822    0.0000 O   0  0  0  0  0  0  0  2  0  0  0  0
   -1.4289    0.4678    0.0000 S   0  0  0  0  0  0  0  2  0  0  0  0
   -1.8414   -0.2467    0.0000 O   0  0  0  0  0  0  0  2  0  0  0  0
   -2.1434    0.8803    0.0000 N   0  0  0  0  0  0  0  2  0  0  0  0
   -0.7145    0.0553    0.0000 C   0  0  0  0  0  0  0  2  0  0  0  0
   -0.7145   -0.7697    0.0000 C   0  0  0  0  0  0  0  2  0  0  0  0
    0.0000   -1.1822    0.0000 C   0  0  0  0  0  0  0  2  0  0  0  0
    0.7145   -0.7697    0.0000 C   0  0  0  0  0  0  0  2  0  0  0  0
    1.4289   -1.1822    0.0000 N   0  0  0  0  0  0  0  2  0  0  0  0
    2.1434   -0.7697    0.0000 C   0  0  0  0  0  0  0  2  0  0  0  0
    2.1434    0.0553    0.0000 N   0  0  0  0  0  0  0  2  0  0  0  0
    1.4289    0.4678    0.0000 S   0  0  0  0  0  0  0  2  0  0  0  0
    1.8414    1.1822    0.0000 O   0  0  0  0  0  0  0  2  0  0  0  0
    1.0164    1.1822    0.0000 O   0  0  0  0  0  0  0  2  0  0  0  0
    0.7145    0.0553    0.0000 C   0  0  0  0  0  0  0  2  0  0  0  0
    0.0000    0.4678    0.0000 C   0  0  0  0  0  0  0  2  0  0  0  0
   -1.4289   -1.1822    0.0000 Cl  0  0  0  0  0  0  0  2  0  0  0  0
  1  2  2  0        0
  2  3  2  0        0
  2  4  1  0        0
  2  5  1  0        0
  5  6  4  0        0
  6  7  4  0        0
  7  8  4  0        0
  8  9  1  0        0
  9 10  1  0        0
 10 11  1  0        0
 11 12  1  0        0
 12 13  2  0        0
 12 14  2  0        0
 12 15  1  0        0
  8 15  4  0        0
 15 16  4  0        0
  5 16  4  0        0
  6 17  1  0        0
M  END
$$$$

CDXL12

 17 18  0  0  0  0  0  0  0  0999 V2000
   -2.1434    0.8803    0.0000 N   0  0  0  0  0  0  0  2  0  0  0  0
   -1.4289    0.4678    0.0000 S   0  0  0  0  0  0  0  2  0  0  0  0
   -1.0164    1.1822    0.0000 O   0  0  0  0  0  0  0  2  0  0  0  0
   -1.8414   -0.2467    0.0000 O   0  0  0  0  0  0  0  2  0  0  0  0
   -0.7145    0.0553    0.0000 C   0  0  0  0  0  0  0  2  0  0  0  0
   -0.7145   -0.7697    0.0000 C   0  0  0  0  0  0  0  2  0  0  0  0
   -1.4289   -1.1822    0.0000 Cl  0  0  0  0  0  0  0  2  0  0  0  0
    0.0000   -1.1822    0.0000 C   0  0  0  0  0  0  0  2  0  0  0  0
    0.7145   -0.7697    0.0000 C   0  0  0  0  0  0  0  2  0  0  0  0
    1.4289   -1.1822    0.0000 N   0  0  0  0  0  0  0  2  0  0  0  0
    2.1434   -0.7697    0.0000 C   0  0  0  0  0  0  0  2  0  0  0  0
    2.1434    0.0553    0.0000 N   0  0  0  0  0  0  0  2  0  0  0  0
    1.4289    0.4678    0.0000 S   0  0  0  0  0  0  0  2  0  0  0  0
    1.8414    1.1822    0.0000 O   0  0  0  0  0  0  0  2  0  0  0  0
    1.0164    1.1822    0.0000 O   0  0  0  0  0  0  0  2  0  0  0  0
    0.7145    0.0553    0.0000 C   0  0  0  0  0  0  0  2  0  0  0  0
    0.0000    0.4678    0.0000 C   0  0  0  0  0  0  0  2  0  0  0  0
  1  2  1  0        0
  2  3  2  0        0
  2  4  2  0        0
  2  5  1  0        0
  5  6  4  0        0
  6  7  1  0        0
  6  8  4  0        0
  8  9  4  0        0
  9 10  1  0        0
 10 11  2  0        0
 11 12  1  0        0
 12 13  1  0        0
 13 14  2  0        0
 13 15  2  0        0
 13 16  1  0        0
  9 16  4  0        0
 16 17  4  0        0
  5 17  4  0        0
M  END
$$$$

CDXL12

 32 34  0  0  0  0  0  0  0  0999 V2000
   -6.0730   -2.0625    0.0000 N   0  0  0  0  0  0  0  2  0  0  0  0
   -5.3585   -1.6500    0.0000 C   0  0  0  0  0  0  0  2  0  0  0  0
   -5.3585   -0.8250    0.0000 N   0  0  0  0  0  0  0  2  0  0  0  0
   -4.6441   -0.4125    0.0000 C   0  0  0  0  0  0  0  2  0  0  0  0
   -4.6441    0.4125    0.0000 O   0  0  0  0  0  0  0  2  0  0  0  0
   -3.9296   -0.8250    0.0000 C   0  0  0  0  0  0  0  2  0  0  0  0
   -3.2151   -0.4125    0.0000 N   0  0  0  0  0  0  0  2  0  0  0  0
   -2.5006   -0.8250    0.0000 C   0  0  0  0  0  0  0  2  0  0  0  0
   -1.7862   -0.4125    0.0000 C   0  0  0  0  0  0  0  2  0  0  0  0
   -1.0717   -0.8250    0.0000 N   0  0  0  0  0  0  0  2  0  0  0  0
   -0.3572   -0.4125    0.0000 C   0  0  0  0  0  0  0  2  0  0  0  0
    0.3572   -0.8250    0.0000 C   0  0  0  0  0  0  0  2  0  0  0  0
    1.0717   -0.4125    0.0000 C   0  0  0  0  0  0  0  2  0  0  0  0
    1.0717    0.4125    0.0000 C   0  0  0  0  0  0  0  2  0  0  0  0
    1.7862    0.8250    0.0000 C   0  0  0  0  0  0  0  2  0  0  0  0
    1.7862    1.6500    0.0000 O   0  0  0  0  0  0  0  2  0  0  0  0
    2.5006    0.4125    0.0000 N   0  0  0  0  0  0  0  2  0  0  0  0
    3.2151    0.8250    0.0000 C   0  0  0  0  0  0  0  2  0  0  0  0
    3.2151    1.6500    0.0000 C   0  0  0  0  0  0  0  2  0  0  0  0
    2.5006    2.0625    0.0000 O   0  0  0  0  0  0  0  2  0  0  0  0
    3.9296    2.0625    0.0000 O   0  0  0  0  0  0  0  2  0  0  0  0
    3.9296    0.4125    0.0000 C   0  0  0  0  0  0  0  2  0  0  0  0
    4.6441    0.8250    0.0000 C   0  0  0  0  0  0  0  2  0  0  0  0
    5.3585    0.4125    0.0000 C   0  0  0  0  0  0  0  2  0  0  0  0
    5.3585   -0.4125    0.0000 O   0  0  0  0  0  0  0  2  0  0  0  0
    6.0730    0.8250    0.0000 O   0  0  0  0  0  0  0  2  0  0  0  0
    0.3572    0.8250    0.0000 C   0  0  0  0  0  0  0  2  0  0  0  0
   -0.3572    0.4125    0.0000 C   0  0  0  0  0  0  0  2  0  0  0  0
   -2.5006   -1.6500    0.0000 C   0  0  0  0  0  0  0  2  0  0  0  0
   -3.2151   -2.0625    0.0000 N   0  0  0  0  0  0  0  2  0  0  0  0
   -3.9296   -1.6500    0.0000 C   0  0  0  0  0  0  0  2  0  0  0  0
   -4.6441   -2.0625    0.0000 N   0  0  0  0  0  0  0  2  0  0  0  0
  1  2  1  0        0
  2  3  2  0        0
  3  4  1  0        0
  4  5  2  0        0
  4  6  1  0        0
  6  7  4  0        0
  7  8  4  0        0
  8  9  1  0        0
  9 10  1  0        0
 10 11  1  0        0
 11 12  4  0        0
 12 13  4  0        0
 13 14  4  0        0
 14 15  1  0        0
 15 16  2  0        0
 15 17  1  0        0
 17 18  1  0        0
 18 19  1  0        0
 19 20  2  0        0
 19 21  1  0        0
 18 22  1  0        0
 22 23  1  0        0
 23 24  1  0        0
 24 25  2  0        0
 24 26  1  0        0
 14 27  4  0        0
 27 28  4  0        0
 11 28  4  0        0
  8 29  4  0        0
 29 30  4  0        0
 30 31  4  0        0
  6 31  4  0        0
 31 32  1  0        0
  2 32  1  0        0
M  END
$$$$

CDXL12

 11 12  0  0  0  0  0  0  0  0999 V2000
   -1.7862    0.4125    0.0000 C   0  0  0  0  0  0  0  2  0  0  0  0
   -1.7862   -0.4125    0.0000 C   0  0  0  0  0  0  0  2  0  0  0  0
   -1.0717   -0.8250    0.0000 C   0  0  0  0  0  0  0  2  0  0  0  0
   -0.3572   -0.4125    0.0000 C   0  0  0  0  0  0  0  2  0  0  0  0
    0.3572   -0.8250    0.0000 C   0  0  0  0  0  0  0  2  0  0  0  0
    1.0717   -0.4125    0.0000 C   0  0  0  0  0  0  0  2  0  0  0  0
    1.0717    0.4125    0.0000 C   0  0  0  0  0  0  0  2  0  0  0  0
    1.7862    0.8250    0.0000 O   0  0  0  0  0  0  0  2  0  0  0  0
    0.3572    0.8250    0.0000 N   0  0  0  0  0  0  0  2  0  0  0  0
   -0.3572    0.4125    0.0000 C   0  0  0  0  0  0  0  2  0  0  0  0
   -1.0717    0.8250    0.0000 C   0  0  0  0  0  0  0  2  0  0  0  0
  1  2  4  0        0
  2  3  4  0        0
  3  4  4  0        0
  4  5  1  0        0
  5  6  2  0        0
  6  7  1  0        0
  7  8  2  0        0
  7  9  1  0        0
  9 10  1  0        0
  4 10  4  0        0
 10 11  4  0        0
  1 11  4  0        0
M  END
$$$$

CDXL12

 17 17  0  0  0  0  0  0  0  0999 V2000
   -0.7145    1.0313    0.0000 O   0  0  0  0  0  0  0  2  0  0  0  0
   -0.7145    0.2062    0.0000 C   0  0  0  0  0  0  0  2  0  0  0  0
    0.0000   -0.2062    0.0000 O   0  0  0  0  0  0  0  2  0  0  0  0
    0.7145    0.2062    0.0000 C   0  0  0  0  0  0  0  2  0  0  0  0
    1.4289   -0.2062    0.0000 C   0  0  0  0  0  0  0  2  0  0  0  0
    2.1434    0.2062    0.0000 N   0  0  0  0  0  0  0  2  0  0  0  0
    2.8579   -0.2062    0.0000 C   0  0  0  0  0  0  0  2  0  0  0  0
    3.5724    0.2062    0.0000 C   0  0  0  0  0  0  0  2  0  0  0  0
    2.1434    1.0313    0.0000 C   0  0  0  0  0  0  0  2  0  0  0  0
    2.8579    1.4438    0.0000 C   0  0  0  0  0  0  0  2  0  0  0  0
   -1.4289   -0.2062    0.0000 C   0  0  0  0  0  0  0  2  0  0  0  0
   -1.4289   -1.0312    0.0000 C   0  0  0  0  0  0  0  2  0  0  0  0
   -2.1434   -1.4438    0.0000 C   0  0  0  0  0  0  0  2  0  0  0  0
   -2.8579   -1.0313    0.0000 C   0  0  0  0  0  0  0  2  0  0  0  0
   -3.5724   -1.4437    0.0000 N   0  0  0  0  0  0  0  2  0  0  0  0
   -2.8579   -0.2062    0.0000 C   0  0  0  0  0  0  0  2  0  0  0  0
   -2.1434    0.2062    0.0000 C   0  0  0  0  0  0  0  2  0  0  0  0
  1  2  2  0        0
  2  3  1  0        0
  3  4  1  0        0
  4  5  1  0        0
  5  6  1  0        0
  6  7  1  0        0
  7  8  1  0        0
  6  9  1  0        0
  9 10  1  0        0
  2 11  1  0        0
 11 12  4  0        0
 12 13  4  0        0
 13 14  4  0        0
 14 15  1  0        0
 14 16  4  0        0
 16 17  4  0        0
 11 17  4  0        0
M  END
$$$$

CDXL12

  9  9  0  0  0  0  0  0  0  0999 V2000
   -1.4289   -0.8250    0.0000 O   0  0  0  0  0  0  0  2  0  0  0  0
   -0.7145   -0.4125    0.0000 C   0  0  0  0  0  0  0  2  0  0  0  0
   -0.7145    0.4125    0.0000 C   0  0  0  0  0  0  0  2  0  0  0  0
    0.0000    0.8250    0.0000 C   0  0  0  0  0  0  0  2  0  0  0  0
    0.7145    0.4125    0.0000 C   0  0  0  0  0  0  0  2  0  0  0  0
    0.7145   -0.4125    0.0000 C   0  0  0  0  0  0  0  2  0  0  0  0
    1.4289   -0.8250    0.0000 C   0  0  0  0  0  0  0  2  0  0  0  0
    0.0000   -0.8250    0.0000 C   0  0  0  0  0  0  0  2  0  0  0  0
    1.4289    0.8250    0.0000 Cl  0  0  0  0  0  0  0  2  0  0  0  0
  1  2  1  0        0
  2  3  4  0        0
  3  4  4  0        0
  4  5  4  0        0
  5  6  4  0        0
  6  7  1  0        0
  6  8  4  0        0
  2  8  4  0        0
  5  9  1  0        0
M  END
$$$$

CDXL12

 13 13  0  0  0  0  0  0  0  0999 V2000
   -2.5450   -0.6038    0.0000 C   0  0  0  0  0  0  0  2  0  0  0  0
   -1.8306   -0.1913    0.0000 C   0  0  0  0  0  0  0  2  0  0  0  0
   -1.8306    0.6337    0.0000 O   0  0  0  0  0  0  0  2  0  0  0  0
   -1.1161   -0.6038    0.0000 N   0  0  0  0  0  0  0  2  0  0  0  0
   -0.4016   -0.1913    0.0000 C   0  0  0  0  0  0  0  2  0  0  0  0
   -0.3154    0.6292    0.0000 N   0  0  0  0  0  0  0  2  0  0  0  0
    0.4916    0.8007    0.0000 N   0  0  0  0  0  0  0  2  0  0  0  0
    0.9041    0.0862    0.0000 C   0  0  0  0  0  0  0  2  0  0  0  0
    1.7246    0.0000    0.0000 S   0  0  0  0  0  0  0  2  0  0  0  0
    1.6383   -0.8205    0.0000 O   0  0  0  0  0  0  0  2  0  0  0  0
    1.8108    0.8205    0.0000 O   0  0  0  0  0  0  0  2  0  0  0  0
    2.5450   -0.0862    0.0000 N   0  0  0  0  0  0  0  2  0  0  0  0
    0.3520   -0.5269    0.0000 S   0  0  0  0  0  0  0  2  0  0  0  0
  1  2  1  0        0
  2  3  2  0        0
  2  4  1  0        0
  4  5  1  0        0
  5  6  4  0        0
  6  7  4  0        0
  7  8  4  0        0
  8  9  1  0        0
  9 10  2  0        0
  9 11  2  0        0
  9 12  1  0        0
  8 13  4  0        0
  5 13  4  0        0
M  END
$$$$

CDXL12

  9  9  0  0  0  0  0  0  0  0999 V2000
    0.7145    1.2375    0.0000 O   0  0  0  0  0  0  0  2  0  0  0  0
    0.7145    0.4125    0.0000 C   0  0  0  0  0  0  0  2  0  0  0  0
    1.4289   -0.0000    0.0000 O   0  0  0  0  0  0  0  2  0  0  0  0
    0.0000   -0.0000    0.0000 C   0  0  0  0  0  0  0  2  0  0  0  0
   -0.7145    0.4125    0.0000 C   0  0  0  0  0  0  0  2  0  0  0  0
   -1.4289   -0.0000    0.0000 C   0  0  0  0  0  0  0  2  0  0  0  0
   -1.4289   -0.8250    0.0000 C   0  0  0  0  0  0  0  2  0  0  0  0
   -0.7145   -1.2375    0.0000 N   0  0  0  0  0  0  0  2  0  0  0  0
    0.0000   -0.8250    0.0000 C   0  0  0  0  0  0  0  2  0  0  0  0
  1  2  2  0        0
  2  3  1  0        0
  2  4  1  0        0
  4  5  4  0        0
  5  6  4  0        0
  6  7  4  0        0
  7  8  4  0        0
  8  9  4  0        0
  4  9  4  0        0
M  END
$$$$

CDXL12

 14 14  0  0  0  0  0  0  0  0999 V2000
    1.7862    1.2375    0.0000 O   0  0  0  0  0  0  0  2  0  0  0  0
    1.7862    0.4125    0.0000 C   0  0  0  0  0  0  0  2  0  0  0  0
    2.5006   -0.0000    0.0000 O   0  0  0  0  0  0  0  2  0  0  0  0
    1.0717   -0.0000    0.0000 C   0  0  0  0  0  0  0  2  0  0  0  0
    1.0717   -0.8250    0.0000 N   0  0  0  0  0  0  0  2  0  0  0  0
    0.3572    0.4125    0.0000 C   0  0  0  0  0  0  0  2  0  0  0  0
   -0.3572   -0.0000    0.0000 C   0  0  0  0  0  0  0  2  0  0  0  0
   -0.3572   -0.8250    0.0000 C   0  0  0  0  0  0  0  2  0  0  0  0
   -1.0717   -1.2375    0.0000 C   0  0  0  0  0  0  0  2  0  0  0  0
   -1.7862   -0.8250    0.0000 C   0  0  0  0  0  0  0  2  0  0  0  0
   -2.5006   -1.2375    0.0000 O   0  0  0  0  0  0  0  2  0  0  0  0
   -1.7862   -0.0000    0.0000 C   0  0  0  0  0  0  0  2  0  0  0  0
   -2.5006    0.4125    0.0000 O   0  0  0  0  0  0  0  2  0  0  0  0
   -1.0717    0.4125    0.0000 C   0  0  0  0  0  0  0  2  0  0  0  0
  1  2  2  0        0
  2  3  1  0        0
  2  4  1  0        0
  4  5  1  0        0
  4  6  1  0        0
  6  7  1  0        0
  7  8  4  0        0
  8  9  4  0        0
  9 10  4  0        0
 10 11  1  0        0
 10 12  4  0        0
 12 13  1  0        0
 12 14  4  0        0
  7 14  4  0        0
M  END
$$$$

CDXL12

 21 20  0  0  0  0  0  0  0  0999 V2000
    2.1434   -1.6500    0.0000 O   0  0  0  0  0  0  0  2  0  0  0  0
    2.1434   -0.8250    0.0000 C   0  0  0  0  0  0  0  2  0  0  0  0
    1.4289   -0.4125    0.0000 O   0  0  0  0  0  0  0  2  0  0  0  0
    0.7145   -0.8250    0.0000 C   0  0  0  0  0  0  0  2  0  0  0  0
    0.0000   -0.4125    0.0000 C   0  0  0  0  0  0  0  2  0  0  0  0
    0.0000    0.4125    0.0000 O   0  0  0  0  0  0  0  2  0  0  0  0
   -0.7145    0.8250    0.0000 C   0  0  0  0  0  0  0  2  0  0  0  0
   -0.7145    1.6500    0.0000 O   0  0  0  0  0  0  0  2  0  0  0  0
   -1.4289    0.4125    0.0000 C   0  0  0  0  0  0  0  2  0  0  0  0
   -2.1434    0.8250    0.0000 C   0  0  0  0  0  0  0  2  0  0  0  0
   -2.8579    0.4125    0.0000 C   0  0  0  0  0  0  0  2  0  0  0  0
   -0.7145   -0.8250    0.0000 C   0  0  0  0  0  0  0  2  0  0  0  0
   -1.4289   -0.4125    0.0000 O   0  0  0  0  0  0  0  2  0  0  0  0
   -2.1434   -0.8250    0.0000 C   0  0  0  0  0  0  0  2  0  0  0  0
   -2.1434   -1.6500    0.0000 O   0  0  0  0  0  0  0  2  0  0  0  0
   -2.8579   -0.4125    0.0000 C   0  0  0  0  0  0  0  2  0  0  0  0
   -3.5724   -0.8250    0.0000 C   0  0  0  0  0  0  0  2  0  0  0  0
   -4.2868   -0.4125    0.0000 C   0  0  0  0  0  0  0  2  0  0  0  0
    2.8579   -0.4125    0.0000 C   0  0  0  0  0  0  0  2  0  0  0  0
    3.5724   -0.8250    0.0000 C   0  0  0  0  0  0  0  2  0  0  0  0
    4.2868   -0.4125    0.0000 C   0  0  0  0  0  0  0  2  0  0  0  0
  1  2  2  0        0
  2  3  1  0        0
  3  4  1  0        0
  4  5  1  0        0
  5  6  1  0        0
  6  7  1  0        0
  7  8  2  0        0
  7  9  1  0        0
  9 10  1  0        0
 10 11  1  0        0
  5 12  1  0        0
 12 13  1  0        0
 13 14  1  0        0
 14 15  2  0        0
 14 16  1  0        0
 16 17  1  0        0
 17 18  1  0        0
  2 19  1  0        0
 19 20  1  0        0
 20 21  1  0        0
M  END
$$$$

CDXL12

 15 16  0  0  0  0  0  0  0  0999 V2000
   -0.0000    0.2062    0.0000 N   0  0  0  0  0  0  0  2  0  0  0  0
    0.7145   -0.2063    0.0000 N   0  0  0  0  0  0  0  2  0  0  0  0
    1.4289    0.2062    0.0000 C   0  0  0  0  0  0  0  2  0  0  0  0
    1.4289    1.0312    0.0000 C   0  0  0  0  0  0  0  2  0  0  0  0
    2.1434    1.4437    0.0000 C   0  0  0  0  0  0  0  2  0  0  0  0
    2.8579    1.0312    0.0000 C   0  0  0  0  0  0  0  2  0  0  0  0
    2.8579    0.2062    0.0000 C   0  0  0  0  0  0  0  2  0  0  0  0
    2.1434   -0.2063    0.0000 C   0  0  0  0  0  0  0  2  0  0  0  0
   -0.7145   -0.2063    0.0000 C   0  0  0  0  0  0  0  2  0  0  0  0
   -0.7145   -1.0313    0.0000 C   0  0  0  0  0  0  0  2  0  0  0  0
   -1.4289   -1.4437    0.0000 C   0  0  0  0  0  0  0  2  0  0  0  0
   -2.1434   -1.0313    0.0000 C   0  0  0  0  0  0  0  2  0  0  0  0
   -2.8579   -1.4437    0.0000 N   0  0  0  0  0  0  0  2  0  0  0  0
   -2.1434   -0.2063    0.0000 C   0  0  0  0  0  0  0  2  0  0  0  0
   -1.4289    0.2062    0.0000 C   0  0  0  0  0  0  0  2  0  0  0  0
  1  2  2  0        0
  2  3  1  0        0
  3  4  4  0        0
  4  5  4  0        0
  5  6  4  0        0
  6  7  4  0        0
  7  8  4  0        0
  3  8  4  0        0
  1  9  1  0        0
  9 10  4  0        0
 10 11  4  0        0
 11 12  4  0        0
 12 13  1  0        0
 12 14  4  0        0
 14 15  4  0        0
  9 15  4  0        0
M  END
$$$$

CDXL12

  9  9  0  0  0  0  0  0  0  0999 V2000
    1.7862   -0.8250    0.0000 O   0  0  0  0  0  0  0  2  0  0  0  0
    1.0717   -0.4125    0.0000 C   0  0  0  0  0  0  0  2  0  0  0  0
    0.3572   -0.8250    0.0000 C   0  0  0  0  0  0  0  2  0  0  0  0
   -0.3572   -0.4125    0.0000 C   0  0  0  0  0  0  0  2  0  0  0  0
   -1.0717   -0.8250    0.0000 C   0  0  0  0  0  0  0  2  0  0  0  0
   -1.7862   -0.4125    0.0000 C   0  0  0  0  0  0  0  2  0  0  0  0
   -1.7862    0.4125    0.0000 C   0  0  0  0  0  0  0  2  0  0  0  0
   -1.0717    0.8250    0.0000 C   0  0  0  0  0  0  0  2  0  0  0  0
   -0.3572    0.4125    0.0000 C   0  0  0  0  0  0  0  2  0  0  0  0
  1  2  1  0        0
  2  3  1  0        0
  3  4  1  0        0
  4  5  4  0        0
  5  6  4  0        0
  6  7  4  0        0
  7  8  4  0        0
  8  9  4  0        0
  4  9  4  0        0
M  END
$$$$

CDXL12

 13 13  0  0  0  0  0  0  0  0999 V2000
    1.7862    1.2375    0.0000 O   0  0  0  0  0  0  0  2  0  0  0  0
    1.7862    0.4125    0.0000 C   0  0  0  0  0  0  0  2  0  0  0  0
    2.5006   -0.0000    0.0000 O   0  0  0  0  0  0  0  2  0  0  0  0
    1.0717   -0.0000    0.0000 C   0  0  0  0  0  0  0  2  0  0  0  0
    1.0717   -0.8250    0.0000 N   0  0  0  0  0  0  0  2  0  0  0  0
    0.3572    0.4125    0.0000 C   0  0  0  0  0  0  0  2  0  0  0  0
   -0.3572   -0.0000    0.0000 C   0  0  0  0  0  0  0  2  0  0  0  0
   -0.3572   -0.8250    0.0000 C   0  0  0  0  0  0  0  2  0  0  0  0
   -1.0717   -1.2375    0.0000 C   0  0  0  0  0  0  0  2  0  0  0  0
   -1.7862   -0.8250    0.0000 C   0  0  0  0  0  0  0  2  0  0  0  0
   -2.5006   -1.2375    0.0000 O   0  0  0  0  0  0  0  2  0  0  0  0
   -1.7862   -0.0000    0.0000 C   0  0  0  0  0  0  0  2  0  0  0  0
   -1.0717    0.4125    0.0000 C   0  0  0  0  0  0  0  2  0  0  0  0
  1  2  2  0        0
  2  3  1  0        0
  2  4  1  0        0
  4  5  1  0        0
  4  6  1  0        0
  6  7  1  0        0
  7  8  4  0        0
  8  9  4  0        0
  9 10  4  0        0
 10 11  1  0        0
 10 12  4  0        0
 12 13  4  0        0
  7 13  4  0        0
M  END
$$$$

CDXL12

  8  8  0  0  0  0  0  0  0  0999 V2000
   -1.3810    0.0000    0.0000 O   0  0  0  0  0  0  0  2  0  0  0  0
   -0.5560    0.0000    0.0000 C   0  0  0  0  0  0  0  2  0  0  0  0
   -0.0711    0.6674    0.0000 N   0  0  0  0  0  0  0  2  0  0  0  0
    0.7136    0.4125    0.0000 C   0  0  0  0  0  0  0  2  0  0  0  0
    1.3810    0.8974    0.0000 N   0  0  0  0  0  0  0  2  0  0  0  0
    0.7136   -0.4125    0.0000 N   0  0  0  0  0  0  0  2  0  0  0  0
    1.3810   -0.8974    0.0000 C   0  0  0  0  0  0  0  2  0  0  0  0
   -0.0711   -0.6674    0.0000 C   0  0  0  0  0  0  0  2  0  0  0  0
  1  2  2  0        0
  2  3  1  0        0
  3  4  1  0        0
  4  5  2  0        0
  4  6  1  0        0
  6  7  1  0        0
  6  8  1  0        0
  2  8  1  0        0
M  END
$$$$

CDXL12

  5  4  0  0  0  0  0  0  0  0999 V2000
    0.0000   -0.2062    0.0000 O   0  0  0  0  0  0  0  2  0  0  0  0
   -0.7145    0.2062    0.0000 C   0  0  0  0  0  0  0  2  0  0  0  0
   -1.4289   -0.2062    0.0000 C   0  0  0  0  0  0  0  2  0  0  0  0
    0.7145    0.2062    0.0000 C   0  0  0  0  0  0  0  2  0  0  0  0
    1.4289   -0.2062    0.0000 C   0  0  0  0  0  0  0  2  0  0  0  0
  1  2  1  0        0
  2  3  1  0        0
  1  4  1  0        0
  4  5  1  0        0
M  END
$$$$

CDXL12

  9  8  0  0  0  0  0  0  0  0999 V2000
    1.7862    0.6187    0.0000 O   0  0  0  0  0  0  0  2  0  0  0  0
    1.7862   -0.2062    0.0000 C   0  0  0  0  0  0  0  2  0  0  0  0
    2.5006   -0.6187    0.0000 O   0  0  0  0  0  0  0  2  0  0  0  0
    1.0717   -0.6187    0.0000 C   0  0  0  0  0  0  0  2  0  0  0  0
    0.3572   -0.2062    0.0000 C   0  0  0  0  0  0  0  2  0  0  0  0
   -0.3572   -0.6187    0.0000 C   0  0  0  0  0  0  0  2  0  0  0  0
   -1.0717   -0.2062    0.0000 C   0  0  0  0  0  0  0  2  0  0  0  0
   -1.7862   -0.6187    0.0000 C   0  0  0  0  0  0  0  2  0  0  0  0
   -2.5006   -0.2062    0.0000 N   0  0  0  0  0  0  0  2  0  0  0  0
  1  2  2  0        0
  2  3  1  0        0
  2  4  1  0        0
  4  5  1  0        0
  5  6  1  0        0
  6  7  1  0        0
  7  8  1  0        0
  8  9  1  0        0
M  END
$$$$

CDXL12

 12 11  0  0  0  0  0  0  0  0999 V2000
    1.0717   -1.0312    0.0000 O   0  0  0  0  0  0  0  2  0  0  0  0
    1.0717   -0.2062    0.0000 C   0  0  0  0  0  0  0  2  0  0  0  0
    1.7862    0.2062    0.0000 N   0  0  0  0  0  0  0  2  0  0  0  0
    2.5006   -0.2062    0.0000 C   0  0  0  0  0  0  0  2  0  0  0  0
    0.3572    0.2062    0.0000 C   0  0  0  0  0  0  0  2  0  0  0  0
   -0.3572   -0.2062    0.0000 S   0  0  0  0  0  0  0  2  0  0  0  0
   -1.0717    0.2063    0.0000 P   0  0  0  0  0  0  0  2  0  0  0  0
   -1.7862   -0.2062    0.0000 O   0  0  0  0  0  0  0  2  0  0  0  0
   -2.5006    0.2062    0.0000 C   0  0  0  0  0  0  0  2  0  0  0  0
   -1.0717   -0.6187    0.0000 O   0  0  0  0  0  0  0  2  0  0  0  0
   -1.7862   -1.0312    0.0000 C   0  0  0  0  0  0  0  2  0  0  0  0
   -1.0717    1.0312    0.0000 S   0  0  0  0  0  0  0  2  0  0  0  0
  1  2  2  0        0
  2  3  1  0        0
  3  4  1  0        0
  2  5  1  0        0
  5  6  1  0        0
  6  7  1  0        0
  7  8  1  0        0
  8  9  1  0        0
  7 10  1  0        0
 10 11  1  0        0
  7 12  2  0        0
M  END
$$$$

CDXL12

 32 35  0  0  0  0  0  0  0  0999 V2000
    0.7145   -1.8562    0.0000 C   0  0  0  0  0  0  0  2  0  0  0  0
    1.4289   -1.4437    0.0000 N   0  0  0  0  0  0  0  2  0  0  0  0
    2.1434   -1.8562    0.0000 C   0  0  0  0  0  0  0  2  0  0  0  0
    1.4289   -0.6187    0.0000 C   0  0  0  0  0  0  0  2  0  0  0  0
    0.7145   -0.2062    0.0000 C   0  0  0  0  0  0  0  2  0  0  0  0
   -0.0000   -0.6188    0.0000 C   0  0  0  0  0  0  0  2  0  0  0  0
   -0.7145   -0.2063    0.0000 C   0  0  0  0  0  0  0  2  0  0  0  0
   -0.7145    0.6187    0.0000 C   0  0  0  0  0  0  0  2  0  0  0  0
   -0.0000    1.0312    0.0000 C   0  0  0  0  0  0  0  2  0  0  0  0
   -0.0000    1.8562    0.0000 O   0  0  0  0  0  0  0  2  0  0  0  0
    0.7145    0.6187    0.0000 C   0  0  0  0  0  0  0  2  0  0  0  0
    0.7145    1.4437    0.0000 O   0  0  0  0  0  0  0  2  0  0  0  0
    1.4289    1.0312    0.0000 C   0  0  0  0  0  0  0  2  0  0  0  0
    1.4289    1.8562    0.0000 O   0  0  0  0  0  0  0  2  0  0  0  0
    2.1434    0.6187    0.0000 C   0  0  0  0  0  0  0  2  0  0  0  0
    2.1434   -0.2062    0.0000 C   0  0  0  0  0  0  0  2  0  0  0  0
    2.8579   -0.6187    0.0000 O   0  0  0  0  0  0  0  2  0  0  0  0
    2.8579    1.0312    0.0000 C   0  0  0  0  0  0  0  2  0  0  0  0
    3.5724    0.6187    0.0000 N   0  0  0  0  0  0  0  2  0  0  0  0
    2.8579    1.8562    0.0000 O   0  0  0  0  0  0  0  2  0  0  0  0
   -1.4289    1.0312    0.0000 C   0  0  0  0  0  0  0  2  0  0  0  0
   -1.4289    1.8562    0.0000 O   0  0  0  0  0  0  0  2  0  0  0  0
   -2.1434    0.6187    0.0000 C   0  0  0  0  0  0  0  2  0  0  0  0
   -2.8579    1.0312    0.0000 C   0  0  0  0  0  0  0  2  0  0  0  0
   -2.8579    1.8562    0.0000 O   0  0  0  0  0  0  0  2  0  0  0  0
   -3.5724    0.6187    0.0000 C   0  0  0  0  0  0  0  2  0  0  0  0
   -3.5724   -0.2062    0.0000 C   0  0  0  0  0  0  0  2  0  0  0  0
   -2.8579   -0.6187    0.0000 C   0  0  0  0  0  0  0  2  0  0  0  0
   -2.1434   -0.2062    0.0000 C   0  0  0  0  0  0  0  2  0  0  0  0
   -1.4289   -0.6188    0.0000 C   0  0  0  0  0  0  0  2  0  0  0  0
   -1.8414   -1.3332    0.0000 C   0  0  0  0  0  0  0  2  0  0  0  0
   -1.0164   -1.3332    0.0000 O   0  0  0  0  0  0  0  2  0  0  0  0
  1  2  1  0        0
  2  3  1  0        0
  2  4  1  0        0
  4  5  1  0        0
  5  6  1  0        0
  6  7  1  0        0
  7  8  1  0        0
  8  9  2  0        0
  9 10  1  0        0
  9 11  1  0        0
  5 11  1  0        0
 11 12  1  0        0
 11 13  1  0        0
 13 14  2  0        0
 13 15  1  0        0
 15 16  2  0        0
  4 16  1  0        0
 16 17  1  0        0
 15 18  1  0        0
 18 19  1  0        0
 18 20  2  0        0
  8 21  1  0        0
 21 22  2  0        0
 21 23  1  0        0
 23 24  4  0        0
 24 25  1  0        0
 24 26  4  0        0
 26 27  4  0        0
 27 28  4  0        0
 28 29  4  0        0
 23 29  4  0        0
 29 30  1  0        0
  7 30  1  0        0
 30 31  1  0        0
 30 32  1  0        0
M  END
$$$$

CDXL12

 19 23  0  0  0  0  0  0  0  0999 V2000
   -2.1434   -0.8250    0.0000 Cl  0  0  0  0  0  0  0  2  0  0  0  0
   -1.4289   -0.4125    0.0000 C   0  0  0  0  0  0  0  2  0  0  0  0
   -1.4289    0.4125    0.0000 C   0  0  0  0  0  0  0  2  0  0  0  0
   -2.1434    0.8250    0.0000 Cl  0  0  0  0  0  0  0  2  0  0  0  0
   -0.7145    0.8250    0.0000 C   0  0  0  0  0  0  0  2  0  0  0  0
   -0.7145    1.6500    0.0000 Cl  0  0  0  0  0  0  0  2  0  0  0  0
    0.0000    0.4125    0.0000 C   0  0  0  0  0  0  0  2  0  0  0  0
    0.7145    0.8250    0.0000 C   0  0  0  0  0  0  0  2  0  0  0  0
    1.2098   -0.0000    0.0000 C   0  0  0  0  0  0  0  2  0  0  0  0
    0.7145   -0.8250    0.0000 C   0  0  0  0  0  0  0  2  0  0  0  0
    1.4289   -0.4125    0.0000 C   0  0  0  0  0  0  0  2  0  0  0  0
    2.1434   -0.0000    0.0000 O   0  0  0  0  0  0  0  2  0  0  0  0
    1.4289    0.4125    0.0000 C   0  0  0  0  0  0  0  2  0  0  0  0
    0.0000   -0.4125    0.0000 C   0  0  0  0  0  0  0  2  0  0  0  0
   -0.7145   -0.8250    0.0000 C   0  0  0  0  0  0  0  2  0  0  0  0
   -0.7145   -1.6500    0.0000 Cl  0  0  0  0  0  0  0  2  0  0  0  0
   -1.0510   -0.0000    0.0000 C   0  0  0  0  0  0  0  2  0  0  0  0
   -1.7655    0.4125    0.0000 Cl  0  0  0  0  0  0  0  2  0  0  0  0
   -1.7655   -0.4125    0.0000 Cl  0  0  0  0  0  0  0  2  0  0  0  0
  1  2  1  0        0
  2  3  2  0        0
  3  4  1  0        0
  3  5  1  0        0
  5  6  1  0        0
  5  7  1  0        0
  7  8  1  0        0
  8  9  1  0        0
  9 10  1  0        0
 10 11  1  0        0
 11 12  1  0        0
 12 13  1  0        0
  8 13  1  0        0
 11 13  1  0        0
 10 14  1  0        0
  7 14  1  0        0
 14 15  1  0        0
  2 15  1  0        0
 15 16  1  0        0
 15 17  1  0        0
  5 17  1  0        0
 17 18  1  0        0
 17 19  1  0        0
M  END
$$$$

CDXL12

 20 22  0  0  0  0  0  0  0  0999 V2000
   -2.1434   -0.8250    0.0000 C   0  0  0  0  0  0  0  2  0  0  0  0
   -2.1434   -1.6500    0.0000 C   0  0  0  0  0  0  0  2  0  0  0  0
   -1.4289   -2.0625    0.0000 C   0  0  0  0  0  0  0  2  0  0  0  0
   -0.7145   -1.6500    0.0000 C   0  0  0  0  0  0  0  2  0  0  0  0
    0.0000   -2.0625    0.0000 S   0  0  0  0  0  0  0  2  0  0  0  0
    0.7145   -1.6500    0.0000 C   0  0  0  0  0  0  0  2  0  0  0  0
    1.4289   -2.0625    0.0000 C   0  0  0  0  0  0  0  2  0  0  0  0
    2.1434   -1.6500    0.0000 C   0  0  0  0  0  0  0  2  0  0  0  0
    2.1434   -0.8250    0.0000 C   0  0  0  0  0  0  0  2  0  0  0  0
    1.4289   -0.4125    0.0000 C   0  0  0  0  0  0  0  2  0  0  0  0
    0.7145   -0.8250    0.0000 C   0  0  0  0  0  0  0  2  0  0  0  0
    0.0000   -0.4125    0.0000 N   0  0  0  0  0  0  0  2  0  0  0  0
    0.0000    0.4125    0.0000 C   0  0  0  0  0  0  0  2  0  0  0  0
    0.7145    0.8250    0.0000 C   0  0  0  0  0  0  0  2  0  0  0  0
    1.4289    0.4125    0.0000 C   0  0  0  0  0  0  0  2  0  0  0  0
    0.7145    1.6500    0.0000 N   0  0  0  0  0  0  0  2  0  0  0  0
    0.0000    2.0625    0.0000 C   0  0  0  0  0  0  0  2  0  0  0  0
    1.4289    2.0625    0.0000 C   0  0  0  0  0  0  0  2  0  0  0  0
   -0.7145   -0.8250    0.0000 C   0  0  0  0  0  0  0  2  0  0  0  0
   -1.4289   -0.4125    0.0000 C   0  0  0  0  0  0  0  2  0  0  0  0
  1  2  4  0        0
  2  3  4  0        0
  3  4  4  0        0
  4  5  1  0        0
  5  6  1  0        0
  6  7  4  0        0
  7  8  4  0        0
  8  9  4  0        0
  9 10  4  0        0
 10 11  4  0        0
  6 11  4  0        0
 11 12  1  0        0
 12 13  1  0        0
 13 14  1  0        0
 14 15  1  0        0
 14 16  1  0        0
 16 17  1  0        0
 16 18  1  0        0
 12 19  1  0        0
  4 19  4  0        0
 19 20  4  0        0
  1 20  4  0        0
M  END
$$$$

CDXL12

 23 25  0  0  0  0  0  0  0  0999 V2000
   -2.8579   -1.2375    0.0000 C   0  0  0  0  0  0  0  2  0  0  0  0
   -2.8579   -2.0625    0.0000 C   0  0  0  0  0  0  0  2  0  0  0  0
   -2.1434   -2.4750    0.0000 C   0  0  0  0  0  0  0  2  0  0  0  0
   -1.4289   -2.0625    0.0000 C   0  0  0  0  0  0  0  2  0  0  0  0
   -0.7145   -2.4750    0.0000 S   0  0  0  0  0  0  0  2  0  0  0  0
   -0.0000   -2.0625    0.0000 C   0  0  0  0  0  0  0  2  0  0  0  0
    0.7145   -2.4750    0.0000 C   0  0  0  0  0  0  0  2  0  0  0  0
    1.4289   -2.0625    0.0000 C   0  0  0  0  0  0  0  2  0  0  0  0
    1.4289   -1.2375    0.0000 C   0  0  0  0  0  0  0  2  0  0  0  0
    2.1434   -0.8250    0.0000 O   0  0  0  0  0  0  0  2  0  0  0  0
    2.8579   -1.2375    0.0000 C   0  0  0  0  0  0  0  2  0  0  0  0
    0.7145   -0.8250    0.0000 C   0  0  0  0  0  0  0  2  0  0  0  0
   -0.0000   -1.2375    0.0000 C   0  0  0  0  0  0  0  2  0  0  0  0
   -0.7145   -0.8250    0.0000 N   0  0  0  0  0  0  0  2  0  0  0  0
   -0.7145    0.0000    0.0000 C   0  0  0  0  0  0  0  2  0  0  0  0
   -1.4289    0.4125    0.0000 C   0  0  0  0  0  0  0  2  0  0  0  0
   -2.1434    0.0000    0.0000 C   0  0  0  0  0  0  0  2  0  0  0  0
   -1.4289    1.2375    0.0000 C   0  0  0  0  0  0  0  2  0  0  0  0
   -2.1434    1.6500    0.0000 N   0  0  0  0  0  0  0  2  0  0  0  0
   -2.1434    2.4750    0.0000 C   0  0  0  0  0  0  0  2  0  0  0  0
   -2.8579    1.2375    0.0000 C   0  0  0  0  0  0  0  2  0  0  0  0
   -1.4289   -1.2375    0.0000 C   0  0  0  0  0  0  0  2  0  0  0  0
   -2.1434   -0.8250    0.0000 C   0  0  0  0  0  0  0  2  0  0  0  0
  1  2  4  0        0
  2  3  4  0        0
  3  4  4  0        0
  4  5  1  0        0
  5  6  1  0        0
  6  7  4  0        0
  7  8  4  0        0
  8  9  4  0        0
  9 10  1  0        0
 10 11  1  0        0
  9 12  4  0        0
 12 13  4  0        0
  6 13  4  0        0
 13 14  1  0        0
 14 15  1  0        0
 15 16  1  0        0
 16 17  1  0        0
 16 18  1  0        0
 18 19  1  0        0
 19 20  1  0        0
 19 21  1  0        0
 14 22  1  0        0
  4 22  4  0        0
 22 23  4  0        0
  1 23  4  0        0
M  END
$$$$

CDXL12

 14 15  0  0  0  0  0  0  0  0999 V2000
   -1.5052    1.4244    0.0000 O   0  0  0  0  0  0  0  2  0  0  0  0
   -1.6767    0.6175    0.0000 C   0  0  0  0  0  0  0  2  0  0  0  0
   -2.4304    0.2819    0.0000 N   0  0  0  0  0  0  0  2  0  0  0  0
   -2.3442   -0.5386    0.0000 C   0  0  0  0  0  0  0  2  0  0  0  0
   -1.5372   -0.7101    0.0000 C   0  0  0  0  0  0  0  2  0  0  0  0
   -1.1247    0.0044    0.0000 N   0  0  0  0  0  0  0  2  0  0  0  0
   -0.3042    0.0906    0.0000 C   0  0  0  0  0  0  0  2  0  0  0  0
    0.1083    0.8051    0.0000 N   0  0  0  0  0  0  0  2  0  0  0  0
    0.9152    0.6335    0.0000 C   0  0  0  0  0  0  0  2  0  0  0  0
    1.0015   -0.1869    0.0000 C   0  0  0  0  0  0  0  2  0  0  0  0
    0.2478   -0.5225    0.0000 S   0  0  0  0  0  0  0  2  0  0  0  0
    1.7159   -0.5994    0.0000 N   0  0  0  0  0  0  0  2  0  0  0  0
    1.7159   -1.4244    0.0000 O   0  0  0  0  0  0  0  2  0  0  0  0
    2.4304   -0.1869    0.0000 O   0  0  0  0  0  0  0  2  0  0  0  0
  1  2  2  0        0
  2  3  1  0        0
  3  4  1  0        0
  4  5  1  0        0
  5  6  1  0        0
  2  6  1  0        0
  6  7  1  0        0
  7  8  4  0        0
  8  9  4  0        0
  9 10  4  0        0
 10 11  4  0        0
  7 11  4  0        0
 10 12  1  0        0
 12 13  2  0        0
 12 14  2  0        0
M  END
$$$$

CDXL12

 18 19  0  0  0  0  0  0  0  0999 V2000
    2.1434   -1.8562    0.0000 O   0  0  0  0  0  0  0  2  0  0  0  0
    1.4289   -1.4437    0.0000 C   0  0  0  0  0  0  0  2  0  0  0  0
    0.7145   -1.8562    0.0000 O   0  0  0  0  0  0  0  2  0  0  0  0
    1.4289   -0.6187    0.0000 C   0  0  0  0  0  0  0  2  0  0  0  0
    2.1434   -0.2063    0.0000 C   0  0  0  0  0  0  0  2  0  0  0  0
    2.1434    0.6187    0.0000 C   0  0  0  0  0  0  0  2  0  0  0  0
    1.4289    1.0312    0.0000 C   0  0  0  0  0  0  0  2  0  0  0  0
    0.7145    0.6187    0.0000 C   0  0  0  0  0  0  0  2  0  0  0  0
    0.7145   -0.2063    0.0000 C   0  0  0  0  0  0  0  2  0  0  0  0
    0.0000   -0.6187    0.0000 N   0  0  0  0  0  0  0  2  0  0  0  0
   -0.7145   -0.2063    0.0000 C   0  0  0  0  0  0  0  2  0  0  0  0
   -0.7145    0.6187    0.0000 C   0  0  0  0  0  0  0  2  0  0  0  0
    0.0000    1.0312    0.0000 C   0  0  0  0  0  0  0  2  0  0  0  0
   -1.4289    1.0312    0.0000 C   0  0  0  0  0  0  0  2  0  0  0  0
   -1.4289    1.8562    0.0000 C   0  0  0  0  0  0  0  2  0  0  0  0
   -2.1434    0.6187    0.0000 C   0  0  0  0  0  0  0  2  0  0  0  0
   -2.1434   -0.2063    0.0000 C   0  0  0  0  0  0  0  2  0  0  0  0
   -1.4289   -0.6187    0.0000 C   0  0  0  0  0  0  0  2  0  0  0  0
  1  2  1  0        0
  2  3  2  0        0
  2  4  1  0        0
  4  5  4  0        0
  5  6  4  0        0
  6  7  4  0        0
  7  8  4  0        0
  8  9  4  0        0
  4  9  4  0        0
  9 10  1  0        0
 10 11  1  0        0
 11 12  4  0        0
 12 13  1  0        0
 12 14  4  0        0
 14 15  1  0        0
 14 16  4  0        0
 16 17  4  0        0
 17 18  4  0        0
 11 18  4  0        0
M  END
$$$$

CDXL12

 21 23  0  0  0  0  0  0  0  0999 V2000
    2.8579   -1.2375    0.0000 C   0  0  0  0  0  0  0  2  0  0  0  0
    2.8579   -0.4125    0.0000 N   0  0  0  0  0  0  0  2  0  0  0  0
    3.5724    0.0000    0.0000 C   0  0  0  0  0  0  0  2  0  0  0  0
    2.1434    0.0000    0.0000 C   0  0  0  0  0  0  0  2  0  0  0  0
    2.1434    0.8250    0.0000 C   0  0  0  0  0  0  0  2  0  0  0  0
    1.4289    1.2375    0.0000 C   0  0  0  0  0  0  0  2  0  0  0  0
    0.7145    0.8250    0.0000 C   0  0  0  0  0  0  0  2  0  0  0  0
    0.0000    1.2375    0.0000 N   0  0  0  0  0  0  0  2  0  0  0  0
   -0.7145    0.8250    0.0000 C   0  0  0  0  0  0  0  2  0  0  0  0
   -1.4289    1.2375    0.0000 C   0  0  0  0  0  0  0  2  0  0  0  0
   -2.1434    0.8250    0.0000 C   0  0  0  0  0  0  0  2  0  0  0  0
   -2.1434    0.0000    0.0000 C   0  0  0  0  0  0  0  2  0  0  0  0
   -1.4289   -0.4125    0.0000 C   0  0  0  0  0  0  0  2  0  0  0  0
   -0.7145    0.0000    0.0000 C   0  0  0  0  0  0  0  2  0  0  0  0
    0.0000   -0.4125    0.0000 S   0  0  0  0  0  0  0  2  0  0  0  0
    0.0000   -1.2375    0.0000 Cl  0  0  0  0  0  0  0  2  0  0  0  0
    0.7145    0.0000    0.0000 C   0  0  0  0  0  0  0  2  0  0  0  0
    1.4289   -0.4125    0.0000 C   0  0  0  0  0  0  0  2  0  0  0  0
   -2.8579   -0.4125    0.0000 N   0  0  0  0  0  0  0  2  0  0  0  0
   -2.8579   -1.2375    0.0000 C   0  0  0  0  0  0  0  2  0  0  0  0
   -3.5724    0.0000    0.0000 C   0  0  0  0  0  0  0  2  0  0  0  0
  1  2  1  0        0
  2  3  1  0        0
  2  4  1  0        0
  4  5  4  0        0
  5  6  4  0        0
  6  7  4  0        0
  7  8  4  0        0
  8  9  4  0        0
  9 10  4  0        0
 10 11  4  0        0
 11 12  4  0        0
 12 13  4  0        0
 13 14  4  0        0
  9 14  4  0        0
 14 15  4  0        0
 15 16  1  0        0
 15 17  4  0        0
  7 17  4  0        0
 17 18  4  0        0
  4 18  4  0        0
 12 19  1  0        0
 19 20  1  0        0
 19 21  1  0        0
M  END
$$$$

CDXL12

  6  6  0  0  0  0  0  0  0  0999 V2000
   -1.0597    0.1498    0.0000 N   0  0  0  0  0  0  0  2  0  0  0  0
   -0.3923    0.6348    0.0000 N   0  0  0  0  0  0  0  2  0  0  0  0
    0.2751    0.1498    0.0000 C   0  0  0  0  0  0  0  2  0  0  0  0
    1.0597    0.4048    0.0000 N   0  0  0  0  0  0  0  2  0  0  0  0
    0.0202   -0.6348    0.0000 N   0  0  0  0  0  0  0  2  0  0  0  0
   -0.8048   -0.6348    0.0000 C   0  0  0  0  0  0  0  2  0  0  0  0
  1  2  4  0        0
  2  3  4  0        0
  3  4  1  0        0
  3  5  4  0        0
  5  6  4  0        0
  1  6  4  0        0
M  END
$$$$

CDXL12

  9  8  0  0  0  0  0  0  0  0999 V2000
    1.0717    1.0313    0.0000 O   0  0  0  0  0  0  0  2  0  0  0  0
    1.0717    0.2062    0.0000 C   0  0  0  0  0  0  0  2  0  0  0  0
    1.7862   -0.2062    0.0000 O   0  0  0  0  0  0  0  2  0  0  0  0
    0.3572   -0.2062    0.0000 C   0  0  0  0  0  0  0  2  0  0  0  0
    0.3572   -1.0313    0.0000 N   0  0  0  0  0  0  0  2  0  0  0  0
   -0.3572    0.2062    0.0000 C   0  0  0  0  0  0  0  2  0  0  0  0
   -1.0717   -0.2062    0.0000 C   0  0  0  0  0  0  0  2  0  0  0  0
   -1.0717   -1.0313    0.0000 C   0  0  0  0  0  0  0  2  0  0  0  0
   -1.7862    0.2062    0.0000 C   0  0  0  0  0  0  0  2  0  0  0  0
  1  2  2  0        0
  2  3  1  0        0
  2  4  1  0        0
  4  5  1  0        0
  4  6  1  0        0
  6  7  1  0        0
  7  8  1  0        0
  7  9  1  0        0
M  END
$$$$

CDXL12

 12 12  0  0  0  0  0  0  0  0999 V2000
    1.4289   -1.6500    0.0000 O   0  0  0  0  0  0  0  2  0  0  0  0
    1.4289   -0.8250    0.0000 C   0  0  0  0  0  0  0  2  0  0  0  0
    2.1434   -0.4125    0.0000 O   0  0  0  0  0  0  0  2  0  0  0  0
    0.7145   -0.4125    0.0000 C   0  0  0  0  0  0  0  2  0  0  0  0
    0.0000   -0.8250    0.0000 C   0  0  0  0  0  0  0  2  0  0  0  0
   -0.7145   -0.4125    0.0000 C   0  0  0  0  0  0  0  2  0  0  0  0
   -0.7145    0.4125    0.0000 C   0  0  0  0  0  0  0  2  0  0  0  0
   -1.4289    0.8250    0.0000 N   0  0  0  0  0  0  0  2  0  0  0  0
   -1.4289    1.6500    0.0000 O   0  0  0  0  0  0  0  2  0  0  0  0
   -2.1434    0.4125    0.0000 O   0  0  0  0  0  0  0  2  0  0  0  0
    0.0000    0.8250    0.0000 C   0  0  0  0  0  0  0  2  0  0  0  0
    0.7145    0.4125    0.0000 C   0  0  0  0  0  0  0  2  0  0  0  0
  1  2  2  0        0
  2  3  1  0        0
  2  4  1  0        0
  4  5  4  0        0
  5  6  4  0        0
  6  7  4  0        0
  7  8  1  0        0
  8  9  2  0        0
  8 10  2  0        0
  7 11  4  0        0
 11 12  4  0        0
  4 12  4  0        0
M  END
$$$$

CDXL12

 11 11  0  0  0  0  0  0  0  0999 V2000
   -2.1434    0.0000    0.0000 C   0  0  0  0  0  0  0  2  0  0  0  0
   -1.4289    0.4125    0.0000 C   0  0  0  0  0  0  0  2  0  0  0  0
   -1.4289    1.2375    0.0000 O   0  0  0  0  0  0  0  2  0  0  0  0
   -0.7145    0.0000    0.0000 O   0  0  0  0  0  0  0  2  0  0  0  0
    0.0000    0.4125    0.0000 Hg  0  0  0  0  0  0  0  2  0  0  0  0
    0.7145    0.0000    0.0000 C   0  0  0  0  0  0  0  2  0  0  0  0
    1.4289    0.4125    0.0000 C   0  0  0  0  0  0  0  2  0  0  0  0
    2.1434   -0.0000    0.0000 C   0  0  0  0  0  0  0  2  0  0  0  0
    2.1434   -0.8250    0.0000 C   0  0  0  0  0  0  0  2  0  0  0  0
    1.4289   -1.2375    0.0000 C   0  0  0  0  0  0  0  2  0  0  0  0
    0.7145   -0.8250    0.0000 C   0  0  0  0  0  0  0  2  0  0  0  0
  1  2  1  0        0
  2  3  2  0        0
  2  4  1  0        0
  4  5  1  0        0
  5  6  1  0        0
  6  7  4  0        0
  7  8  4  0        0
  8  9  4  0        0
  9 10  4  0        0
 10 11  4  0        0
  6 11  4  0        0
M  END
$$$$

CDXL12

 13 13  0  0  0  0  0  0  0  0999 V2000
   -2.8579   -0.8250    0.0000 C   0  0  0  0  0  0  0  2  0  0  0  0
   -2.1434   -0.4125    0.0000 C   0  0  0  0  0  0  0  2  0  0  0  0
   -2.1434    0.4125    0.0000 O   0  0  0  0  0  0  0  2  0  0  0  0
   -1.4289   -0.8250    0.0000 N   0  0  0  0  0  0  0  2  0  0  0  0
   -0.7145   -0.4125    0.0000 C   0  0  0  0  0  0  0  2  0  0  0  0
   -0.7145    0.4125    0.0000 C   0  0  0  0  0  0  0  2  0  0  0  0
   -0.0000    0.8250    0.0000 C   0  0  0  0  0  0  0  2  0  0  0  0
    0.7145    0.4125    0.0000 C   0  0  0  0  0  0  0  2  0  0  0  0
    1.4289    0.8250    0.0000 O   0  0  0  0  0  0  0  2  0  0  0  0
    2.1434    0.4125    0.0000 C   0  0  0  0  0  0  0  2  0  0  0  0
    2.8579    0.8250    0.0000 C   0  0  0  0  0  0  0  2  0  0  0  0
    0.7145   -0.4125    0.0000 C   0  0  0  0  0  0  0  2  0  0  0  0
   -0.0000   -0.8250    0.0000 C   0  0  0  0  0  0  0  2  0  0  0  0
  1  2  1  0        0
  2  3  2  0        0
  2  4  1  0        0
  4  5  1  0        0
  5  6  4  0        0
  6  7  4  0        0
  7  8  4  0        0
  8  9  1  0        0
  9 10  1  0        0
 10 11  1  0        0
  8 12  4  0        0
 12 13  4  0        0
  5 13  4  0        0
M  END
$$$$

CDXL12

  7  7  0  0  0  0  0  0  0  0999 V2000
    1.0717    0.8250    0.0000 N   0  0  0  0  0  0  0  2  0  0  0  0
    0.3572    0.4125    0.0000 C   0  0  0  0  0  0  0  2  0  0  0  0
    0.3572   -0.4125    0.0000 C   0  0  0  0  0  0  0  2  0  0  0  0
   -0.3572   -0.8250    0.0000 C   0  0  0  0  0  0  0  2  0  0  0  0
   -1.0717   -0.4125    0.0000 C   0  0  0  0  0  0  0  2  0  0  0  0
   -1.0717    0.4125    0.0000 C   0  0  0  0  0  0  0  2  0  0  0  0
   -0.3572    0.8250    0.0000 C   0  0  0  0  0  0  0  2  0  0  0  0
  1  2  1  0        0
  2  3  4  0        0
  3  4  4  0        0
  4  5  4  0        0
  5  6  4  0        0
  6  7  4  0        0
  2  7  4  0        0
M  END
$$$$

CDXL12

  4  3  0  0  0  0  0  0  0  0999 V2000
    0.7145   -0.6188    0.0000 N   0  0  0  0  0  0  0  2  0  0  0  0
    0.0000   -0.2062    0.0000 C   0  0  0  0  0  0  0  2  0  0  0  0
    0.0000    0.6188    0.0000 S   0  0  0  0  0  0  0  2  0  0  0  0
   -0.7145   -0.6187    0.0000 C   0  0  0  0  0  0  0  2  0  0  0  0
  1  2  1  0        0
  2  3  2  0        0
  2  4  1  0        0
M  END
$$$$

CDXL12

  4  3  0  0  0  0  0  0  0  0999 V2000
   -0.7145   -0.6187    0.0000 N   0  0  0  0  0  0  0  2  0  0  0  0
    0.0000   -0.2062    0.0000 C   0  0  0  0  0  0  0  2  0  0  0  0
    0.0000    0.6188    0.0000 S   0  0  0  0  0  0  0  2  0  0  0  0
    0.7145   -0.6188    0.0000 N   0  0  0  0  0  0  0  2  0  0  0  0
  1  2  1  0        0
  2  3  2  0        0
  2  4  1  0        0
M  END
$$$$

CDXL12

 42 48  0  0  0  0  0  0  0  0999 V2000
    4.9147    3.5139    0.0000 C   0  0  0  0  0  0  0  2  0  0  0  0
    4.4297    2.8465    0.0000 C   0  0  0  0  0  0  0  2  0  0  0  0
    3.6093    2.9327    0.0000 C   0  0  0  0  0  0  0  2  0  0  0  0
    3.2737    3.6864    0.0000 C   0  0  0  0  0  0  0  2  0  0  0  0
    3.1243    2.2653    0.0000 C   0  0  0  0  0  0  0  2  0  0  0  0
    3.4599    1.5116    0.0000 O   0  0  0  0  0  0  0  2  0  0  0  0
    2.3039    2.3515    0.0000 O   0  0  0  0  0  0  0  2  0  0  0  0
    1.8189    1.6841    0.0000 C   0  0  0  0  0  0  0  2  0  0  0  0
    0.9985    1.7703    0.0000 C   0  0  0  0  0  0  0  2  0  0  0  0
    0.5135    1.1029    0.0000 C   0  0  0  0  0  0  0  2  0  0  0  0
    0.8491    0.3492    0.0000 C   0  0  0  0  0  0  0  2  0  0  0  0
    1.1846   -0.4044    0.0000 C   0  0  0  0  0  0  0  2  0  0  0  0
    1.6696    0.2630    0.0000 C   0  0  0  0  0  0  0  2  0  0  0  0
    2.0051   -0.4907    0.0000 C   0  0  0  0  0  0  0  2  0  0  0  0
    1.5202   -1.1581    0.0000 C   0  0  0  0  0  0  0  2  0  0  0  0
    0.6997   -1.0719    0.0000 C   0  0  0  0  0  0  0  2  0  0  0  0
    0.0866   -1.6239    0.0000 C   0  0  0  0  0  0  0  2  0  0  0  0
    0.8403   -1.9595    0.0000 O   0  0  0  0  0  0  0  2  0  0  0  0
    0.0866   -2.4489    0.0000 C   0  0  0  0  0  0  0  2  0  0  0  0
   -0.6278   -2.8614    0.0000 C   0  0  0  0  0  0  0  2  0  0  0  0
   -0.6278   -3.6864    0.0000 O   0  0  0  0  0  0  0  2  0  0  0  0
   -1.3423   -2.4489    0.0000 C   0  0  0  0  0  0  0  2  0  0  0  0
   -1.3423   -3.2739    0.0000 O   0  0  0  0  0  0  0  2  0  0  0  0
   -1.3423   -1.6239    0.0000 C   0  0  0  0  0  0  0  2  0  0  0  0
   -2.0568   -1.2114    0.0000 C   0  0  0  0  0  0  0  2  0  0  0  0
   -2.7713   -1.6239    0.0000 N   0  0  0  0  0  0  0  2  0  0  0  0
   -3.4857   -1.2114    0.0000 C   0  0  0  0  0  0  0  2  0  0  0  0
   -4.2002   -1.6239    0.0000 C   0  0  0  0  0  0  0  2  0  0  0  0
   -4.9147   -1.2114    0.0000 C   0  0  0  0  0  0  0  2  0  0  0  0
   -4.2002   -2.4489    0.0000 C   0  0  0  0  0  0  0  2  0  0  0  0
   -3.4857   -2.8614    0.0000 C   0  0  0  0  0  0  0  2  0  0  0  0
   -2.7713   -2.4489    0.0000 C   0  0  0  0  0  0  0  2  0  0  0  0
   -2.0568   -2.8614    0.0000 C   0  0  0  0  0  0  0  2  0  0  0  0
   -2.4693   -3.5759    0.0000 C   0  0  0  0  0  0  0  2  0  0  0  0
   -1.6443   -3.5759    0.0000 O   0  0  0  0  0  0  0  2  0  0  0  0
   -0.6278   -1.2114    0.0000 C   0  0  0  0  0  0  0  2  0  0  0  0
   -1.2953   -0.7265    0.0000 O   0  0  0  0  0  0  0  2  0  0  0  0
   -0.4563   -0.4044    0.0000 C   0  0  0  0  0  0  0  2  0  0  0  0
    0.3642   -0.3182    0.0000 C   0  0  0  0  0  0  0  2  0  0  0  0
    0.8734    0.8594    0.0000 O   0  0  0  0  0  0  0  2  0  0  0  0
    2.1545    0.9304    0.0000 C   0  0  0  0  0  0  0  2  0  0  0  0
    2.9750    0.8442    0.0000 O   0  0  0  0  0  0  0  2  0  0  0  0
  1  2  1  0        0
  2  3  2  0        0
  3  4  1  0        0
  3  5  1  0        0
  5  6  2  0        0
  5  7  1  0        0
  7  8  1  0        0
  8  9  1  0        0
  9 10  1  0        0
 10 11  1  0        0
 11 12  1  0        0
 11 13  1  0        0
 13 14  1  0        0
 14 15  1  0        0
 15 16  1  0        0
 16 17  1  0        0
 17 18  1  0        0
 17 19  1  0        0
 19 20  1  0        0
 20 21  1  0        0
 20 22  1  0        0
 22 23  1  0        0
 22 24  1  0        0
 24 25  1  0        0
 25 26  1  0        0
 26 27  1  0        0
 27 28  1  0        0
 28 29  1  0        0
 28 30  1  0        0
 30 31  1  0        0
 31 32  1  0        0
 26 32  1  0        0
 32 33  1  0        0
 22 33  1  0        0
 33 34  1  0        0
 33 35  1  0        0
 24 36  1  0        0
 17 36  1  0        0
 36 37  1  0        0
 36 38  1  0        0
 38 39  1  0        0
 11 39  1  0        0
 16 39  1  0        0
 39 40  1  0        0
 40 41  1  0        0
  8 41  1  0        0
 13 41  1  0        0
 41 42  1  0        0
M  END
$$$$

CDXL12

 11 10  0  0  0  0  0  0  0  0999 V2000
    0.7145    1.0313    0.0000 O   0  0  0  0  0  0  0  2  0  0  0  0
    0.7145    0.2062    0.0000 P   0  0  0  0  0  0  0  2  0  0  0  0
    1.4289   -0.2062    0.0000 O   0  0  0  0  0  0  0  2  0  0  0  0
    2.1434    0.2062    0.0000 C   0  0  0  0  0  0  0  2  0  0  0  0
    0.7145   -0.6188    0.0000 O   0  0  0  0  0  0  0  2  0  0  0  0
    1.4289   -1.0313    0.0000 C   0  0  0  0  0  0  0  2  0  0  0  0
    0.0000   -0.2062    0.0000 O   0  0  0  0  0  0  0  2  0  0  0  0
   -0.7145    0.2062    0.0000 C   0  0  0  0  0  0  0  2  0  0  0  0
   -1.4289   -0.2062    0.0000 C   0  0  0  0  0  0  0  2  0  0  0  0
   -1.4289   -1.0313    0.0000 Cl  0  0  0  0  0  0  0  2  0  0  0  0
   -2.1434    0.2062    0.0000 Cl  0  0  0  0  0  0  0  2  0  0  0  0
  1  2  2  0        0
  2  3  1  0        0
  3  4  1  0        0
  2  5  1  0        0
  5  6  1  0        0
  2  7  1  0        0
  7  8  1  0        0
  8  9  2  0        0
  9 10  1  0        0
  9 11  1  0        0
M  END
$$$$

CDXL12

  5  4  0  0  0  0  0  0  0  0999 V2000
   -1.0717   -0.2062    0.0000 O   0  0  0  0  0  0  0  2  0  0  0  0
   -0.3572   -0.6187    0.0000 N   0  0  0  0  0  0  0  2  0  0  0  0
    0.3572   -0.2062    0.0000 N   0  0  0  0  0  0  0  2  0  0  0  0
    0.3572    0.6187    0.0000 C   0  0  0  0  0  0  0  2  0  0  0  0
    1.0717   -0.6187    0.0000 C   0  0  0  0  0  0  0  2  0  0  0  0
  1  2  2  0        0
  2  3  1  0        0
  3  4  1  0        0
  3  5  1  0        0
M  END
$$$$

CDXL12

 21 24  0  0  0  0  0  0  0  0999 V2000
   -2.0637   -0.5198    0.0000 C   0  0  0  0  0  0  0  2  0  0  0  0
   -2.0637   -1.3448    0.0000 C   0  0  0  0  0  0  0  2  0  0  0  0
   -2.7782   -1.7573    0.0000 O   0  0  0  0  0  0  0  2  0  0  0  0
   -1.3492   -1.7573    0.0000 C   0  0  0  0  0  0  0  2  0  0  0  0
   -0.6348   -1.3448    0.0000 C   0  0  0  0  0  0  0  2  0  0  0  0
    0.0797   -1.7573    0.0000 C   0  0  0  0  0  0  0  2  0  0  0  0
    0.7942   -1.3448    0.0000 C   0  0  0  0  0  0  0  2  0  0  0  0
    0.7942   -0.5198    0.0000 C   0  0  0  0  0  0  0  2  0  0  0  0
    1.5086   -0.1073    0.0000 C   0  0  0  0  0  0  0  2  0  0  0  0
    2.2933   -0.3622    0.0000 C   0  0  0  0  0  0  0  2  0  0  0  0
    2.7782    0.3052    0.0000 C   0  0  0  0  0  0  0  2  0  0  0  0
    2.2933    0.9727    0.0000 C   0  0  0  0  0  0  0  2  0  0  0  0
    2.5482    1.7573    0.0000 O   0  0  0  0  0  0  0  2  0  0  0  0
    1.5086    0.7177    0.0000 C   0  0  0  0  0  0  0  2  0  0  0  0
    1.5949    1.5382    0.0000 C   0  0  0  0  0  0  0  2  0  0  0  0
    0.7942    1.1302    0.0000 C   0  0  0  0  0  0  0  2  0  0  0  0
    0.0797    0.7177    0.0000 C   0  0  0  0  0  0  0  2  0  0  0  0
    0.0797   -0.1073    0.0000 C   0  0  0  0  0  0  0  2  0  0  0  0
   -0.6348   -0.5198    0.0000 C   0  0  0  0  0  0  0  2  0  0  0  0
   -0.6348    0.3052    0.0000 C   0  0  0  0  0  0  0  2  0  0  0  0
   -1.3492   -0.1073    0.0000 C   0  0  0  0  0  0  0  2  0  0  0  0
  1  2  1  0        0
  2  3  2  0        0
  2  4  1  0        0
  4  5  2  0        0
  5  6  1  0        0
  6  7  1  0        0
  7  8  1  0        0
  8  9  1  0        0
  9 10  1  0        0
 10 11  1  0        0
 11 12  1  0        0
 12 13  2  0        0
 12 14  1  0        0
  9 14  1  0        0
 14 15  1  0        0
 14 16  1  0        0
 16 17  1  0        0
 17 18  1  0        0
  8 18  1  0        0
 18 19  1  0        0
  5 19  1  0        0
 19 20  1  0        0
 19 21  1  0        0
  1 21  1  0        0
M  END
$$$$

CDXL12

 15 16  0  0  0  0  0  0  0  0999 V2000
    0.7145    1.8563    0.0000 O   0  0  0  0  0  0  0  2  0  0  0  0
    0.7145    1.0313    0.0000 C   0  0  0  0  0  0  0  2  0  0  0  0
    0.0000    0.6188    0.0000 O   0  0  0  0  0  0  0  2  0  0  0  0
    0.0000   -0.2063    0.0000 C   0  0  0  0  0  0  0  2  0  0  0  0
   -0.7145   -0.6188    0.0000 C   0  0  0  0  0  0  0  2  0  0  0  0
   -0.7145   -1.4438    0.0000 C   0  0  0  0  0  0  0  2  0  0  0  0
   -1.4289   -1.8563    0.0000 C   0  0  0  0  0  0  0  2  0  0  0  0
   -2.1434   -1.4437    0.0000 C   0  0  0  0  0  0  0  2  0  0  0  0
   -2.1434   -0.6188    0.0000 C   0  0  0  0  0  0  0  2  0  0  0  0
   -1.4289   -0.2062    0.0000 C   0  0  0  0  0  0  0  2  0  0  0  0
    0.0000   -1.8563    0.0000 C   0  0  0  0  0  0  0  2  0  0  0  0
    0.7145   -1.4438    0.0000 C   0  0  0  0  0  0  0  2  0  0  0  0
    0.7145   -0.6188    0.0000 C   0  0  0  0  0  0  0  2  0  0  0  0
    1.4289    0.6187    0.0000 N   0  0  0  0  0  0  0  2  0  0  0  0
    2.1434    1.0312    0.0000 C   0  0  0  0  0  0  0  2  0  0  0  0
  1  2  2  0        0
  2  3  1  0        0
  3  4  1  0        0
  4  5  4  0        0
  5  6  4  0        0
  6  7  4  0        0
  7  8  4  0        0
  8  9  4  0        0
  9 10  4  0        0
  5 10  4  0        0
  6 11  4  0        0
 11 12  4  0        0
 12 13  4  0        0
  4 13  4  0        0
  2 14  1  0        0
 14 15  1  0        0
M  END
$$$$

CDXL12

  9  8  0  0  0  0  0  0  0  0999 V2000
    1.4289    1.0313    0.0000 O   0  0  0  0  0  0  0  2  0  0  0  0
    1.4289    0.2062    0.0000 C   0  0  0  0  0  0  0  2  0  0  0  0
    2.1434   -0.2062    0.0000 O   0  0  0  0  0  0  0  2  0  0  0  0
    0.7145   -0.2062    0.0000 C   0  0  0  0  0  0  0  2  0  0  0  0
    0.7145   -1.0313    0.0000 N   0  0  0  0  0  0  0  2  0  0  0  0
    0.0000    0.2062    0.0000 C   0  0  0  0  0  0  0  2  0  0  0  0
   -0.7145   -0.2062    0.0000 C   0  0  0  0  0  0  0  2  0  0  0  0
   -1.4289    0.2062    0.0000 S   0  0  0  0  0  0  0  2  0  0  0  0
   -2.1434   -0.2062    0.0000 C   0  0  0  0  0  0  0  2  0  0  0  0
  1  2  2  0        0
  2  3  1  0        0
  2  4  1  0        0
  4  5  1  0        0
  4  6  1  0        0
  6  7  1  0        0
  7  8  1  0        0
  8  9  1  0        0
M  END
$$$$

CDXL12

 11 11  0  0  0  0  0  0  0  0999 V2000
    1.4842   -0.2467    0.0000 O   0  0  0  0  0  0  0  2  0  0  0  0
    1.0717    0.4678    0.0000 S   0  0  0  0  0  0  0  2  0  0  0  0
    0.6592    1.1822    0.0000 O   0  0  0  0  0  0  0  2  0  0  0  0
    1.7862    0.8803    0.0000 N   0  0  0  0  0  0  0  2  0  0  0  0
    0.3572    0.0553    0.0000 C   0  0  0  0  0  0  0  2  0  0  0  0
    0.3572   -0.7697    0.0000 C   0  0  0  0  0  0  0  2  0  0  0  0
   -0.3572   -1.1822    0.0000 C   0  0  0  0  0  0  0  2  0  0  0  0
   -1.0717   -0.7697    0.0000 C   0  0  0  0  0  0  0  2  0  0  0  0
   -1.7862   -1.1822    0.0000 N   0  0  0  0  0  0  0  2  0  0  0  0
   -1.0717    0.0553    0.0000 C   0  0  0  0  0  0  0  2  0  0  0  0
   -0.3572    0.4678    0.0000 C   0  0  0  0  0  0  0  2  0  0  0  0
  1  2  2  0        0
  2  3  2  0        0
  2  4  1  0        0
  2  5  1  0        0
  5  6  4  0        0
  6  7  4  0        0
  7  8  4  0        0
  8  9  1  0        0
  8 10  4  0        0
 10 11  4  0        0
  5 11  4  0        0
M  END
$$$$

CDXL12

 12 12  0  0  0  0  0  0  0  0999 V2000
    1.4289    1.2375    0.0000 O   0  0  0  0  0  0  0  2  0  0  0  0
    1.4289    0.4125    0.0000 C   0  0  0  0  0  0  0  2  0  0  0  0
    2.1434   -0.0000    0.0000 O   0  0  0  0  0  0  0  2  0  0  0  0
    0.7145   -0.0000    0.0000 C   0  0  0  0  0  0  0  2  0  0  0  0
    0.7145   -0.8250    0.0000 N   0  0  0  0  0  0  0  2  0  0  0  0
    0.0000    0.4125    0.0000 C   0  0  0  0  0  0  0  2  0  0  0  0
   -0.7145   -0.0000    0.0000 C   0  0  0  0  0  0  0  2  0  0  0  0
   -0.7145   -0.8250    0.0000 C   0  0  0  0  0  0  0  2  0  0  0  0
   -1.4289   -1.2375    0.0000 C   0  0  0  0  0  0  0  2  0  0  0  0
   -2.1434   -0.8250    0.0000 C   0  0  0  0  0  0  0  2  0  0  0  0
   -2.1434   -0.0000    0.0000 C   0  0  0  0  0  0  0  2  0  0  0  0
   -1.4289    0.4125    0.0000 C   0  0  0  0  0  0  0  2  0  0  0  0
  1  2  2  0        0
  2  3  1  0        0
  2  4  1  0        0
  4  5  1  0        0
  4  6  1  0        0
  6  7  1  0        0
  7  8  4  0        0
  8  9  4  0        0
  9 10  4  0        0
 10 11  4  0        0
 11 12  4  0        0
  7 12  4  0        0
M  END
$$$$

CDXL12

 24 23  0  0  0  0  0  0  0  0999 V2000
   -3.9296   -0.2062    0.0000 Na  0  0  0  0  0  0  0  2  0  0  0  0
   -3.2151    0.2062    0.0000 O   0  0  0  0  0  0  0  2  0  0  0  0
   -2.5006   -0.2062    0.0000 C   0  0  0  0  0  0  0  2  0  0  0  0
   -2.5006   -1.0312    0.0000 O   0  0  0  0  0  0  0  2  0  0  0  0
   -1.7862    0.2062    0.0000 C   0  0  0  0  0  0  0  2  0  0  0  0
   -1.0717   -0.2062    0.0000 N   0  0  0  0  0  0  0  2  0  0  0  0
   -0.3572    0.2063    0.0000 C   0  0  0  0  0  0  0  2  0  0  0  0
    0.3572   -0.2062    0.0000 C   0  0  0  0  0  0  0  2  0  0  0  0
    1.0717    0.2062    0.0000 N   0  0  0  0  0  0  0  2  0  0  0  0
    1.7862   -0.2062    0.0000 C   0  0  0  0  0  0  0  2  0  0  0  0
    2.5006    0.2062    0.0000 C   0  0  0  0  0  0  0  2  0  0  0  0
    3.2151   -0.2062    0.0000 O   0  0  0  0  0  0  0  2  0  0  0  0
    3.9296    0.2062    0.0000 Na  0  0  0  0  0  0  0  2  0  0  0  0
    2.5006    1.0312    0.0000 O   0  0  0  0  0  0  0  2  0  0  0  0
    1.0717    1.0312    0.0000 C   0  0  0  0  0  0  0  2  0  0  0  0
    0.3572    1.4437    0.0000 C   0  0  0  0  0  0  0  2  0  0  0  0
   -0.3572    1.0312    0.0000 O   0  0  0  0  0  0  0  2  0  0  0  0
   -1.0717    1.4437    0.0000 Na  0  0  0  0  0  0  0  2  0  0  0  0
    0.3572    2.2687    0.0000 O   0  0  0  0  0  0  0  2  0  0  0  0
   -1.0717   -1.0312    0.0000 C   0  0  0  0  0  0  0  2  0  0  0  0
   -0.3572   -1.4437    0.0000 C   0  0  0  0  0  0  0  2  0  0  0  0
    0.3572   -1.0312    0.0000 O   0  0  0  0  0  0  0  2  0  0  0  0
    1.0717   -1.4437    0.0000 Na  0  0  0  0  0  0  0  2  0  0  0  0
   -0.3572   -2.2687    0.0000 O   0  0  0  0  0  0  0  2  0  0  0  0
  1  2  1  0        0
  2  3  1  0        0
  3  4  2  0        0
  3  5  1  0        0
  5  6  1  0        0
  6  7  1  0        0
  7  8  1  0        0
  8  9  1  0        0
  9 10  1  0        0
 10 11  1  0        0
 11 12  1  0        0
 12 13  1  0        0
 11 14  2  0        0
  9 15  1  0        0
 15 16  1  0        0
 16 17  1  0        0
 17 18  1  0        0
 16 19  2  0        0
  6 20  1  0        0
 20 21  1  0        0
 21 22  1  0        0
 22 23  1  0        0
 21 24  2  0        0
M  END
$$$$

CDXL12

 10 10  0  0  0  0  0  0  0  0999 V2000
    1.0717    0.4125    0.0000 O   0  0  0  0  0  0  0  2  0  0  0  0
    1.0717   -0.4125    0.0000 C   0  0  0  0  0  0  0  2  0  0  0  0
    0.3572   -0.8250    0.0000 N   0  0  0  0  0  0  0  2  0  0  0  0
   -0.3572   -0.4125    0.0000 C   0  0  0  0  0  0  0  2  0  0  0  0
   -1.0717   -0.8250    0.0000 C   0  0  0  0  0  0  0  2  0  0  0  0
   -1.7862   -0.4125    0.0000 C   0  0  0  0  0  0  0  2  0  0  0  0
   -1.7862    0.4125    0.0000 C   0  0  0  0  0  0  0  2  0  0  0  0
   -1.0717    0.8250    0.0000 C   0  0  0  0  0  0  0  2  0  0  0  0
   -0.3572    0.4125    0.0000 C   0  0  0  0  0  0  0  2  0  0  0  0
    1.7862   -0.8250    0.0000 N   0  0  0  0  0  0  0  2  0  0  0  0
  1  2  2  0        0
  2  3  1  0        0
  3  4  1  0        0
  4  5  4  0        0
  5  6  4  0        0
  6  7  4  0        0
  7  8  4  0        0
  8  9  4  0        0
  4  9  4  0        0
  2 10  1  0        0
M  END
$$$$

CDXL12

  3  2  0  0  0  0  0  0  0  0999 V2000
    0.7145   -0.2062    0.0000 O   0  0  0  0  0  0  0  2  0  0  0  0
    0.0000    0.2062    0.0000 C   0  0  0  0  0  0  0  2  0  0  0  0
   -0.7145   -0.2062    0.0000 C   0  0  0  0  0  0  0  2  0  0  0  0
  1  2  1  0        0
  2  3  1  0        0
M  END
$$$$

CDXL12

  9  8  0  0  0  0  0  0  0  0999 V2000
    0.4125   -0.7145    0.0000 O   0  0  0  0  0  0  0  2  0  0  0  0
    0.0000    0.0000    0.0000 S   0  0  0  0  0  0  0  2  0  0  0  0
   -0.4125    0.7145    0.0000 O   0  0  0  0  0  0  0  2  0  0  0  0
   -0.7145   -0.4125    0.0000 O   0  0  0  0  0  0  0  2  0  0  0  0
   -1.4289   -0.0000    0.0000 C   0  0  0  0  0  0  0  2  0  0  0  0
   -2.1434   -0.4125    0.0000 C   0  0  0  0  0  0  0  2  0  0  0  0
    0.7145    0.4125    0.0000 O   0  0  0  0  0  0  0  2  0  0  0  0
    1.4289   -0.0000    0.0000 C   0  0  0  0  0  0  0  2  0  0  0  0
    2.1434    0.4125    0.0000 C   0  0  0  0  0  0  0  2  0  0  0  0
  1  2  2  0        0
  2  3  2  0        0
  2  4  1  0        0
  4  5  1  0        0
  5  6  1  0        0
  2  7  1  0        0
  7  8  1  0        0
  8  9  1  0        0
M  END
$$$$

CDXL12

 18 18  0  0  0  0  0  0  0  0999 V2000
    0.3572    0.3572    0.0000 O   0  0  0  0  0  0  0  2  0  0  0  0
    0.3572   -0.4678    0.0000 C   0  0  0  0  0  0  0  2  0  0  0  0
    1.0717   -0.8803    0.0000 N   0  0  0  0  0  0  0  2  0  0  0  0
    1.7862   -0.4678    0.0000 C   0  0  0  0  0  0  0  2  0  0  0  0
    2.5006   -0.8803    0.0000 C   0  0  0  0  0  0  0  2  0  0  0  0
    3.2151   -0.4678    0.0000 C   0  0  0  0  0  0  0  2  0  0  0  0
    3.9296   -0.8803    0.0000 C   0  0  0  0  0  0  0  2  0  0  0  0
   -0.3572   -0.8803    0.0000 N   0  0  0  0  0  0  0  2  0  0  0  0
   -1.0717   -0.4678    0.0000 S   0  0  0  0  0  0  0  2  0  0  0  0
   -1.4842   -1.1822    0.0000 O   0  0  0  0  0  0  0  2  0  0  0  0
   -0.6592    0.2467    0.0000 O   0  0  0  0  0  0  0  2  0  0  0  0
   -1.7862   -0.0553    0.0000 C   0  0  0  0  0  0  0  2  0  0  0  0
   -1.7862    0.7697    0.0000 C   0  0  0  0  0  0  0  2  0  0  0  0
   -2.5006    1.1822    0.0000 C   0  0  0  0  0  0  0  2  0  0  0  0
   -3.2151    0.7697    0.0000 C   0  0  0  0  0  0  0  2  0  0  0  0
   -3.2151   -0.0553    0.0000 C   0  0  0  0  0  0  0  2  0  0  0  0
   -2.5006   -0.4678    0.0000 C   0  0  0  0  0  0  0  2  0  0  0  0
   -3.9296    1.1822    0.0000 C   0  0  0  0  0  0  0  2  0  0  0  0
  1  2  2  0        0
  2  3  1  0        0
  3  4  1  0        0
  4  5  1  0        0
  5  6  1  0        0
  6  7  1  0        0
  2  8  1  0        0
  8  9  1  0        0
  9 10  2  0        0
  9 11  2  0        0
  9 12  1  0        0
 12 13  4  0        0
 13 14  4  0        0
 14 15  4  0        0
 15 16  4  0        0
 16 17  4  0        0
 12 17  4  0        0
 15 18  1  0        0
M  END
$$$$

CDXL12

 24 27  0  0  0  0  0  0  0  0999 V2000
   -2.4797   -0.9979    0.0000 C   0  0  0  0  0  0  0  2  0  0  0  0
   -2.4797   -1.8229    0.0000 C   0  0  0  0  0  0  0  2  0  0  0  0
   -3.1941   -2.2354    0.0000 O   0  0  0  0  0  0  0  2  0  0  0  0
   -1.7652   -2.2354    0.0000 C   0  0  0  0  0  0  0  2  0  0  0  0
   -1.0507   -1.8229    0.0000 C   0  0  0  0  0  0  0  2  0  0  0  0
   -0.3363   -2.2354    0.0000 C   0  0  0  0  0  0  0  2  0  0  0  0
    0.3782   -1.8229    0.0000 C   0  0  0  0  0  0  0  2  0  0  0  0
    0.3782   -0.9979    0.0000 C   0  0  0  0  0  0  0  2  0  0  0  0
    1.0927   -0.5854    0.0000 C   0  0  0  0  0  0  0  2  0  0  0  0
    1.8773   -0.8403    0.0000 C   0  0  0  0  0  0  0  2  0  0  0  0
    2.3622   -0.1729    0.0000 C   0  0  0  0  0  0  0  2  0  0  0  0
    1.8773    0.4946    0.0000 C   0  0  0  0  0  0  0  2  0  0  0  0
    2.1322    1.2792    0.0000 C   0  0  0  0  0  0  0  2  0  0  0  0
    1.5489    1.8626    0.0000 O   0  0  0  0  0  0  0  2  0  0  0  0
    2.9392    1.4507    0.0000 C   0  0  0  0  0  0  0  2  0  0  0  0
    3.1941    2.2354    0.0000 O   0  0  0  0  0  0  0  2  0  0  0  0
    1.0927    0.2396    0.0000 C   0  0  0  0  0  0  0  2  0  0  0  0
    1.1789    1.0601    0.0000 C   0  0  0  0  0  0  0  2  0  0  0  0
    0.3782    0.6521    0.0000 C   0  0  0  0  0  0  0  2  0  0  0  0
   -0.3363    0.2396    0.0000 C   0  0  0  0  0  0  0  2  0  0  0  0
   -0.3363   -0.5854    0.0000 C   0  0  0  0  0  0  0  2  0  0  0  0
   -1.0507   -0.9979    0.0000 C   0  0  0  0  0  0  0  2  0  0  0  0
   -1.0507   -0.1729    0.0000 C   0  0  0  0  0  0  0  2  0  0  0  0
   -1.7652   -0.5854    0.0000 C   0  0  0  0  0  0  0  2  0  0  0  0
  1  2  1  0        0
  2  3  2  0        0
  2  4  1  0        0
  4  5  2  0        0
  5  6  1  0        0
  6  7  1  0        0
  7  8  1  0        0
  8  9  1  0        0
  9 10  1  0        0
 10 11  1  0        0
 11 12  1  0        0
 12 13  1  0        0
 13 14  2  0        0
 13 15  1  0        0
 15 16  1  0        0
 12 17  1  0        0
  9 17  1  0        0
 17 18  1  0        0
 17 19  1  0        0
 19 20  1  0        0
 20 21  1  0        0
  8 21  1  0        0
 21 22  1  0        0
  5 22  1  0        0
 22 23  1  0        0
 22 24  1  0        0
  1 24  1  0        0
M  END
$$$$

CDXL12

 29 31  0  0  0  0  0  0  0  0999 V2000
   -0.5844   -3.0316    0.0000 O   0  0  0  0  0  0  0  2  0  0  0  0
   -0.3709   -2.2347    0.0000 C   0  0  0  0  0  0  0  2  0  0  0  0
    0.4174   -1.9915    0.0000 N   0  0  0  0  0  0  0  2  0  0  0  0
    0.6010   -1.1872    0.0000 C   0  0  0  0  0  0  0  2  0  0  0  0
   -0.0440   -0.6728    0.0000 C   0  0  0  0  0  0  0  2  0  0  0  0
   -0.0440    0.1522    0.0000 C   0  0  0  0  0  0  0  2  0  0  0  0
    0.6010    0.6665    0.0000 C   0  0  0  0  0  0  0  2  0  0  0  0
    1.4053    0.4830    0.0000 C   0  0  0  0  0  0  0  2  0  0  0  0
    1.9665    1.0877    0.0000 C   0  0  0  0  0  0  0  2  0  0  0  0
    1.7233    1.8761    0.0000 C   0  0  0  0  0  0  0  2  0  0  0  0
    2.2845    2.4808    0.0000 O   0  0  0  0  0  0  0  2  0  0  0  0
    3.0888    2.2973    0.0000 C   0  0  0  0  0  0  0  2  0  0  0  0
    0.9190    2.0597    0.0000 C   0  0  0  0  0  0  0  2  0  0  0  0
    0.6758    2.8480    0.0000 O   0  0  0  0  0  0  0  2  0  0  0  0
   -0.1285    3.0316    0.0000 C   0  0  0  0  0  0  0  2  0  0  0  0
    0.3579    1.4549    0.0000 C   0  0  0  0  0  0  0  2  0  0  0  0
   -0.4465    1.6385    0.0000 O   0  0  0  0  0  0  0  2  0  0  0  0
   -1.0298    1.0551    0.0000 C   0  0  0  0  0  0  0  2  0  0  0  0
    1.7633   -0.2603    0.0000 C   0  0  0  0  0  0  0  2  0  0  0  0
    1.4053   -1.0036    0.0000 C   0  0  0  0  0  0  0  2  0  0  0  0
   -0.6890    0.6665    0.0000 C   0  0  0  0  0  0  0  2  0  0  0  0
   -1.4933    0.4830    0.0000 C   0  0  0  0  0  0  0  2  0  0  0  0
   -1.8513   -0.2603    0.0000 C   0  0  0  0  0  0  0  2  0  0  0  0
   -2.6763   -0.2603    0.0000 O   0  0  0  0  0  0  0  2  0  0  0  0
   -3.0888   -0.9748    0.0000 C   0  0  0  0  0  0  0  2  0  0  0  0
   -1.4933   -1.0036    0.0000 C   0  0  0  0  0  0  0  2  0  0  0  0
   -2.0077   -1.6486    0.0000 O   0  0  0  0  0  0  0  2  0  0  0  0
   -0.6890   -1.1872    0.0000 C   0  0  0  0  0  0  0  2  0  0  0  0
   -0.9543   -1.6513    0.0000 C   0  0  0  0  0  0  0  2  0  0  0  0
  1  2  2  0        0
  2  3  1  0        0
  3  4  1  0        0
  4  5  1  0        0
  5  6  1  0        0
  6  7  1  0        0
  7  8  4  0        0
  8  9  4  0        0
  9 10  4  0        0
 10 11  1  0        0
 11 12  1  0        0
 10 13  4  0        0
 13 14  1  0        0
 14 15  1  0        0
 13 16  4  0        0
  7 16  4  0        0
 16 17  1  0        0
 17 18  1  0        0
  8 19  1  0        0
 19 20  1  0        0
  4 20  1  0        0
  6 21  2  0        0
 21 22  1  0        0
 22 23  2  0        0
 23 24  1  0        0
 24 25  1  0        0
 23 26  1  0        0
 26 27  2  0        0
 26 28  1  0        0
  5 28  2  0        0
  2 29  1  0        0
M  END
$$$$

CDXL12

 14 14  0  0  0  0  0  0  0  0999 V2000
   -1.0164    0.6740    0.0000 N   0  0  0  0  0  0  0  2  0  0  0  0
   -1.4289    1.3885    0.0000 H   0  0  0  0  0  0  0  2  0  0  0  0
   -1.8414    0.6740    0.0000 Cl  0  0  0  0  0  0  0  2  0  0  0  0
   -0.3020    1.0865    0.0000 C   0  0  0  0  0  0  0  2  0  0  0  0
    0.4125    0.6740    0.0000 C   0  0  0  0  0  0  0  2  0  0  0  0
    0.4125   -0.1510    0.0000 C   0  0  0  0  0  0  0  2  0  0  0  0
    1.1270   -0.5635    0.0000 C   0  0  0  0  0  0  0  2  0  0  0  0
    1.8414   -0.1510    0.0000 O   0  0  0  0  0  0  0  2  0  0  0  0
   -0.3020   -0.5635    0.0000 C   0  0  0  0  0  0  0  2  0  0  0  0
   -1.0164   -0.1510    0.0000 C   0  0  0  0  0  0  0  2  0  0  0  0
   -1.7309   -0.5635    0.0000 C   0  0  0  0  0  0  0  2  0  0  0  0
   -0.3020   -1.3885    0.0000 O   0  0  0  0  0  0  0  2  0  0  0  0
    1.1270    1.0865    0.0000 C   0  0  0  0  0  0  0  2  0  0  0  0
    1.8414    0.6740    0.0000 O   0  0  0  0  0  0  0  2  0  0  0  0
  1  2  1  0        0
  1  3  1  0        0
  1  4  1  0        0
  4  5  1  0        0
  5  6  1  0        0
  6  7  1  0        0
  7  8  2  0        0
  6  9  1  0        0
  9 10  1  0        0
  1 10  1  0        0
 10 11  1  0        0
  9 12  1  0        0
  5 13  1  0        0
 13 14  1  0        0
M  END
$$$$

CDXL12

 10 10  0  0  0  0  0  0  0  0999 V2000
    0.7145    1.2375    0.0000 O   0  0  0  0  0  0  0  2  0  0  0  0
    0.7145    0.4125    0.0000 C   0  0  0  0  0  0  0  2  0  0  0  0
    1.4289   -0.0000    0.0000 N   0  0  0  0  0  0  0  2  0  0  0  0
    0.0000   -0.0000    0.0000 C   0  0  0  0  0  0  0  2  0  0  0  0
    0.0000   -0.8250    0.0000 C   0  0  0  0  0  0  0  2  0  0  0  0
    0.7145   -1.2375    0.0000 O   0  0  0  0  0  0  0  2  0  0  0  0
   -0.7145   -1.2375    0.0000 C   0  0  0  0  0  0  0  2  0  0  0  0
   -1.4289   -0.8250    0.0000 C   0  0  0  0  0  0  0  2  0  0  0  0
   -1.4289    0.0000    0.0000 C   0  0  0  0  0  0  0  2  0  0  0  0
   -0.7145    0.4125    0.0000 C   0  0  0  0  0  0  0  2  0  0  0  0
  1  2  2  0        0
  2  3  1  0        0
  2  4  1  0        0
  4  5  4  0        0
  5  6  1  0        0
  5  7  4  0        0
  7  8  4  0        0
  8  9  4  0        0
  9 10  4  0        0
  4 10  4  0        0
M  END
$$$$

CDXL12

 11 11  0  0  0  0  0  0  0  0999 V2000
    1.0717    1.2375    0.0000 O   0  0  0  0  0  0  0  2  0  0  0  0
    1.0717    0.4125    0.0000 C   0  0  0  0  0  0  0  2  0  0  0  0
    1.7862    0.0000    0.0000 O   0  0  0  0  0  0  0  2  0  0  0  0
    0.3572   -0.0000    0.0000 C   0  0  0  0  0  0  0  2  0  0  0  0
    0.3572   -0.8250    0.0000 C   0  0  0  0  0  0  0  2  0  0  0  0
    1.0717   -1.2375    0.0000 O   0  0  0  0  0  0  0  2  0  0  0  0
   -0.3572   -1.2375    0.0000 C   0  0  0  0  0  0  0  2  0  0  0  0
   -1.0717   -0.8250    0.0000 C   0  0  0  0  0  0  0  2  0  0  0  0
   -1.7862   -1.2375    0.0000 N   0  0  0  0  0  0  0  2  0  0  0  0
   -1.0717    0.0000    0.0000 C   0  0  0  0  0  0  0  2  0  0  0  0
   -0.3572    0.4125    0.0000 C   0  0  0  0  0  0  0  2  0  0  0  0
  1  2  2  0        0
  2  3  1  0        0
  2  4  1  0        0
  4  5  4  0        0
  5  6  1  0        0
  5  7  4  0        0
  7  8  4  0        0
  8  9  1  0        0
  8 10  4  0        0
 10 11  4  0        0
  4 11  4  0        0
M  END
$$$$

CDXL12

  9  9  0  0  0  0  0  0  0  0999 V2000
    0.0000    0.8250    0.0000 C   0  0  0  0  0  0  0  2  0  0  0  0
    0.7145    0.4125    0.0000 C   0  0  0  0  0  0  0  2  0  0  0  0
    1.4289    0.8250    0.0000 C   0  0  0  0  0  0  0  2  0  0  0  0
    0.7145   -0.4125    0.0000 C   0  0  0  0  0  0  0  2  0  0  0  0
    1.4289   -0.8250    0.0000 O   0  0  0  0  0  0  0  2  0  0  0  0
    0.0000   -0.8250    0.0000 N   0  0  0  0  0  0  0  2  0  0  0  0
   -0.7145   -0.4125    0.0000 C   0  0  0  0  0  0  0  2  0  0  0  0
   -1.4289   -0.8250    0.0000 O   0  0  0  0  0  0  0  2  0  0  0  0
   -0.7145    0.4125    0.0000 N   0  0  0  0  0  0  0  2  0  0  0  0
  1  2  4  0        0
  2  3  1  0        0
  2  4  4  0        0
  4  5  1  0        0
  4  6  4  0        0
  6  7  4  0        0
  7  8  1  0        0
  7  9  4  0        0
  1  9  4  0        0
M  END
$$$$

CDXL12

  9  9  0  0  0  0  0  0  0  0999 V2000
    0.7145    1.2375    0.0000 O   0  0  0  0  0  0  0  2  0  0  0  0
    0.7145    0.4125    0.0000 C   0  0  0  0  0  0  0  2  0  0  0  0
    1.4289   -0.0000    0.0000 O   0  0  0  0  0  0  0  2  0  0  0  0
    0.0000   -0.0000    0.0000 C   0  0  0  0  0  0  0  2  0  0  0  0
   -0.7145    0.4125    0.0000 C   0  0  0  0  0  0  0  2  0  0  0  0
   -1.4289   -0.0000    0.0000 C   0  0  0  0  0  0  0  2  0  0  0  0
   -1.4289   -0.8250    0.0000 C   0  0  0  0  0  0  0  2  0  0  0  0
   -0.7145   -1.2375    0.0000 C   0  0  0  0  0  0  0  2  0  0  0  0
    0.0000   -0.8250    0.0000 C   0  0  0  0  0  0  0  2  0  0  0  0
  1  2  2  0        0
  2  3  1  0        0
  2  4  1  0        0
  4  5  4  0        0
  5  6  4  0        0
  6  7  4  0        0
  7  8  4  0        0
  8  9  4  0        0
  4  9  4  0        0
M  END
$$$$

CDXL12

 15 15  0  0  0  0  0  0  0  0999 V2000
    1.7862    1.6500    0.0000 O   0  0  0  0  0  0  0  2  0  0  0  0
    1.7862    0.8250    0.0000 C   0  0  0  0  0  0  0  2  0  0  0  0
    1.0717    0.4125    0.0000 C   0  0  0  0  0  0  0  2  0  0  0  0
    0.3572    0.8250    0.0000 C   0  0  0  0  0  0  0  2  0  0  0  0
   -0.3572    0.4125    0.0000 C   0  0  0  0  0  0  0  2  0  0  0  0
   -1.0717    0.8250    0.0000 C   0  0  0  0  0  0  0  2  0  0  0  0
   -1.7862    0.4125    0.0000 C   0  0  0  0  0  0  0  2  0  0  0  0
   -1.7862   -0.4125    0.0000 C   0  0  0  0  0  0  0  2  0  0  0  0
   -1.0717   -0.8250    0.0000 C   0  0  0  0  0  0  0  2  0  0  0  0
   -0.3572   -0.4125    0.0000 C   0  0  0  0  0  0  0  2  0  0  0  0
   -1.0717   -1.6500    0.0000 I   0  0  0  0  0  0  0  2  0  0  0  0
   -2.5006   -0.8250    0.0000 O   0  0  0  0  0  0  0  2  0  0  0  0
   -2.5006    0.8250    0.0000 I   0  0  0  0  0  0  0  2  0  0  0  0
    1.0717   -0.4125    0.0000 N   0  0  0  0  0  0  0  2  0  0  0  0
    2.5006    0.4125    0.0000 O   0  0  0  0  0  0  0  2  0  0  0  0
  1  2  2  0        0
  2  3  1  0        0
  3  4  1  0        0
  4  5  1  0        0
  5  6  4  0        0
  6  7  4  0        0
  7  8  4  0        0
  8  9  4  0        0
  9 10  4  0        0
  5 10  4  0        0
  9 11  1  0        0
  8 12  1  0        0
  7 13  1  0        0
  3 14  1  0        0
  2 15  1  0        0
M  END
$$$$

CDXL12

  8  8  0  0  0  0  0  0  0  0999 V2000
   -0.7145   -0.4125    0.0000 N   0  0  0  0  0  0  0  2  0  0  0  0
   -0.7145    0.4125    0.0000 C   0  0  0  0  0  0  0  2  0  0  0  0
   -1.4289    0.8250    0.0000 O   0  0  0  0  0  0  0  2  0  0  0  0
    0.0000    0.8250    0.0000 N   0  0  0  0  0  0  0  2  0  0  0  0
    0.7145    0.4125    0.0000 C   0  0  0  0  0  0  0  2  0  0  0  0
    1.4289    0.8250    0.0000 O   0  0  0  0  0  0  0  2  0  0  0  0
    0.7145   -0.4125    0.0000 C   0  0  0  0  0  0  0  2  0  0  0  0
    0.0000   -0.8250    0.0000 C   0  0  0  0  0  0  0  2  0  0  0  0
  1  2  4  0        0
  2  3  1  0        0
  2  4  4  0        0
  4  5  4  0        0
  5  6  1  0        0
  5  7  4  0        0
  7  8  4  0        0
  1  8  4  0        0
M  END
$$$$

CDXL12

 14 16  0  0  0  0  0  0  0  0999 V2000
    0.3572    1.0313    0.0000 N   0  0  0  0  0  0  0  2  0  0  0  0
    0.3572    0.2062    0.0000 C   0  0  0  0  0  0  0  2  0  0  0  0
    1.0717   -0.2063    0.0000 C   0  0  0  0  0  0  0  2  0  0  0  0
    1.0717   -1.0312    0.0000 C   0  0  0  0  0  0  0  2  0  0  0  0
    0.3572   -1.4437    0.0000 C   0  0  0  0  0  0  0  2  0  0  0  0
   -0.3572   -1.0312    0.0000 C   0  0  0  0  0  0  0  2  0  0  0  0
   -1.0717   -1.4437    0.0000 C   0  0  0  0  0  0  0  2  0  0  0  0
   -1.7862   -1.0312    0.0000 C   0  0  0  0  0  0  0  2  0  0  0  0
   -1.7862   -0.2062    0.0000 C   0  0  0  0  0  0  0  2  0  0  0  0
   -1.0717    0.2063    0.0000 N   0  0  0  0  0  0  0  2  0  0  0  0
   -0.3572   -0.2062    0.0000 C   0  0  0  0  0  0  0  2  0  0  0  0
    1.7862    0.2062    0.0000 C   0  0  0  0  0  0  0  2  0  0  0  0
    1.7862    1.0312    0.0000 C   0  0  0  0  0  0  0  2  0  0  0  0
    1.0717    1.4437    0.0000 C   0  0  0  0  0  0  0  2  0  0  0  0
  1  2  4  0        0
  2  3  4  0        0
  3  4  4  0        0
  4  5  4  0        0
  5  6  4  0        0
  6  7  4  0        0
  7  8  4  0        0
  8  9  4  0        0
  9 10  4  0        0
 10 11  4  0        0
  2 11  4  0        0
  6 11  4  0        0
  3 12  4  0        0
 12 13  4  0        0
 13 14  4  0        0
  1 14  4  0        0
M  END
$$$$

CDXL12

 12 12  0  0  0  0  0  0  0  0999 V2000
   -1.7862    0.4125    0.0000 C   0  0  0  0  0  0  0  2  0  0  0  0
   -1.0717   -0.0000    0.0000 C   0  0  0  0  0  0  0  2  0  0  0  0
   -1.0717   -0.8250    0.0000 N   0  0  0  0  0  0  0  2  0  0  0  0
   -0.3572   -1.2375    0.0000 C   0  0  0  0  0  0  0  2  0  0  0  0
    0.3572   -0.8250    0.0000 C   0  0  0  0  0  0  0  2  0  0  0  0
    1.0717   -1.2375    0.0000 C   0  0  0  0  0  0  0  2  0  0  0  0
    1.7862   -0.8250    0.0000 O   0  0  0  0  0  0  0  2  0  0  0  0
    0.3572   -0.0000    0.0000 C   0  0  0  0  0  0  0  2  0  0  0  0
    1.0717    0.4125    0.0000 C   0  0  0  0  0  0  0  2  0  0  0  0
    1.7862   -0.0000    0.0000 O   0  0  0  0  0  0  0  2  0  0  0  0
   -0.3572    0.4125    0.0000 C   0  0  0  0  0  0  0  2  0  0  0  0
   -0.3572    1.2375    0.0000 O   0  0  0  0  0  0  0  2  0  0  0  0
  1  2  1  0        0
  2  3  4  0        0
  3  4  4  0        0
  4  5  4  0        0
  5  6  1  0        0
  6  7  1  0        0
  5  8  4  0        0
  8  9  1  0        0
  9 10  2  0        0
  8 11  4  0        0
  2 11  4  0        0
 11 12  1  0        0
M  END
$$$$

CDXL12

 20 21  0  0  0  0  0  0  0  0999 V2000
   -3.2151   -0.2062    0.0000 C   0  0  0  0  0  0  0  2  0  0  0  0
   -2.5006    0.2062    0.0000 C   0  0  0  0  0  0  0  2  0  0  0  0
   -2.5006    1.0313    0.0000 C   0  0  0  0  0  0  0  2  0  0  0  0
   -1.7862    1.4438    0.0000 C   0  0  0  0  0  0  0  2  0  0  0  0
   -1.7862    2.2687    0.0000 C   0  0  0  0  0  0  0  2  0  0  0  0
   -1.0717    1.0312    0.0000 C   0  0  0  0  0  0  0  2  0  0  0  0
   -0.3572    1.4437    0.0000 O   0  0  0  0  0  0  0  2  0  0  0  0
   -1.0717    0.2062    0.0000 C   0  0  0  0  0  0  0  2  0  0  0  0
   -1.7862   -0.2062    0.0000 C   0  0  0  0  0  0  0  2  0  0  0  0
   -0.3572   -0.2062    0.0000 C   0  0  0  0  0  0  0  2  0  0  0  0
   -0.3572   -1.0313    0.0000 O   0  0  0  0  0  0  0  2  0  0  0  0
    0.3572    0.2062    0.0000 C   0  0  0  0  0  0  0  2  0  0  0  0
    1.0717   -0.2062    0.0000 C   0  0  0  0  0  0  0  2  0  0  0  0
    1.0717   -1.0313    0.0000 C   0  0  0  0  0  0  0  2  0  0  0  0
    1.7862   -1.4438    0.0000 C   0  0  0  0  0  0  0  2  0  0  0  0
    1.7862   -2.2687    0.0000 O   0  0  0  0  0  0  0  2  0  0  0  0
    2.5006   -1.0313    0.0000 N   0  0  0  0  0  0  0  2  0  0  0  0
    2.5006   -0.2062    0.0000 C   0  0  0  0  0  0  0  2  0  0  0  0
    3.2151    0.2062    0.0000 O   0  0  0  0  0  0  0  2  0  0  0  0
    1.7862    0.2062    0.0000 C   0  0  0  0  0  0  0  2  0  0  0  0
  1  2  1  0        0
  2  3  1  0        0
  3  4  1  0        0
  4  5  1  0        0
  4  6  1  0        0
  6  7  2  0        0
  6  8  1  0        0
  8  9  1  0        0
  2  9  1  0        0
  8 10  1  0        0
 10 11  1  0        0
 10 12  1  0        0
 12 13  1  0        0
 13 14  1  0        0
 14 15  1  0        0
 15 16  2  0        0
 15 17  1  0        0
 17 18  1  0        0
 18 19  2  0        0
 18 20  1  0        0
 13 20  1  0        0
M  END
$$$$

CDXL12

 17 18  0  0  0  0  0  0  0  0999 V2000
   -0.7873    1.3885    0.0000 O   0  0  0  0  0  0  0  2  0  0  0  0
   -1.4004    0.8365    0.0000 C   0  0  0  0  0  0  0  2  0  0  0  0
   -1.3142    0.0160    0.0000 N   0  0  0  0  0  0  0  2  0  0  0  0
   -0.5997   -0.3965    0.0000 N   0  0  0  0  0  0  0  2  0  0  0  0
    0.1148    0.0160    0.0000 C   0  0  0  0  0  0  0  2  0  0  0  0
    0.8292   -0.3965    0.0000 C   0  0  0  0  0  0  0  2  0  0  0  0
    1.5829   -0.0609    0.0000 O   0  0  0  0  0  0  0  2  0  0  0  0
    2.1350   -0.6740    0.0000 C   0  0  0  0  0  0  0  2  0  0  0  0
    2.9554   -0.5878    0.0000 N   0  0  0  0  0  0  0  2  0  0  0  0
    3.2910    0.1659    0.0000 O   0  0  0  0  0  0  0  2  0  0  0  0
    3.4404   -1.2552    0.0000 O   0  0  0  0  0  0  0  2  0  0  0  0
    1.7225   -1.3885    0.0000 C   0  0  0  0  0  0  0  2  0  0  0  0
    0.9155   -1.2170    0.0000 C   0  0  0  0  0  0  0  2  0  0  0  0
   -2.0678   -0.3196    0.0000 C   0  0  0  0  0  0  0  2  0  0  0  0
   -2.6199    0.2935    0.0000 C   0  0  0  0  0  0  0  2  0  0  0  0
   -3.4404    0.2073    0.0000 O   0  0  0  0  0  0  0  2  0  0  0  0
   -2.2074    1.0080    0.0000 N   0  0  0  0  0  0  0  2  0  0  0  0
  1  2  2  0        0
  2  3  1  0        0
  3  4  1  0        0
  4  5  2  0        0
  5  6  1  0        0
  6  7  4  0        0
  7  8  4  0        0
  8  9  1  0        0
  9 10  2  0        0
  9 11  2  0        0
  8 12  4  0        0
 12 13  4  0        0
  6 13  4  0        0
  3 14  1  0        0
 14 15  1  0        0
 15 16  2  0        0
 15 17  1  0        0
  2 17  1  0        0
M  END
$$$$

CDXL12

 16 17  0  0  0  0  0  0  0  0999 V2000
    0.5052   -1.2170    0.0000 C   0  0  0  0  0  0  0  2  0  0  0  0
    1.3122   -1.3885    0.0000 C   0  0  0  0  0  0  0  2  0  0  0  0
    1.7247   -0.6740    0.0000 C   0  0  0  0  0  0  0  2  0  0  0  0
    2.5452   -0.5878    0.0000 N   0  0  0  0  0  0  0  2  0  0  0  0
    2.8808    0.1659    0.0000 O   0  0  0  0  0  0  0  2  0  0  0  0
    3.0301   -1.2552    0.0000 O   0  0  0  0  0  0  0  2  0  0  0  0
    1.1727   -0.0609    0.0000 O   0  0  0  0  0  0  0  2  0  0  0  0
    0.4190   -0.3965    0.0000 C   0  0  0  0  0  0  0  2  0  0  0  0
   -0.2955    0.0160    0.0000 C   0  0  0  0  0  0  0  2  0  0  0  0
   -1.0099   -0.3965    0.0000 N   0  0  0  0  0  0  0  2  0  0  0  0
   -1.7244    0.0160    0.0000 N   0  0  0  0  0  0  0  2  0  0  0  0
   -1.8106    0.8365    0.0000 C   0  0  0  0  0  0  0  2  0  0  0  0
   -1.1975    1.3885    0.0000 O   0  0  0  0  0  0  0  2  0  0  0  0
   -2.6176    1.0080    0.0000 O   0  0  0  0  0  0  0  2  0  0  0  0
   -3.0301    0.2935    0.0000 C   0  0  0  0  0  0  0  2  0  0  0  0
   -2.4781   -0.3196    0.0000 C   0  0  0  0  0  0  0  2  0  0  0  0
  1  2  4  0        0
  2  3  4  0        0
  3  4  1  0        0
  4  5  2  0        0
  4  6  2  0        0
  3  7  4  0        0
  7  8  4  0        0
  1  8  4  0        0
  8  9  1  0        0
  9 10  2  0        0
 10 11  1  0        0
 11 12  1  0        0
 12 13  2  0        0
 12 14  1  0        0
 14 15  1  0        0
 15 16  1  0        0
 11 16  1  0        0
M  END
$$$$

CDXL12

  2  1  0  0  0  0  0  0  0  0999 V2000
    0.4125    0.0000    0.0000 O   0  0  0  0  0  0  0  2  0  0  0  0
   -0.4125    0.0000    0.0000 C   0  0  0  0  0  0  0  2  0  0  0  0
  1  2  1  0        0
M  END
$$$$

CDXL12

  4  3  0  0  0  0  0  0  0  0999 V2000
    0.0000    0.6188    0.0000 O   0  0  0  0  0  0  0  2  0  0  0  0
    0.0000   -0.2062    0.0000 C   0  0  0  0  0  0  0  2  0  0  0  0
    0.7145   -0.6188    0.0000 C   0  0  0  0  0  0  0  2  0  0  0  0
   -0.7145   -0.6187    0.0000 C   0  0  0  0  0  0  0  2  0  0  0  0
  1  2  1  0        0
  2  3  1  0        0
  2  4  1  0        0
M  END
$$$$

CDXL12

  4  3  0  0  0  0  0  0  0  0999 V2000
    0.0000    0.6188    0.0000 O   0  0  0  0  0  0  0  2  0  0  0  0
    0.0000   -0.2062    0.0000 C   0  0  0  0  0  0  0  2  0  0  0  0
    0.7145   -0.6188    0.0000 C   0  0  0  0  0  0  0  2  0  0  0  0
   -0.7145   -0.6187    0.0000 C   0  0  0  0  0  0  0  2  0  0  0  0
  1  2  2  0        0
  2  3  1  0        0
  2  4  1  0        0
M  END
$$$$

CDXL12

  4  3  0  0  0  0  0  0  0  0999 V2000
    0.0000   -0.2062    0.0000 C   0  0  0  0  0  0  0  2  0  0  0  0
   -0.7145   -0.6187    0.0000 Cl  0  0  0  0  0  0  0  2  0  0  0  0
    0.7145   -0.6188    0.0000 Cl  0  0  0  0  0  0  0  2  0  0  0  0
    0.0000    0.6188    0.0000 Cl  0  0  0  0  0  0  0  2  0  0  0  0
  1  2  1  0        0
  1  3  1  0        0
  1  4  1  0        0
M  END
$$$$

CDXL12

  4  3  0  0  0  0  0  0  0  0999 V2000
    0.0000    0.6188    0.0000 O   0  0  0  0  0  0  0  2  0  0  0  0
    0.0000   -0.2062    0.0000 S   0  0  0  0  0  0  0  2  0  0  0  0
   -0.7145   -0.6187    0.0000 C   0  0  0  0  0  0  0  2  0  0  0  0
    0.7145   -0.6188    0.0000 C   0  0  0  0  0  0  0  2  0  0  0  0
  1  2  2  0        0
  2  3  1  0        0
  2  4  1  0        0
M  END
$$$$

CDXL12

  8  7  0  0  0  0  0  0  0  0999 V2000
    0.4125   -0.0000    0.0000 C   0  0  0  0  0  0  0  2  0  0  0  0
   -0.4125   -0.0000    0.0000 C   0  0  0  0  0  0  0  2  0  0  0  0
   -0.8250   -0.7145    0.0000 Cl  0  0  0  0  0  0  0  2  0  0  0  0
   -0.8250    0.7145    0.0000 Cl  0  0  0  0  0  0  0  2  0  0  0  0
   -1.2375   -0.0000    0.0000 Cl  0  0  0  0  0  0  0  2  0  0  0  0
    0.8250    0.7145    0.0000 Cl  0  0  0  0  0  0  0  2  0  0  0  0
    0.8250   -0.7145    0.0000 Cl  0  0  0  0  0  0  0  2  0  0  0  0
    1.2375   -0.0000    0.0000 Cl  0  0  0  0  0  0  0  2  0  0  0  0
  1  2  1  0        0
  2  3  1  0        0
  2  4  1  0        0
  2  5  1  0        0
  1  6  1  0        0
  1  7  1  0        0
  1  8  1  0        0
M  END
$$$$

CDXL12

 21 24  0  0  0  0  0  0  0  0999 V2000
   -1.2616    1.5692    0.0000 O   0  0  0  0  0  0  0  2  0  0  0  0
   -1.5166    0.7846    0.0000 C   0  0  0  0  0  0  0  2  0  0  0  0
   -0.9645    0.1715    0.0000 C   0  0  0  0  0  0  0  2  0  0  0  0
   -0.1395    0.1715    0.0000 N   0  0  0  0  0  0  0  2  0  0  0  0
    0.4125    0.7846    0.0000 C   0  0  0  0  0  0  0  2  0  0  0  0
    0.1576    1.5692    0.0000 O   0  0  0  0  0  0  0  2  0  0  0  0
    1.2195    0.6131    0.0000 C   0  0  0  0  0  0  0  2  0  0  0  0
    1.7715    1.2262    0.0000 C   0  0  0  0  0  0  0  2  0  0  0  0
    2.5785    1.0547    0.0000 O   0  0  0  0  0  0  0  2  0  0  0  0
    1.1286    0.0010    0.0000 S   0  0  0  0  0  0  0  2  0  0  0  0
    0.7146   -0.4588    0.0000 S   0  0  0  0  0  0  0  2  0  0  0  0
    0.1154   -0.6131    0.0000 C   0  0  0  0  0  0  0  2  0  0  0  0
    0.9224   -0.7846    0.0000 C   0  0  0  0  0  0  0  2  0  0  0  0
    1.4744   -0.1715    0.0000 N   0  0  0  0  0  0  0  2  0  0  0  0
    2.2814   -0.3431    0.0000 C   0  0  0  0  0  0  0  2  0  0  0  0
    1.1773   -1.5692    0.0000 O   0  0  0  0  0  0  0  2  0  0  0  0
   -0.5520   -1.0980    0.0000 C   0  0  0  0  0  0  0  2  0  0  0  0
   -1.2195   -0.6131    0.0000 C   0  0  0  0  0  0  0  2  0  0  0  0
   -2.0264   -0.7846    0.0000 C   0  0  0  0  0  0  0  2  0  0  0  0
   -2.5785   -0.1715    0.0000 C   0  0  0  0  0  0  0  2  0  0  0  0
   -2.3235    0.6131    0.0000 C   0  0  0  0  0  0  0  2  0  0  0  0
  1  2  1  0        0
  2  3  1  0        0
  3  4  1  0        0
  4  5  1  0        0
  5  6  2  0        0
  5  7  1  0        0
  7  8  1  0        0
  8  9  1  0        0
  7 10  1  0        0
 10 11  1  0        0
 11 12  1  0        0
  4 12  1  0        0
 12 13  1  0        0
 13 14  1  0        0
  7 14  1  0        0
 14 15  1  0        0
 13 16  2  0        0
 12 17  1  0        0
 17 18  1  0        0
  3 18  1  0        0
 18 19  2  0        0
 19 20  1  0        0
 20 21  2  0        0
  2 21  1  0        0
M  END
$$$$

CDXL12

  5  4  0  0  0  0  0  0  0  0999 V2000
    0.3572    0.6187    0.0000 O   0  0  0  0  0  0  0  2  0  0  0  0
    0.3572   -0.2062    0.0000 C   0  0  0  0  0  0  0  2  0  0  0  0
    1.0717   -0.6187    0.0000 O   0  0  0  0  0  0  0  2  0  0  0  0
   -0.3572   -0.6187    0.0000 C   0  0  0  0  0  0  0  2  0  0  0  0
   -1.0717   -0.2062    0.0000 S   0  0  0  0  0  0  0  2  0  0  0  0
  1  2  2  0        0
  2  3  1  0        0
  2  4  1  0        0
  4  5  1  0        0
M  END
$$$$

CDXL12

  5  4  0  0  0  0  0  0  0  0999 V2000
   -1.0717   -0.2062    0.0000 O   0  0  0  0  0  0  0  2  0  0  0  0
   -0.3572   -0.6187    0.0000 C   0  0  0  0  0  0  0  2  0  0  0  0
    0.3572   -0.2062    0.0000 N   0  0  0  0  0  0  0  2  0  0  0  0
    0.3572    0.6187    0.0000 C   0  0  0  0  0  0  0  2  0  0  0  0
    1.0717   -0.6187    0.0000 C   0  0  0  0  0  0  0  2  0  0  0  0
  1  2  2  0        0
  2  3  1  0        0
  3  4  1  0        0
  3  5  1  0        0
M  END
$$$$

CDXL12

 17 18  0  0  0  0  0  0  0  0999 V2000
    0.4125   -0.2467    0.0000 O   0  0  0  0  0  0  0  2  0  0  0  0
   -0.0000    0.4678    0.0000 S   0  0  0  0  0  0  0  2  0  0  0  0
   -0.4125    1.1822    0.0000 O   0  0  0  0  0  0  0  2  0  0  0  0
    0.7145    0.8803    0.0000 N   0  0  0  0  0  0  0  2  0  0  0  0
    1.4289    0.4678    0.0000 C   0  0  0  0  0  0  0  2  0  0  0  0
    2.1434    0.8803    0.0000 N   0  0  0  0  0  0  0  2  0  0  0  0
    2.8579    0.4678    0.0000 C   0  0  0  0  0  0  0  2  0  0  0  0
    2.8579   -0.3572    0.0000 C   0  0  0  0  0  0  0  2  0  0  0  0
    2.1434   -0.7697    0.0000 C   0  0  0  0  0  0  0  2  0  0  0  0
    1.4289   -0.3572    0.0000 N   0  0  0  0  0  0  0  2  0  0  0  0
   -0.7145    0.0553    0.0000 C   0  0  0  0  0  0  0  2  0  0  0  0
   -0.7145   -0.7697    0.0000 C   0  0  0  0  0  0  0  2  0  0  0  0
   -1.4289   -1.1822    0.0000 C   0  0  0  0  0  0  0  2  0  0  0  0
   -2.1434   -0.7697    0.0000 C   0  0  0  0  0  0  0  2  0  0  0  0
   -2.8579   -1.1822    0.0000 N   0  0  0  0  0  0  0  2  0  0  0  0
   -2.1434    0.0553    0.0000 C   0  0  0  0  0  0  0  2  0  0  0  0
   -1.4289    0.4678    0.0000 C   0  0  0  0  0  0  0  2  0  0  0  0
  1  2  2  0        0
  2  3  2  0        0
  2  4  1  0        0
  4  5  1  0        0
  5  6  4  0        0
  6  7  4  0        0
  7  8  4  0        0
  8  9  4  0        0
  9 10  4  0        0
  5 10  4  0        0
  2 11  1  0        0
 11 12  4  0        0
 12 13  4  0        0
 13 14  4  0        0
 14 15  1  0        0
 14 16  4  0        0
 16 17  4  0        0
 11 17  4  0        0
M  END
$$$$

CDXL12

 24 27  0  0  0  0  0  0  0  0999 V2000
    3.2346    0.9826    0.0000 C   0  0  0  0  0  0  0  2  0  0  0  0
    2.4500    1.2375    0.0000 C   0  0  0  0  0  0  0  2  0  0  0  0
    2.2784    2.0445    0.0000 O   0  0  0  0  0  0  0  2  0  0  0  0
    1.8369    0.6855    0.0000 C   0  0  0  0  0  0  0  2  0  0  0  0
    1.6653    1.4924    0.0000 O   0  0  0  0  0  0  0  2  0  0  0  0
    2.3218    0.0180    0.0000 C   0  0  0  0  0  0  0  2  0  0  0  0
    1.8369   -0.6494    0.0000 C   0  0  0  0  0  0  0  2  0  0  0  0
    1.0522   -0.3945    0.0000 C   0  0  0  0  0  0  0  2  0  0  0  0
    0.3378   -0.8070    0.0000 C   0  0  0  0  0  0  0  2  0  0  0  0
    0.3378   -1.6320    0.0000 C   0  0  0  0  0  0  0  2  0  0  0  0
   -0.3767   -2.0445    0.0000 C   0  0  0  0  0  0  0  2  0  0  0  0
   -1.0912   -1.6320    0.0000 C   0  0  0  0  0  0  0  2  0  0  0  0
   -1.8056   -2.0445    0.0000 C   0  0  0  0  0  0  0  2  0  0  0  0
   -2.5201   -1.6320    0.0000 C   0  0  0  0  0  0  0  2  0  0  0  0
   -3.2346   -2.0445    0.0000 O   0  0  0  0  0  0  0  2  0  0  0  0
   -2.5201   -0.8070    0.0000 C   0  0  0  0  0  0  0  2  0  0  0  0
   -1.8056   -0.3945    0.0000 C   0  0  0  0  0  0  0  2  0  0  0  0
   -1.0912   -0.8070    0.0000 C   0  0  0  0  0  0  0  2  0  0  0  0
   -1.0912    0.0180    0.0000 C   0  0  0  0  0  0  0  2  0  0  0  0
   -0.3767   -0.3945    0.0000 C   0  0  0  0  0  0  0  2  0  0  0  0
   -0.3767    0.4305    0.0000 C   0  0  0  0  0  0  0  2  0  0  0  0
    0.3378    0.8430    0.0000 C   0  0  0  0  0  0  0  2  0  0  0  0
    1.0522    0.4305    0.0000 C   0  0  0  0  0  0  0  2  0  0  0  0
    1.1385    1.2510    0.0000 C   0  0  0  0  0  0  0  2  0  0  0  0
  1  2  1  0        0
  2  3  2  0        0
  2  4  1  0        0
  4  5  1  0        0
  4  6  1  0        0
  6  7  1  0        0
  7  8  1  0        0
  8  9  1  0        0
  9 10  1  0        0
 10 11  1  0        0
 11 12  1  0        0
 12 13  2  0        0
 13 14  1  0        0
 14 15  2  0        0
 14 16  1  0        0
 16 17  1  0        0
 17 18  1  0        0
 12 18  1  0        0
 18 19  1  0        0
 18 20  1  0        0
  9 20  1  0        0
 20 21  1  0        0
 21 22  1  0        0
 22 23  1  0        0
  4 23  1  0        0
  8 23  1  0        0
 23 24  1  0        0
M  END
$$$$

CDXL12

 30 33  0  0  0  0  0  0  0  0999 V2000
   -4.2868    2.6812    0.0000 O   0  0  0  0  0  0  0  2  0  0  0  0
   -3.5724    2.2687    0.0000 C   0  0  0  0  0  0  0  2  0  0  0  0
   -2.8579    2.6812    0.0000 C   0  0  0  0  0  0  0  2  0  0  0  0
   -2.1434    2.2687    0.0000 N   0  0  0  0  0  0  0  2  0  0  0  0
   -1.4289    2.6812    0.0000 C   0  0  0  0  0  0  0  2  0  0  0  0
   -0.7145    2.2687    0.0000 C   0  0  0  0  0  0  0  2  0  0  0  0
   -0.7145    1.4438    0.0000 N   0  0  0  0  0  0  0  2  0  0  0  0
    0.0000    1.0313    0.0000 C   0  0  0  0  0  0  0  2  0  0  0  0
    0.0000    0.2062    0.0000 C   0  0  0  0  0  0  0  2  0  0  0  0
    0.7145   -0.2062    0.0000 C   0  0  0  0  0  0  0  2  0  0  0  0
    0.7145   -1.0313    0.0000 N   0  0  0  0  0  0  0  2  0  0  0  0
    0.0000   -1.4438    0.0000 C   0  0  0  0  0  0  0  2  0  0  0  0
   -0.7145   -1.0313    0.0000 C   0  0  0  0  0  0  0  2  0  0  0  0
   -1.4289   -1.4438    0.0000 C   0  0  0  0  0  0  0  2  0  0  0  0
   -1.4289   -2.2687    0.0000 C   0  0  0  0  0  0  0  2  0  0  0  0
   -0.7145   -2.6812    0.0000 C   0  0  0  0  0  0  0  2  0  0  0  0
    0.0000   -2.2687    0.0000 C   0  0  0  0  0  0  0  2  0  0  0  0
    0.7145   -2.6812    0.0000 S   0  0  0  0  0  0  0  2  0  0  0  0
    1.4289   -2.2687    0.0000 C   0  0  0  0  0  0  0  2  0  0  0  0
    2.1434   -2.6812    0.0000 C   0  0  0  0  0  0  0  2  0  0  0  0
    2.8579   -2.2687    0.0000 C   0  0  0  0  0  0  0  2  0  0  0  0
    2.8579   -1.4438    0.0000 C   0  0  0  0  0  0  0  2  0  0  0  0
    2.1434   -1.0313    0.0000 C   0  0  0  0  0  0  0  2  0  0  0  0
    1.4289   -1.4438    0.0000 C   0  0  0  0  0  0  0  2  0  0  0  0
    3.5724   -1.0313    0.0000 C   0  0  0  0  0  0  0  2  0  0  0  0
    4.2868   -0.6188    0.0000 F   0  0  0  0  0  0  0  2  0  0  0  0
    3.5724   -0.2063    0.0000 F   0  0  0  0  0  0  0  2  0  0  0  0
    4.2868   -1.4438    0.0000 F   0  0  0  0  0  0  0  2  0  0  0  0
   -1.4289    1.0313    0.0000 C   0  0  0  0  0  0  0  2  0  0  0  0
   -2.1434    1.4438    0.0000 C   0  0  0  0  0  0  0  2  0  0  0  0
  1  2  1  0        0
  2  3  1  0        0
  3  4  1  0        0
  4  5  1  0        0
  5  6  1  0        0
  6  7  1  0        0
  7  8  1  0        0
  8  9  1  0        0
  9 10  1  0        0
 10 11  1  0        0
 11 12  1  0        0
 12 13  4  0        0
 13 14  4  0        0
 14 15  4  0        0
 15 16  4  0        0
 16 17  4  0        0
 12 17  4  0        0
 17 18  1  0        0
 18 19  1  0        0
 19 20  4  0        0
 20 21  4  0        0
 21 22  4  0        0
 22 23  4  0        0
 23 24  4  0        0
 11 24  1  0        0
 19 24  4  0        0
 22 25  1  0        0
 25 26  1  0        0
 25 27  1  0        0
 25 28  1  0        0
  7 29  1  0        0
 29 30  1  0        0
  4 30  1  0        0
M  END
$$$$

CDXL12

 24 26  0  0  0  0  0  0  0  0999 V2000
   -3.5816   -0.3489    0.0000 C   0  0  0  0  0  0  0  2  0  0  0  0
   -2.8672    0.0636    0.0000 C   0  0  0  0  0  0  0  2  0  0  0  0
   -3.5816    0.4761    0.0000 C   0  0  0  0  0  0  0  2  0  0  0  0
   -2.3823   -0.6039    0.0000 S   0  0  0  0  0  0  0  2  0  0  0  0
   -1.5976   -0.3489    0.0000 C   0  0  0  0  0  0  0  2  0  0  0  0
   -0.7726   -0.3489    0.0000 C   0  0  0  0  0  0  0  2  0  0  0  0
   -0.1893   -0.9323    0.0000 N   0  0  0  0  0  0  0  2  0  0  0  0
    0.6076   -0.7188    0.0000 C   0  0  0  0  0  0  0  2  0  0  0  0
    0.8211    0.0781    0.0000 O   0  0  0  0  0  0  0  2  0  0  0  0
    1.1910   -1.3021    0.0000 C   0  0  0  0  0  0  0  2  0  0  0  0
    0.9775   -2.0990    0.0000 N   0  0  0  0  0  0  0  2  0  0  0  0
    1.9879   -1.0886    0.0000 C   0  0  0  0  0  0  0  2  0  0  0  0
    2.2014   -0.2917    0.0000 C   0  0  0  0  0  0  0  2  0  0  0  0
    2.9983   -0.0782    0.0000 C   0  0  0  0  0  0  0  2  0  0  0  0
    3.5816   -0.6615    0.0000 C   0  0  0  0  0  0  0  2  0  0  0  0
    3.3681   -1.4584    0.0000 C   0  0  0  0  0  0  0  2  0  0  0  0
    2.5712   -1.6720    0.0000 C   0  0  0  0  0  0  0  2  0  0  0  0
   -0.7726    0.4761    0.0000 C   0  0  0  0  0  0  0  2  0  0  0  0
   -0.1893    1.0594    0.0000 O   0  0  0  0  0  0  0  2  0  0  0  0
   -1.5976    0.4761    0.0000 N   0  0  0  0  0  0  0  2  0  0  0  0
   -2.3823    0.7310    0.0000 C   0  0  0  0  0  0  0  2  0  0  0  0
   -2.6372    1.5156    0.0000 C   0  0  0  0  0  0  0  2  0  0  0  0
   -3.4341    1.7292    0.0000 O   0  0  0  0  0  0  0  2  0  0  0  0
   -2.0538    2.0990    0.0000 O   0  0  0  0  0  0  0  2  0  0  0  0
  1  2  1  0        0
  2  3  1  0        0
  2  4  1  0        0
  4  5  1  0        0
  5  6  1  0        0
  6  7  1  0        0
  7  8  1  0        0
  8  9  2  0        0
  8 10  1  0        0
 10 11  1  0        0
 10 12  1  0        0
 12 13  4  0        0
 13 14  4  0        0
 14 15  4  0        0
 15 16  4  0        0
 16 17  4  0        0
 12 17  4  0        0
  6 18  1  0        0
 18 19  2  0        0
 18 20  1  0        0
  5 20  1  0        0
 20 21  1  0        0
  2 21  1  0        0
 21 22  1  0        0
 22 23  1  0        0
 22 24  2  0        0
M  END
$$$$

CDXL12

 12 11  0  0  0  0  0  0  0  0999 V2000
    2.5006    0.2062    0.0000 O   0  0  0  0  0  0  0  2  0  0  0  0
    1.7862   -0.2062    0.0000 C   0  0  0  0  0  0  0  2  0  0  0  0
    1.0717    0.2062    0.0000 C   0  0  0  0  0  0  0  2  0  0  0  0
    1.0717    1.0313    0.0000 O   0  0  0  0  0  0  0  2  0  0  0  0
    0.3572   -0.2062    0.0000 C   0  0  0  0  0  0  0  2  0  0  0  0
    0.3572   -1.0313    0.0000 O   0  0  0  0  0  0  0  2  0  0  0  0
   -0.3572    0.2062    0.0000 C   0  0  0  0  0  0  0  2  0  0  0  0
   -0.3572    1.0313    0.0000 O   0  0  0  0  0  0  0  2  0  0  0  0
   -1.0717   -0.2062    0.0000 C   0  0  0  0  0  0  0  2  0  0  0  0
   -1.0717   -1.0313    0.0000 O   0  0  0  0  0  0  0  2  0  0  0  0
   -1.7862    0.2062    0.0000 C   0  0  0  0  0  0  0  2  0  0  0  0
   -2.5006   -0.2062    0.0000 O   0  0  0  0  0  0  0  2  0  0  0  0
  1  2  1  0        0
  2  3  1  0        0
  3  4  1  0        0
  3  5  1  0        0
  5  6  1  0        0
  5  7  1  0        0
  7  8  1  0        0
  7  9  1  0        0
  9 10  1  0        0
  9 11  1  0        0
 11 12  1  0        0
M  END
$$$$

CDXL12

 21 22  0  0  0  0  0  0  0  0999 V2000
   -0.2143    0.8250    0.0000 O   0  0  0  0  0  0  0  2  0  0  0  0
   -0.9288    0.4125    0.0000 C   0  0  0  0  0  0  0  2  0  0  0  0
   -0.9288   -0.4125    0.0000 C   0  0  0  0  0  0  0  2  0  0  0  0
   -1.6433   -0.8250    0.0000 C   0  0  0  0  0  0  0  2  0  0  0  0
   -2.3578   -0.4125    0.0000 C   0  0  0  0  0  0  0  2  0  0  0  0
   -2.3578    0.4125    0.0000 C   0  0  0  0  0  0  0  2  0  0  0  0
   -1.6433    0.8250    0.0000 C   0  0  0  0  0  0  0  2  0  0  0  0
   -1.6433    1.6500    0.0000 Cl  0  0  0  0  0  0  0  2  0  0  0  0
   -3.0722   -0.8250    0.0000 Cl  0  0  0  0  0  0  0  2  0  0  0  0
   -1.6433   -1.6500    0.0000 Cl  0  0  0  0  0  0  0  2  0  0  0  0
    0.0000   -0.9487    0.0000 C   0  0  0  0  0  0  0  2  0  0  0  0
    0.9288   -0.4125    0.0000 C   0  0  0  0  0  0  0  2  0  0  0  0
    0.9288    0.4125    0.0000 C   0  0  0  0  0  0  0  2  0  0  0  0
    1.6433    0.8250    0.0000 C   0  0  0  0  0  0  0  2  0  0  0  0
    2.3578    0.4125    0.0000 C   0  0  0  0  0  0  0  2  0  0  0  0
    2.3578   -0.4125    0.0000 C   0  0  0  0  0  0  0  2  0  0  0  0
    3.0722   -0.8250    0.0000 Cl  0  0  0  0  0  0  0  2  0  0  0  0
    1.6433   -0.8250    0.0000 C   0  0  0  0  0  0  0  2  0  0  0  0
    1.6433   -1.6500    0.0000 O   0  0  0  0  0  0  0  2  0  0  0  0
    1.6433    1.6500    0.0000 Cl  0  0  0  0  0  0  0  2  0  0  0  0
    0.2143    0.8250    0.0000 Cl  0  0  0  0  0  0  0  2  0  0  0  0
  1  2  1  0        0
  2  3  4  0        0
  3  4  4  0        0
  4  5  4  0        0
  5  6  4  0        0
  6  7  4  0        0
  2  7  4  0        0
  7  8  1  0        0
  5  9  1  0        0
  4 10  1  0        0
  3 11  1  0        0
 11 12  1  0        0
 12 13  4  0        0
 13 14  4  0        0
 14 15  4  0        0
 15 16  4  0        0
 16 17  1  0        0
 16 18  4  0        0
 12 18  4  0        0
 18 19  1  0        0
 14 20  1  0        0
 13 21  1  0        0
M  END
$$$$

CDXL12

 13 13  0  0  0  0  0  0  0  0999 V2000
   -1.4289    1.2375    0.0000 O   0  0  0  0  0  0  0  2  0  0  0  0
   -1.4289    0.4125    0.0000 N   0  0  0  0  0  0  0  2  0  0  0  0
   -2.1434   -0.0000    0.0000 O   0  0  0  0  0  0  0  2  0  0  0  0
   -0.7145   -0.0000    0.0000 C   0  0  0  0  0  0  0  2  0  0  0  0
   -0.7145   -0.8250    0.0000 C   0  0  0  0  0  0  0  2  0  0  0  0
    0.0000   -1.2375    0.0000 C   0  0  0  0  0  0  0  2  0  0  0  0
    0.7145   -0.8250    0.0000 C   0  0  0  0  0  0  0  2  0  0  0  0
    1.4289   -1.2375    0.0000 F   0  0  0  0  0  0  0  2  0  0  0  0
    0.7145   -0.0000    0.0000 C   0  0  0  0  0  0  0  2  0  0  0  0
    1.4289    0.4125    0.0000 N   0  0  0  0  0  0  0  2  0  0  0  0
    1.4289    1.2375    0.0000 O   0  0  0  0  0  0  0  2  0  0  0  0
    2.1434   -0.0000    0.0000 O   0  0  0  0  0  0  0  2  0  0  0  0
    0.0000    0.4125    0.0000 C   0  0  0  0  0  0  0  2  0  0  0  0
  1  2  2  0        0
  2  3  2  0        0
  2  4  1  0        0
  4  5  4  0        0
  5  6  4  0        0
  6  7  4  0        0
  7  8  1  0        0
  7  9  4  0        0
  9 10  1  0        0
 10 11  2  0        0
 10 12  2  0        0
  9 13  4  0        0
  4 13  4  0        0
M  END
$$$$

CDXL12

  9  8  0  0  0  0  0  0  0  0999 V2000
    1.0717    1.0313    0.0000 O   0  0  0  0  0  0  0  2  0  0  0  0
    1.0717    0.2062    0.0000 C   0  0  0  0  0  0  0  2  0  0  0  0
    1.7862   -0.2062    0.0000 O   0  0  0  0  0  0  0  2  0  0  0  0
    0.3572   -0.2062    0.0000 C   0  0  0  0  0  0  0  2  0  0  0  0
    0.3572   -1.0313    0.0000 N   0  0  0  0  0  0  0  2  0  0  0  0
   -0.3572    0.2062    0.0000 C   0  0  0  0  0  0  0  2  0  0  0  0
   -1.0717   -0.2062    0.0000 C   0  0  0  0  0  0  0  2  0  0  0  0
   -1.0717   -1.0313    0.0000 O   0  0  0  0  0  0  0  2  0  0  0  0
   -1.7862    0.2062    0.0000 N   0  0  0  0  0  0  0  2  0  0  0  0
  1  2  2  0        0
  2  3  1  0        0
  2  4  1  0        0
  4  5  1  0        0
  4  6  1  0        0
  6  7  1  0        0
  7  8  2  0        0
  7  9  1  0        0
M  END
$$$$

CDXL12

 11 11  0  0  0  0  0  0  0  0999 V2000
    1.4842   -0.2467    0.0000 O   0  0  0  0  0  0  0  2  0  0  0  0
    1.0717    0.4678    0.0000 S   0  0  0  0  0  0  0  2  0  0  0  0
    0.6592    1.1822    0.0000 O   0  0  0  0  0  0  0  2  0  0  0  0
    1.7862    0.8803    0.0000 N   0  0  0  0  0  0  0  2  0  0  0  0
    0.3572    0.0553    0.0000 C   0  0  0  0  0  0  0  2  0  0  0  0
    0.3572   -0.7697    0.0000 C   0  0  0  0  0  0  0  2  0  0  0  0
   -0.3572   -1.1822    0.0000 C   0  0  0  0  0  0  0  2  0  0  0  0
   -1.0717   -0.7697    0.0000 C   0  0  0  0  0  0  0  2  0  0  0  0
   -1.0717    0.0553    0.0000 C   0  0  0  0  0  0  0  2  0  0  0  0
   -0.3572    0.4678    0.0000 C   0  0  0  0  0  0  0  2  0  0  0  0
   -1.7862   -1.1822    0.0000 C   0  0  0  0  0  0  0  2  0  0  0  0
  1  2  2  0        0
  2  3  2  0        0
  2  4  1  0        0
  2  5  1  0        0
  5  6  4  0        0
  6  7  4  0        0
  7  8  4  0        0
  8  9  4  0        0
  9 10  4  0        0
  5 10  4  0        0
  8 11  1  0        0
M  END
$$$$

CDXL12

 11 11  0  0  0  0  0  0  0  0999 V2000
    1.3673    1.1148    0.0000 O   0  0  0  0  0  0  0  2  0  0  0  0
    1.3673    0.2898    0.0000 C   0  0  0  0  0  0  0  2  0  0  0  0
    2.0818   -0.1227    0.0000 O   0  0  0  0  0  0  0  2  0  0  0  0
    0.6529   -0.1227    0.0000 C   0  0  0  0  0  0  0  2  0  0  0  0
    0.6529   -0.9477    0.0000 N   0  0  0  0  0  0  0  2  0  0  0  0
   -0.0616    0.2898    0.0000 C   0  0  0  0  0  0  0  2  0  0  0  0
   -0.7761   -0.1227    0.0000 C   0  0  0  0  0  0  0  2  0  0  0  0
   -0.8623   -0.9432    0.0000 N   0  0  0  0  0  0  0  2  0  0  0  0
   -1.6693   -1.1148    0.0000 C   0  0  0  0  0  0  0  2  0  0  0  0
   -2.0818   -0.4003    0.0000 N   0  0  0  0  0  0  0  2  0  0  0  0
   -1.5298    0.2128    0.0000 C   0  0  0  0  0  0  0  2  0  0  0  0
  1  2  2  0        0
  2  3  1  0        0
  2  4  1  0        0
  4  5  1  0        0
  4  6  1  0        0
  6  7  1  0        0
  7  8  4  0        0
  8  9  4  0        0
  9 10  4  0        0
 10 11  4  0        0
  7 11  4  0        0
M  END
$$$$

CDXL12

  4  3  0  0  0  0  0  0  0  0999 V2000
   -1.0717    0.2062    0.0000 O   0  0  0  0  0  0  0  2  0  0  0  0
   -0.3572   -0.2062    0.0000 C   0  0  0  0  0  0  0  2  0  0  0  0
    0.3572    0.2062    0.0000 C   0  0  0  0  0  0  0  2  0  0  0  0
    1.0717   -0.2062    0.0000 C   0  0  0  0  0  0  0  2  0  0  0  0
  1  2  1  0        0
  2  3  1  0        0
  3  4  1  0        0
M  END
$$$$

CDXL12

  5  4  0  0  0  0  0  0  0  0999 V2000
   -1.4289   -0.2062    0.0000 O   0  0  0  0  0  0  0  2  0  0  0  0
   -0.7145    0.2062    0.0000 C   0  0  0  0  0  0  0  2  0  0  0  0
    0.0000   -0.2062    0.0000 C   0  0  0  0  0  0  0  2  0  0  0  0
    0.7145    0.2062    0.0000 C   0  0  0  0  0  0  0  2  0  0  0  0
    1.4289   -0.2062    0.0000 C   0  0  0  0  0  0  0  2  0  0  0  0
  1  2  1  0        0
  2  3  1  0        0
  3  4  1  0        0
  4  5  1  0        0
M  END
$$$$

CDXL12

  6  5  0  0  0  0  0  0  0  0999 V2000
   -1.7862   -0.2062    0.0000 O   0  0  0  0  0  0  0  2  0  0  0  0
   -1.0717    0.2062    0.0000 C   0  0  0  0  0  0  0  2  0  0  0  0
   -0.3572   -0.2062    0.0000 C   0  0  0  0  0  0  0  2  0  0  0  0
    0.3572    0.2062    0.0000 C   0  0  0  0  0  0  0  2  0  0  0  0
    1.0717   -0.2062    0.0000 C   0  0  0  0  0  0  0  2  0  0  0  0
    1.7862    0.2062    0.0000 C   0  0  0  0  0  0  0  2  0  0  0  0
  1  2  1  0        0
  2  3  1  0        0
  3  4  1  0        0
  4  5  1  0        0
  5  6  1  0        0
M  END
$$$$

CDXL12

  6  6  0  0  0  0  0  0  0  0999 V2000
    0.7145   -0.4125    0.0000 C   0  0  0  0  0  0  0  2  0  0  0  0
    0.0000   -0.8250    0.0000 C   0  0  0  0  0  0  0  2  0  0  0  0
   -0.7145   -0.4125    0.0000 C   0  0  0  0  0  0  0  2  0  0  0  0
   -0.7145    0.4125    0.0000 C   0  0  0  0  0  0  0  2  0  0  0  0
    0.0000    0.8250    0.0000 C   0  0  0  0  0  0  0  2  0  0  0  0
    0.7145    0.4125    0.0000 C   0  0  0  0  0  0  0  2  0  0  0  0
  1  2  4  0        0
  2  3  4  0        0
  3  4  4  0        0
  4  5  4  0        0
  5  6  4  0        0
  1  6  4  0        0
M  END
$$$$

CDXL12

  5  4  0  0  0  0  0  0  0  0999 V2000
    0.0000   -0.0000    0.0000 C   0  0  0  0  0  0  0  2  0  0  0  0
    0.0000   -0.8250    0.0000 Cl  0  0  0  0  0  0  0  2  0  0  0  0
    0.8250   -0.0000    0.0000 Cl  0  0  0  0  0  0  0  2  0  0  0  0
    0.0000    0.8250    0.0000 Cl  0  0  0  0  0  0  0  2  0  0  0  0
   -0.8250   -0.0000    0.0000 C   0  0  0  0  0  0  0  2  0  0  0  0
  1  2  1  0        0
  1  3  1  0        0
  1  4  1  0        0
  1  5  1  0        0
M  END
$$$$

CDXL12

 54 61  0  0  0  0  0  0  0  0999 V2000
    1.6121   -0.8897    0.0000 C   0  0  0  0  0  0  0  2  0  0  0  0
    1.6121   -1.7147    0.0000 C   0  0  0  0  0  0  0  2  0  0  0  0
    0.8976   -2.1272    0.0000 O   0  0  0  0  0  0  0  2  0  0  0  0
    0.1831   -1.7147    0.0000 C   0  0  0  0  0  0  0  2  0  0  0  0
    0.1831   -0.8897    0.0000 O   0  0  0  0  0  0  0  2  0  0  0  0
   -0.5313   -0.4772    0.0000 C   0  0  0  0  0  0  0  2  0  0  0  0
   -0.5313    0.3478    0.0000 C   0  0  0  0  0  0  0  2  0  0  0  0
   -1.2458   -0.8897    0.0000 C   0  0  0  0  0  0  0  2  0  0  0  0
   -1.9603   -0.4772    0.0000 O   0  0  0  0  0  0  0  2  0  0  0  0
   -2.6748   -0.8897    0.0000 C   0  0  0  0  0  0  0  2  0  0  0  0
   -3.3892   -0.4772    0.0000 O   0  0  0  0  0  0  0  2  0  0  0  0
   -4.1037   -0.8897    0.0000 C   0  0  0  0  0  0  0  2  0  0  0  0
   -4.8182   -0.4772    0.0000 C   0  0  0  0  0  0  0  2  0  0  0  0
   -4.1037   -1.7147    0.0000 C   0  0  0  0  0  0  0  2  0  0  0  0
   -4.8182   -2.1272    0.0000 O   0  0  0  0  0  0  0  2  0  0  0  0
   -5.5326   -1.7147    0.0000 C   0  0  0  0  0  0  0  2  0  0  0  0
   -5.5326   -0.8897    0.0000 O   0  0  0  0  0  0  0  2  0  0  0  0
   -6.2471   -0.4772    0.0000 C   0  0  0  0  0  0  0  2  0  0  0  0
   -6.2471    0.3478    0.0000 C   0  0  0  0  0  0  0  2  0  0  0  0
   -6.9616   -0.8897    0.0000 C   0  0  0  0  0  0  0  2  0  0  0  0
   -7.6760   -0.4772    0.0000 O   0  0  0  0  0  0  0  2  0  0  0  0
   -6.9616   -1.7147    0.0000 C   0  0  0  0  0  0  0  2  0  0  0  0
   -7.6760   -2.1272    0.0000 O   0  0  0  0  0  0  0  2  0  0  0  0
   -6.2471   -2.1272    0.0000 C   0  0  0  0  0  0  0  2  0  0  0  0
   -3.3892   -2.1272    0.0000 C   0  0  0  0  0  0  0  2  0  0  0  0
   -3.3892   -2.9522    0.0000 O   0  0  0  0  0  0  0  2  0  0  0  0
   -2.6748   -1.7147    0.0000 C   0  0  0  0  0  0  0  2  0  0  0  0
   -1.2458   -1.7147    0.0000 C   0  0  0  0  0  0  0  2  0  0  0  0
   -1.9603   -2.1272    0.0000 O   0  0  0  0  0  0  0  2  0  0  0  0
   -0.5313   -2.1272    0.0000 C   0  0  0  0  0  0  0  2  0  0  0  0
    2.3265   -2.1272    0.0000 C   0  0  0  0  0  0  0  2  0  0  0  0
    3.0410   -1.7147    0.0000 C   0  0  0  0  0  0  0  2  0  0  0  0
    3.7555   -2.1272    0.0000 C   0  0  0  0  0  0  0  2  0  0  0  0
    4.4700   -1.7147    0.0000 C   0  0  0  0  0  0  0  2  0  0  0  0
    4.4700   -0.8897    0.0000 C   0  0  0  0  0  0  0  2  0  0  0  0
    5.1844   -0.4772    0.0000 C   0  0  0  0  0  0  0  2  0  0  0  0
    5.2707   -1.2977    0.0000 O   0  0  0  0  0  0  0  2  0  0  0  0
    5.9690   -0.7322    0.0000 C   0  0  0  0  0  0  0  2  0  0  0  0
    6.4540   -0.0647    0.0000 C   0  0  0  0  0  0  0  2  0  0  0  0
    5.9690    0.6027    0.0000 C   0  0  0  0  0  0  0  2  0  0  0  0
    6.2240    1.3873    0.0000 C   0  0  0  0  0  0  0  2  0  0  0  0
    7.0086    1.6423    0.0000 C   0  0  0  0  0  0  0  2  0  0  0  0
    7.0086    2.4673    0.0000 C   0  0  0  0  0  0  0  2  0  0  0  0
    7.6760    2.9522    0.0000 O   0  0  0  0  0  0  0  2  0  0  0  0
    6.2240    2.7222    0.0000 O   0  0  0  0  0  0  0  2  0  0  0  0
    5.7391    2.0548    0.0000 C   0  0  0  0  0  0  0  2  0  0  0  0
    5.1844    0.3478    0.0000 C   0  0  0  0  0  0  0  2  0  0  0  0
    5.2707    1.1683    0.0000 C   0  0  0  0  0  0  0  2  0  0  0  0
    4.4700    0.7603    0.0000 C   0  0  0  0  0  0  0  2  0  0  0  0
    3.7555    0.3478    0.0000 C   0  0  0  0  0  0  0  2  0  0  0  0
    3.7555   -0.4772    0.0000 C   0  0  0  0  0  0  0  2  0  0  0  0
    3.0410   -0.8897    0.0000 C   0  0  0  0  0  0  0  2  0  0  0  0
    3.0410   -0.0647    0.0000 C   0  0  0  0  0  0  0  2  0  0  0  0
    2.3265   -0.4772    0.0000 C   0  0  0  0  0  0  0  2  0  0  0  0
  1  2  1  0        0
  2  3  1  0        0
  3  4  1  0        0
  4  5  1  0        0
  5  6  1  0        0
  6  7  1  0        0
  6  8  1  0        0
  8  9  1  0        0
  9 10  1  0        0
 10 11  1  0        0
 11 12  1  0        0
 12 13  1  0        0
 12 14  1  0        0
 14 15  1  0        0
 15 16  1  0        0
 16 17  1  0        0
 17 18  1  0        0
 18 19  1  0        0
 18 20  1  0        0
 20 21  1  0        0
 20 22  1  0        0
 22 23  1  0        0
 22 24  1  0        0
 16 24  1  0        0
 14 25  1  0        0
 25 26  1  0        0
 25 27  1  0        0
 10 27  1  0        0
  8 28  1  0        0
 28 29  1  0        0
 28 30  1  0        0
  4 30  1  0        0
  2 31  1  0        0
 31 32  1  0        0
 32 33  1  0        0
 33 34  1  0        0
 34 35  1  0        0
 35 36  1  0        0
 36 37  1  0        0
 36 38  1  0        0
 38 39  1  0        0
 39 40  1  0        0
 40 41  1  0        0
 41 42  2  0        0
 42 43  1  0        0
 43 44  2  0        0
 43 45  1  0        0
 45 46  1  0        0
 41 46  1  0        0
 40 47  1  0        0
 36 47  1  0        0
 47 48  1  0        0
 47 49  1  0        0
 49 50  1  0        0
 50 51  1  0        0
 35 51  1  0        0
 51 52  1  0        0
 32 52  1  0        0
 52 53  1  0        0
 52 54  1  0        0
  1 54  1  0        0
M  END
$$$$

CDXL12

 10  9  0  0  0  0  0  0  0  0999 V2000
   -0.6236    1.0079    0.0000 C   0  0  0  0  0  0  0  2  0  0  0  0
   -0.6236    0.1829    0.0000 C   0  0  0  0  0  0  0  2  0  0  0  0
    0.0909   -0.2296    0.0000 N   0  0  0  0  0  0  0  2  0  0  0  0
    0.9058   -0.1006    0.0000 Br  0  0  0  0  0  0  0  2  0  0  0  0
    0.4655   -0.9647    0.0000 C   0  0  0  0  0  0  0  2  0  0  0  0
    1.2893   -1.0079    0.0000 C   0  0  0  0  0  0  0  2  0  0  0  0
   -0.4924   -0.8130    0.0000 C   0  0  0  0  0  0  0  2  0  0  0  0
   -1.2893   -0.5995    0.0000 C   0  0  0  0  0  0  0  2  0  0  0  0
    0.2200    0.5852    0.0000 C   0  0  0  0  0  0  0  2  0  0  0  0
    0.9902    0.8809    0.0000 C   0  0  0  0  0  0  0  2  0  0  0  0
  1  2  1  0        0
  2  3  1  0        0
  3  4  1  0        0
  3  5  1  0        0
  5  6  1  0        0
  3  7  1  0        0
  7  8  1  0        0
  3  9  1  0        0
  9 10  1  0        0
M  END
$$$$

CDXL12

 16 17  0  0  0  0  0  0  0  0999 V2000
   -0.6529   -0.7697    0.0000 C   0  0  0  0  0  0  0  2  0  0  0  0
   -1.3673   -1.1822    0.0000 C   0  0  0  0  0  0  0  2  0  0  0  0
   -2.0818   -0.7697    0.0000 C   0  0  0  0  0  0  0  2  0  0  0  0
   -2.7963   -1.1822    0.0000 N   0  0  0  0  0  0  0  2  0  0  0  0
   -2.0818    0.0553    0.0000 C   0  0  0  0  0  0  0  2  0  0  0  0
   -1.3673    0.4678    0.0000 C   0  0  0  0  0  0  0  2  0  0  0  0
   -0.6529    0.0553    0.0000 C   0  0  0  0  0  0  0  2  0  0  0  0
    0.0616    0.4678    0.0000 S   0  0  0  0  0  0  0  2  0  0  0  0
    0.4741   -0.2467    0.0000 O   0  0  0  0  0  0  0  2  0  0  0  0
   -0.3509    1.1822    0.0000 O   0  0  0  0  0  0  0  2  0  0  0  0
    0.7761    0.8803    0.0000 N   0  0  0  0  0  0  0  2  0  0  0  0
    1.4906    0.4678    0.0000 C   0  0  0  0  0  0  0  2  0  0  0  0
    2.2442    0.8033    0.0000 N   0  0  0  0  0  0  0  2  0  0  0  0
    2.7963    0.1902    0.0000 C   0  0  0  0  0  0  0  2  0  0  0  0
    2.3838   -0.5242    0.0000 C   0  0  0  0  0  0  0  2  0  0  0  0
    1.5768   -0.3527    0.0000 S   0  0  0  0  0  0  0  2  0  0  0  0
  1  2  4  0        0
  2  3  4  0        0
  3  4  1  0        0
  3  5  4  0        0
  5  6  4  0        0
  6  7  4  0        0
  1  7  4  0        0
  7  8  1  0        0
  8  9  2  0        0
  8 10  2  0        0
  8 11  1  0        0
 11 12  1  0        0
 12 13  4  0        0
 13 14  4  0        0
 14 15  4  0        0
 15 16  4  0        0
 12 16  4  0        0
M  END
$$$$

CDXL12

  8  7  0  0  0  0  0  0  0  0999 V2000
    0.7145    1.0313    0.0000 O   0  0  0  0  0  0  0  2  0  0  0  0
    0.7145    0.2062    0.0000 C   0  0  0  0  0  0  0  2  0  0  0  0
    1.4289   -0.2062    0.0000 O   0  0  0  0  0  0  0  2  0  0  0  0
    0.0000   -0.2062    0.0000 C   0  0  0  0  0  0  0  2  0  0  0  0
    0.0000   -1.0313    0.0000 N   0  0  0  0  0  0  0  2  0  0  0  0
   -0.7145    0.2062    0.0000 C   0  0  0  0  0  0  0  2  0  0  0  0
   -0.7145    1.0313    0.0000 O   0  0  0  0  0  0  0  2  0  0  0  0
   -1.4289   -0.2062    0.0000 C   0  0  0  0  0  0  0  2  0  0  0  0
  1  2  2  0        0
  2  3  1  0        0
  2  4  1  0        0
  4  5  1  0        0
  4  6  1  0        0
  6  7  1  0        0
  6  8  1  0        0
M  END
$$$$

CDXL12

 21 22  0  0  0  0  0  0  0  0999 V2000
    2.5006    2.2687    0.0000 C   0  0  0  0  0  0  0  2  0  0  0  0
    1.7862    2.6812    0.0000 O   0  0  0  0  0  0  0  2  0  0  0  0
    1.0717    2.2687    0.0000 C   0  0  0  0  0  0  0  2  0  0  0  0
    1.0717    1.4437    0.0000 C   0  0  0  0  0  0  0  2  0  0  0  0
    0.3572    1.0313    0.0000 C   0  0  0  0  0  0  0  2  0  0  0  0
   -0.3572    1.4437    0.0000 C   0  0  0  0  0  0  0  2  0  0  0  0
   -0.3572    2.2687    0.0000 C   0  0  0  0  0  0  0  2  0  0  0  0
    0.3572    2.6812    0.0000 C   0  0  0  0  0  0  0  2  0  0  0  0
   -1.0717    1.0313    0.0000 C   0  0  0  0  0  0  0  2  0  0  0  0
   -1.0717    0.2063    0.0000 C   0  0  0  0  0  0  0  2  0  0  0  0
   -0.3572   -0.2062    0.0000 C   0  0  0  0  0  0  0  2  0  0  0  0
   -0.3572   -1.0312    0.0000 C   0  0  0  0  0  0  0  2  0  0  0  0
   -1.0717   -1.4437    0.0000 C   0  0  0  0  0  0  0  2  0  0  0  0
   -1.0717   -2.2687    0.0000 O   0  0  0  0  0  0  0  2  0  0  0  0
   -1.7862   -2.6812    0.0000 C   0  0  0  0  0  0  0  2  0  0  0  0
   -1.7862   -1.0312    0.0000 C   0  0  0  0  0  0  0  2  0  0  0  0
   -1.7862   -0.2062    0.0000 C   0  0  0  0  0  0  0  2  0  0  0  0
   -1.7862    1.4437    0.0000 C   0  0  0  0  0  0  0  2  0  0  0  0
   -2.5006    1.0313    0.0000 Cl  0  0  0  0  0  0  0  2  0  0  0  0
   -1.7862    2.2687    0.0000 Cl  0  0  0  0  0  0  0  2  0  0  0  0
   -2.5006    1.8562    0.0000 Cl  0  0  0  0  0  0  0  2  0  0  0  0
  1  2  1  0        0
  2  3  1  0        0
  3  4  4  0        0
  4  5  4  0        0
  5  6  4  0        0
  6  7  4  0        0
  7  8  4  0        0
  3  8  4  0        0
  6  9  1  0        0
  9 10  1  0        0
 10 11  4  0        0
 11 12  4  0        0
 12 13  4  0        0
 13 14  1  0        0
 14 15  1  0        0
 13 16  4  0        0
 16 17  4  0        0
 10 17  4  0        0
  9 18  1  0        0
 18 19  1  0        0
 18 20  1  0        0
 18 21  1  0        0
M  END
$$$$

CDXL12

 18 20  0  0  0  0  0  0  0  0999 V2000
   -0.3572   -1.6500    0.0000 O   0  0  0  0  0  0  0  2  0  0  0  0
   -0.3572   -0.8250    0.0000 C   0  0  0  0  0  0  0  2  0  0  0  0
   -1.0717   -0.4125    0.0000 C   0  0  0  0  0  0  0  2  0  0  0  0
   -1.0717    0.4125    0.0000 C   0  0  0  0  0  0  0  2  0  0  0  0
   -0.3572    0.8250    0.0000 C   0  0  0  0  0  0  0  2  0  0  0  0
   -0.3572    1.6500    0.0000 O   0  0  0  0  0  0  0  2  0  0  0  0
    0.3572    0.4125    0.0000 C   0  0  0  0  0  0  0  2  0  0  0  0
    1.0717    0.8250    0.0000 C   0  0  0  0  0  0  0  2  0  0  0  0
    1.0717    1.6500    0.0000 O   0  0  0  0  0  0  0  2  0  0  0  0
    1.7862    0.4125    0.0000 C   0  0  0  0  0  0  0  2  0  0  0  0
    2.5006    0.8250    0.0000 O   0  0  0  0  0  0  0  2  0  0  0  0
    1.7862   -0.4125    0.0000 C   0  0  0  0  0  0  0  2  0  0  0  0
    1.0717   -0.8250    0.0000 C   0  0  0  0  0  0  0  2  0  0  0  0
    0.3572   -0.4125    0.0000 C   0  0  0  0  0  0  0  2  0  0  0  0
   -1.7862    0.8250    0.0000 C   0  0  0  0  0  0  0  2  0  0  0  0
   -2.5006    0.4125    0.0000 C   0  0  0  0  0  0  0  2  0  0  0  0
   -2.5006   -0.4125    0.0000 C   0  0  0  0  0  0  0  2  0  0  0  0
   -1.7862   -0.8250    0.0000 C   0  0  0  0  0  0  0  2  0  0  0  0
  1  2  2  0        0
  2  3  1  0        0
  3  4  4  0        0
  4  5  1  0        0
  5  6  2  0        0
  5  7  1  0        0
  7  8  4  0        0
  8  9  1  0        0
  8 10  4  0        0
 10 11  1  0        0
 10 12  4  0        0
 12 13  4  0        0
 13 14  4  0        0
  2 14  1  0        0
  7 14  4  0        0
  4 15  4  0        0
 15 16  4  0        0
 16 17  4  0        0
 17 18  4  0        0
  3 18  4  0        0
M  END
$$$$

CDXL12

 18 19  0  0  0  0  0  0  0  0999 V2000
    2.1434   -0.8250    0.0000 Cl  0  0  0  0  0  0  0  2  0  0  0  0
    1.4289   -1.2375    0.0000 C   0  0  0  0  0  0  0  2  0  0  0  0
    1.4289   -2.0625    0.0000 Cl  0  0  0  0  0  0  0  2  0  0  0  0
    0.7145   -0.8250    0.0000 C   0  0  0  0  0  0  0  2  0  0  0  0
    0.0000   -1.2375    0.0000 C   0  0  0  0  0  0  0  2  0  0  0  0
    0.0000   -2.0625    0.0000 C   0  0  0  0  0  0  0  2  0  0  0  0
   -0.7145   -2.4750    0.0000 C   0  0  0  0  0  0  0  2  0  0  0  0
   -1.4289   -2.0625    0.0000 C   0  0  0  0  0  0  0  2  0  0  0  0
   -2.1434   -2.4750    0.0000 Cl  0  0  0  0  0  0  0  2  0  0  0  0
   -1.4289   -1.2375    0.0000 C   0  0  0  0  0  0  0  2  0  0  0  0
   -0.7145   -0.8250    0.0000 C   0  0  0  0  0  0  0  2  0  0  0  0
    0.7145   -0.0000    0.0000 C   0  0  0  0  0  0  0  2  0  0  0  0
    0.0000    0.4125    0.0000 C   0  0  0  0  0  0  0  2  0  0  0  0
    0.0000    1.2375    0.0000 C   0  0  0  0  0  0  0  2  0  0  0  0
    0.7145    1.6500    0.0000 C   0  0  0  0  0  0  0  2  0  0  0  0
    0.7145    2.4750    0.0000 Cl  0  0  0  0  0  0  0  2  0  0  0  0
    1.4289    1.2375    0.0000 C   0  0  0  0  0  0  0  2  0  0  0  0
    1.4289    0.4125    0.0000 C   0  0  0  0  0  0  0  2  0  0  0  0
  1  2  1  0        0
  2  3  1  0        0
  2  4  2  0        0
  4  5  1  0        0
  5  6  4  0        0
  6  7  4  0        0
  7  8  4  0        0
  8  9  1  0        0
  8 10  4  0        0
 10 11  4  0        0
  5 11  4  0        0
  4 12  1  0        0
 12 13  4  0        0
 13 14  4  0        0
 14 15  4  0        0
 15 16  1  0        0
 15 17  4  0        0
 17 18  4  0        0
 12 18  4  0        0
M  END
$$$$

CDXL12

 20 21  0  0  0  0  0  0  0  0999 V2000
    2.5006    2.2687    0.0000 C   0  0  0  0  0  0  0  2  0  0  0  0
    1.7862    2.6812    0.0000 C   0  0  0  0  0  0  0  2  0  0  0  0
    1.0717    2.2687    0.0000 C   0  0  0  0  0  0  0  2  0  0  0  0
    1.0717    1.4437    0.0000 C   0  0  0  0  0  0  0  2  0  0  0  0
    0.3572    1.0313    0.0000 C   0  0  0  0  0  0  0  2  0  0  0  0
   -0.3572    1.4437    0.0000 C   0  0  0  0  0  0  0  2  0  0  0  0
   -0.3572    2.2687    0.0000 C   0  0  0  0  0  0  0  2  0  0  0  0
    0.3572    2.6812    0.0000 C   0  0  0  0  0  0  0  2  0  0  0  0
   -1.0717    1.0313    0.0000 C   0  0  0  0  0  0  0  2  0  0  0  0
   -1.7862    1.4437    0.0000 C   0  0  0  0  0  0  0  2  0  0  0  0
   -2.5006    1.0313    0.0000 Cl  0  0  0  0  0  0  0  2  0  0  0  0
   -1.7862    2.2687    0.0000 Cl  0  0  0  0  0  0  0  2  0  0  0  0
   -1.0717    0.2063    0.0000 C   0  0  0  0  0  0  0  2  0  0  0  0
   -0.3572   -0.2062    0.0000 C   0  0  0  0  0  0  0  2  0  0  0  0
   -0.3572   -1.0312    0.0000 C   0  0  0  0  0  0  0  2  0  0  0  0
   -1.0717   -1.4437    0.0000 C   0  0  0  0  0  0  0  2  0  0  0  0
   -1.0717   -2.2687    0.0000 C   0  0  0  0  0  0  0  2  0  0  0  0
   -1.7862   -2.6812    0.0000 C   0  0  0  0  0  0  0  2  0  0  0  0
   -1.7862   -1.0312    0.0000 C   0  0  0  0  0  0  0  2  0  0  0  0
   -1.7862   -0.2062    0.0000 C   0  0  0  0  0  0  0  2  0  0  0  0
  1  2  1  0        0
  2  3  1  0        0
  3  4  4  0        0
  4  5  4  0        0
  5  6  4  0        0
  6  7  4  0        0
  7  8  4  0        0
  3  8  4  0        0
  6  9  1  0        0
  9 10  1  0        0
 10 11  1  0        0
 10 12  1  0        0
  9 13  1  0        0
 13 14  4  0        0
 14 15  4  0        0
 15 16  4  0        0
 16 17  1  0        0
 17 18  1  0        0
 16 19  4  0        0
 19 20  4  0        0
 13 20  4  0        0
M  END
$$$$

CDXL12

 15 16  0  0  0  0  0  0  0  0999 V2000
    0.8097   -1.9232    0.0000 O   0  0  0  0  0  0  0  2  0  0  0  0
    1.3617   -1.3101    0.0000 C   0  0  0  0  0  0  0  2  0  0  0  0
    2.1687   -1.4816    0.0000 O   0  0  0  0  0  0  0  2  0  0  0  0
    1.1068   -0.5254    0.0000 C   0  0  0  0  0  0  0  2  0  0  0  0
    1.6588    0.0877    0.0000 N   0  0  0  0  0  0  0  2  0  0  0  0
    0.2998   -0.3539    0.0000 C   0  0  0  0  0  0  0  2  0  0  0  0
    0.0449    0.4307    0.0000 C   0  0  0  0  0  0  0  2  0  0  0  0
   -0.7398    0.6857    0.0000 C   0  0  0  0  0  0  0  2  0  0  0  0
   -0.7398    1.5107    0.0000 C   0  0  0  0  0  0  0  2  0  0  0  0
    0.0449    1.7656    0.0000 N   0  0  0  0  0  0  0  2  0  0  0  0
    0.5298    1.0982    0.0000 C   0  0  0  0  0  0  0  2  0  0  0  0
   -1.4542    1.9232    0.0000 C   0  0  0  0  0  0  0  2  0  0  0  0
   -2.1687    1.5107    0.0000 C   0  0  0  0  0  0  0  2  0  0  0  0
   -2.1687    0.6857    0.0000 C   0  0  0  0  0  0  0  2  0  0  0  0
   -1.4542    0.2732    0.0000 C   0  0  0  0  0  0  0  2  0  0  0  0
  1  2  2  0        0
  2  3  1  0        0
  2  4  1  0        0
  4  5  1  0        0
  4  6  1  0        0
  6  7  1  0        0
  7  8  4  0        0
  8  9  4  0        0
  9 10  4  0        0
 10 11  4  0        0
  7 11  4  0        0
  9 12  4  0        0
 12 13  4  0        0
 13 14  4  0        0
 14 15  4  0        0
  8 15  4  0        0
M  END
$$$$

CDXL12

 10 11  0  0  0  0  0  0  0  0999 V2000
   -1.3492   -0.0000    0.0000 N   0  0  0  0  0  0  0  2  0  0  0  0
   -0.6348    0.4125    0.0000 C   0  0  0  0  0  0  0  2  0  0  0  0
    0.0797   -0.0000    0.0000 C   0  0  0  0  0  0  0  2  0  0  0  0
    0.8643    0.2549    0.0000 N   0  0  0  0  0  0  0  2  0  0  0  0
    1.3492   -0.4125    0.0000 C   0  0  0  0  0  0  0  2  0  0  0  0
    0.8643   -1.0799    0.0000 N   0  0  0  0  0  0  0  2  0  0  0  0
    0.0797   -0.8250    0.0000 C   0  0  0  0  0  0  0  2  0  0  0  0
   -0.6348   -1.2375    0.0000 N   0  0  0  0  0  0  0  2  0  0  0  0
   -1.3492   -0.8250    0.0000 C   0  0  0  0  0  0  0  2  0  0  0  0
   -0.6348    1.2375    0.0000 N   0  0  0  0  0  0  0  2  0  0  0  0
  1  2  4  0        0
  2  3  4  0        0
  3  4  4  0        0
  4  5  4  0        0
  5  6  4  0        0
  6  7  4  0        0
  3  7  4  0        0
  7  8  4  0        0
  8  9  4  0        0
  1  9  4  0        0
  2 10  1  0        0
M  END
$$$$

CDXL12

  9  8  0  0  0  0  0  0  0  0999 V2000
    1.0717    1.0313    0.0000 O   0  0  0  0  0  0  0  2  0  0  0  0
    1.0717    0.2062    0.0000 C   0  0  0  0  0  0  0  2  0  0  0  0
    1.7862   -0.2062    0.0000 O   0  0  0  0  0  0  0  2  0  0  0  0
    0.3572   -0.2062    0.0000 C   0  0  0  0  0  0  0  2  0  0  0  0
    0.3572   -1.0313    0.0000 N   0  0  0  0  0  0  0  2  0  0  0  0
   -0.3572    0.2062    0.0000 C   0  0  0  0  0  0  0  2  0  0  0  0
   -1.0717   -0.2062    0.0000 C   0  0  0  0  0  0  0  2  0  0  0  0
   -1.7862    0.2062    0.0000 C   0  0  0  0  0  0  0  2  0  0  0  0
   -0.3572    1.0313    0.0000 C   0  0  0  0  0  0  0  2  0  0  0  0
  1  2  2  0        0
  2  3  1  0        0
  2  4  1  0        0
  4  5  1  0        0
  4  6  1  0        0
  6  7  1  0        0
  7  8  1  0        0
  6  9  1  0        0
M  END
$$$$

CDXL12

 11 12  0  0  0  0  0  0  0  0999 V2000
   -0.9920    0.0000    0.0000 N   0  0  0  0  0  0  0  2  0  0  0  0
   -0.9920   -0.8250    0.0000 C   0  0  0  0  0  0  0  2  0  0  0  0
   -1.7065   -1.2375    0.0000 N   0  0  0  0  0  0  0  2  0  0  0  0
   -0.2775   -1.2375    0.0000 N   0  0  0  0  0  0  0  2  0  0  0  0
    0.4369   -0.8250    0.0000 C   0  0  0  0  0  0  0  2  0  0  0  0
    1.2216   -1.0799    0.0000 N   0  0  0  0  0  0  0  2  0  0  0  0
    1.7065   -0.4125    0.0000 C   0  0  0  0  0  0  0  2  0  0  0  0
    1.2216    0.2549    0.0000 N   0  0  0  0  0  0  0  2  0  0  0  0
    0.4369   -0.0000    0.0000 C   0  0  0  0  0  0  0  2  0  0  0  0
   -0.2775    0.4125    0.0000 C   0  0  0  0  0  0  0  2  0  0  0  0
   -0.2775    1.2375    0.0000 O   0  0  0  0  0  0  0  2  0  0  0  0
  1  2  1  0        0
  2  3  1  0        0
  2  4  1  0        0
  4  5  1  0        0
  5  6  4  0        0
  6  7  4  0        0
  7  8  4  0        0
  8  9  4  0        0
  5  9  4  0        0
  9 10  1  0        0
  1 10  1  0        0
 10 11  1  0        0
M  END
$$$$

CDXL12

 10 10  0  0  0  0  0  0  0  0999 V2000
    1.0717    1.2375    0.0000 O   0  0  0  0  0  0  0  2  0  0  0  0
    1.0717    0.4125    0.0000 C   0  0  0  0  0  0  0  2  0  0  0  0
    1.7862   -0.0000    0.0000 O   0  0  0  0  0  0  0  2  0  0  0  0
    0.3572   -0.0000    0.0000 C   0  0  0  0  0  0  0  2  0  0  0  0
   -0.3572    0.4125    0.0000 C   0  0  0  0  0  0  0  2  0  0  0  0
   -1.0717   -0.0000    0.0000 C   0  0  0  0  0  0  0  2  0  0  0  0
   -1.0717   -0.8250    0.0000 C   0  0  0  0  0  0  0  2  0  0  0  0
   -0.3572   -1.2375    0.0000 C   0  0  0  0  0  0  0  2  0  0  0  0
    0.3572   -0.8250    0.0000 C   0  0  0  0  0  0  0  2  0  0  0  0
   -1.7862   -1.2375    0.0000 Cl  0  0  0  0  0  0  0  2  0  0  0  0
  1  2  2  0        0
  2  3  1  0        0
  2  4  1  0        0
  4  5  4  0        0
  5  6  4  0        0
  6  7  4  0        0
  7  8  4  0        0
  8  9  4  0        0
  4  9  4  0        0
  7 10  1  0        0
M  END
$$$$

CDXL12

 12 11  0  0  0  0  0  0  0  0999 V2000
    2.1434    1.0313    0.0000 O   0  0  0  0  0  0  0  2  0  0  0  0
    2.1434    0.2062    0.0000 C   0  0  0  0  0  0  0  2  0  0  0  0
    2.8579   -0.2062    0.0000 O   0  0  0  0  0  0  0  2  0  0  0  0
    1.4289   -0.2062    0.0000 C   0  0  0  0  0  0  0  2  0  0  0  0
    1.4289   -1.0313    0.0000 N   0  0  0  0  0  0  0  2  0  0  0  0
    0.7145    0.2062    0.0000 C   0  0  0  0  0  0  0  2  0  0  0  0
    0.0000   -0.2062    0.0000 C   0  0  0  0  0  0  0  2  0  0  0  0
   -0.7145    0.2062    0.0000 C   0  0  0  0  0  0  0  2  0  0  0  0
   -1.4289   -0.2062    0.0000 N   0  0  0  0  0  0  0  2  0  0  0  0
   -2.1434    0.2062    0.0000 C   0  0  0  0  0  0  0  2  0  0  0  0
   -2.1434    1.0312    0.0000 N   0  0  0  0  0  0  0  2  0  0  0  0
   -2.8579   -0.2062    0.0000 N   0  0  0  0  0  0  0  2  0  0  0  0
  1  2  2  0        0
  2  3  1  0        0
  2  4  1  0        0
  4  5  1  0        0
  4  6  1  0        0
  6  7  1  0        0
  7  8  1  0        0
  8  9  1  0        0
  9 10  1  0        0
 10 11  2  0        0
 10 12  1  0        0
M  END
$$$$

CDXL12

  1  0  0  0  0  0  0  0  0  0999 V2000
    0.0000    0.0000    0.0000 C   0  0  0  0  0  0  0  2  0  0  0  0
M  END
$$$$

CDXL12

  2  1  0  0  0  0  0  0  0  0999 V2000
   -0.4125    0.0000    0.0000 C   0  0  0  0  0  0  0  2  0  0  0  0
    0.4125    0.0000    0.0000 C   0  0  0  0  0  0  0  2  0  0  0  0
  1  2  1  0        0
M  END
$$$$

CDXL12

  2  1  0  0  0  0  0  0  0  0999 V2000
   -0.4125    0.0000    0.0000 C   0  0  0  0  0  0  0  2  0  0  0  0
    0.4125    0.0000    0.0000 C   0  0  0  0  0  0  0  2  0  0  0  0
  1  2  2  0        0
M  END
$$$$

CDXL12

  2  1  0  0  0  0  0  0  0  0999 V2000
   -0.4125    0.0000    0.0000 C   0  0  0  0  0  0  0  2  0  0  0  0
    0.4125    0.0000    0.0000 C   0  0  0  0  0  0  0  2  0  0  0  0
  1  2  3  0        0
M  END
$$$$

CDXL12

  2  1  0  0  0  0  0  0  0  0999 V2000
   -0.4125    0.0000    0.0000 C   0  0  0  0  0  0  0  2  0  0  0  0
    0.4125    0.0000    0.0000 I   0  0  0  0  0  0  0  2  0  0  0  0
  1  2  1  0        0
M  END
$$$$

CDXL12

  2  1  0  0  0  0  0  0  0  0999 V2000
    0.4125    0.0000    0.0000 N   0  0  0  0  0  0  0  2  0  0  0  0
   -0.4125    0.0000    0.0000 C   0  0  0  0  0  0  0  2  0  0  0  0
  1  2  1  0        0
M  END
$$$$

CDXL12

  2  1  0  0  0  0  0  0  0  0999 V2000
    0.4125    0.0000    0.0000 S   0  0  0  0  0  0  0  2  0  0  0  0
   -0.4125    0.0000    0.0000 C   0  0  0  0  0  0  0  2  0  0  0  0
  1  2  1  0        0
M  END
$$$$

CDXL12

  3  2  0  0  0  0  0  0  0  0999 V2000
   -0.7145   -0.2062    0.0000 Br  0  0  0  0  0  0  0  2  0  0  0  0
    0.0000    0.2062    0.0000 C   0  0  0  0  0  0  0  2  0  0  0  0
    0.7145   -0.2062    0.0000 Br  0  0  0  0  0  0  0  2  0  0  0  0
  1  2  1  0        0
  2  3  1  0        0
M  END
$$$$

CDXL12

  3  2  0  0  0  0  0  0  0  0999 V2000
    0.7145   -0.2062    0.0000 Br  0  0  0  0  0  0  0  2  0  0  0  0
    0.0000    0.2062    0.0000 C   0  0  0  0  0  0  0  2  0  0  0  0
   -0.7145   -0.2062    0.0000 C   0  0  0  0  0  0  0  2  0  0  0  0
  1  2  1  0        0
  2  3  1  0        0
M  END
$$$$

CDXL12

  3  2  0  0  0  0  0  0  0  0999 V2000
   -0.7145   -0.2062    0.0000 Br  0  0  0  0  0  0  0  2  0  0  0  0
    0.0000    0.2062    0.0000 C   0  0  0  0  0  0  0  2  0  0  0  0
    0.7145   -0.2062    0.0000 Cl  0  0  0  0  0  0  0  2  0  0  0  0
  1  2  1  0        0
  2  3  1  0        0
M  END
$$$$

CDXL12

  3  2  0  0  0  0  0  0  0  0999 V2000
    0.0000    0.2062    0.0000 C   0  0  0  0  0  0  0  2  0  0  0  0
    0.7145   -0.2062    0.0000 C   0  0  0  0  0  0  0  2  0  0  0  0
   -0.7145   -0.2062    0.0000 C   0  0  0  0  0  0  0  2  0  0  0  0
  1  2  1  0        0
  1  3  1  0        0
M  END
$$$$

CDXL12

  3  2  0  0  0  0  0  0  0  0999 V2000
    0.0000    0.0000    0.0000 C   0  0  0  0  0  0  0  2  0  0  0  0
   -0.8250    0.0000    0.0000 C   0  0  0  0  0  0  0  2  0  0  0  0
    0.8250    0.0000    0.0000 C   0  0  0  0  0  0  0  2  0  0  0  0
  1  2  3  0        0
  1  3  1  0        0
M  END
$$$$

CDXL12

  3  2  0  0  0  0  0  0  0  0999 V2000
    0.7145   -0.2062    0.0000 Cl  0  0  0  0  0  0  0  2  0  0  0  0
    0.0000    0.2062    0.0000 C   0  0  0  0  0  0  0  2  0  0  0  0
   -0.7145   -0.2062    0.0000 C   0  0  0  0  0  0  0  2  0  0  0  0
  1  2  1  0        0
  2  3  1  0        0
M  END
$$$$

CDXL12

  3  2  0  0  0  0  0  0  0  0999 V2000
    0.0000    0.2062    0.0000 C   0  0  0  0  0  0  0  2  0  0  0  0
    0.7145   -0.2062    0.0000 C   0  0  0  0  0  0  0  2  0  0  0  0
   -0.7145   -0.2062    0.0000 Cl  0  0  0  0  0  0  0  2  0  0  0  0
  1  2  2  0        0
  1  3  1  0        0
M  END
$$$$

CDXL12

  3  2  0  0  0  0  0  0  0  0999 V2000
    0.0000    0.2062    0.0000 C   0  0  0  0  0  0  0  2  0  0  0  0
   -0.7145   -0.2062    0.0000 C   0  0  0  0  0  0  0  2  0  0  0  0
    0.7145   -0.2062    0.0000 I   0  0  0  0  0  0  0  2  0  0  0  0
  1  2  1  0        0
  1  3  1  0        0
M  END
$$$$

CDXL12

  3  2  0  0  0  0  0  0  0  0999 V2000
   -0.8250    0.0000    0.0000 N   0  0  0  0  0  0  0  2  0  0  0  0
    0.0000    0.0000    0.0000 C   0  0  0  0  0  0  0  2  0  0  0  0
    0.8250    0.0000    0.0000 C   0  0  0  0  0  0  0  2  0  0  0  0
  1  2  3  0        0
  2  3  1  0        0
M  END
$$$$

CDXL12

  3  2  0  0  0  0  0  0  0  0999 V2000
   -0.7145   -0.2062    0.0000 Cl  0  0  0  0  0  0  0  2  0  0  0  0
    0.0000    0.2062    0.0000 C   0  0  0  0  0  0  0  2  0  0  0  0
    0.7145   -0.2062    0.0000 Cl  0  0  0  0  0  0  0  2  0  0  0  0
  1  2  1  0        0
  2  3  1  0        0
M  END
$$$$

CDXL12

  3  2  0  0  0  0  0  0  0  0999 V2000
    0.7145   -0.2062    0.0000 O   0  0  0  0  0  0  0  2  0  0  0  0
    0.0000    0.2062    0.0000 C   0  0  0  0  0  0  0  2  0  0  0  0
   -0.7145   -0.2062    0.0000 N   0  0  0  0  0  0  0  2  0  0  0  0
  1  2  2  0        0
  2  3  1  0        0
M  END
$$$$

CDXL12

  3  2  0  0  0  0  0  0  0  0999 V2000
    0.0000    0.0000    0.0000 C   0  0  0  0  0  0  0  2  0  0  0  0
    0.8250    0.0000    0.0000 S   0  0  0  0  0  0  0  2  0  0  0  0
   -0.8250    0.0000    0.0000 S   0  0  0  0  0  0  0  2  0  0  0  0
  1  2  2  0        0
  1  3  2  0        0
M  END
$$$$

CDXL12

  3  2  0  0  0  0  0  0  0  0999 V2000
    0.0000    0.2062    0.0000 S   0  0  0  0  0  0  0  2  0  0  0  0
   -0.7145   -0.2062    0.0000 C   0  0  0  0  0  0  0  2  0  0  0  0
    0.7145   -0.2062    0.0000 C   0  0  0  0  0  0  0  2  0  0  0  0
  1  2  1  0        0
  1  3  1  0        0
M  END
$$$$

CDXL12

  3  3  0  0  0  0  0  0  0  0999 V2000
   -0.4125   -0.3572    0.0000 C   0  0  0  0  0  0  0  2  0  0  0  0
    0.0000    0.3572    0.0000 C   0  0  0  0  0  0  0  2  0  0  0  0
    0.4125   -0.3572    0.0000 C   0  0  0  0  0  0  0  2  0  0  0  0
  1  2  1  0        0
  2  3  1  0        0
  1  3  1  0        0
M  END
$$$$

CDXL12

  3  3  0  0  0  0  0  0  0  0999 V2000
   -0.4125   -0.3572    0.0000 O   0  0  0  0  0  0  0  2  0  0  0  0
    0.0000    0.3572    0.0000 C   0  0  0  0  0  0  0  2  0  0  0  0
    0.4125   -0.3572    0.0000 C   0  0  0  0  0  0  0  2  0  0  0  0
  1  2  1  0        0
  2  3  1  0        0
  1  3  1  0        0
M  END
$$$$

CDXL12

  4  3  0  0  0  0  0  0  0  0999 V2000
   -0.7145   -0.6187    0.0000 Br  0  0  0  0  0  0  0  2  0  0  0  0
    0.0000   -0.2062    0.0000 C   0  0  0  0  0  0  0  2  0  0  0  0
    0.7145   -0.6188    0.0000 Br  0  0  0  0  0  0  0  2  0  0  0  0
    0.0000    0.6188    0.0000 Br  0  0  0  0  0  0  0  2  0  0  0  0
  1  2  1  0        0
  2  3  1  0        0
  2  4  1  0        0
M  END
$$$$

CDXL12

  4  3  0  0  0  0  0  0  0  0999 V2000
    0.0000    0.6188    0.0000 Br  0  0  0  0  0  0  0  2  0  0  0  0
    0.0000   -0.2062    0.0000 C   0  0  0  0  0  0  0  2  0  0  0  0
    0.7145   -0.6188    0.0000 C   0  0  0  0  0  0  0  2  0  0  0  0
   -0.7145   -0.6187    0.0000 C   0  0  0  0  0  0  0  2  0  0  0  0
  1  2  1  0        0
  2  3  1  0        0
  2  4  1  0        0
M  END
$$$$

CDXL12

  4  3  0  0  0  0  0  0  0  0999 V2000
   -0.7145   -0.6187    0.0000 Br  0  0  0  0  0  0  0  2  0  0  0  0
    0.0000   -0.2062    0.0000 C   0  0  0  0  0  0  0  2  0  0  0  0
    0.7145   -0.6188    0.0000 Cl  0  0  0  0  0  0  0  2  0  0  0  0
    0.0000    0.6188    0.0000 Cl  0  0  0  0  0  0  0  2  0  0  0  0
  1  2  1  0        0
  2  3  1  0        0
  2  4  1  0        0
M  END
$$$$

CDXL12

  4  3  0  0  0  0  0  0  0  0999 V2000
    0.0000   -0.2062    0.0000 C   0  0  0  0  0  0  0  2  0  0  0  0
    0.0000    0.6188    0.0000 C   0  0  0  0  0  0  0  2  0  0  0  0
    0.7145   -0.6188    0.0000 C   0  0  0  0  0  0  0  2  0  0  0  0
   -0.7145   -0.6187    0.0000 C   0  0  0  0  0  0  0  2  0  0  0  0
  1  2  1  0        0
  1  3  1  0        0
  1  4  1  0        0
M  END
$$$$

CDXL12

  4  3  0  0  0  0  0  0  0  0999 V2000
    0.0000   -0.2062    0.0000 C   0  0  0  0  0  0  0  2  0  0  0  0
    0.0000    0.6188    0.0000 Cl  0  0  0  0  0  0  0  2  0  0  0  0
    0.7145   -0.6188    0.0000 C   0  0  0  0  0  0  0  2  0  0  0  0
   -0.7145   -0.6187    0.0000 C   0  0  0  0  0  0  0  2  0  0  0  0
  1  2  1  0        0
  1  3  1  0        0
  1  4  1  0        0
M  END
$$$$

CDXL12

  4  3  0  0  0  0  0  0  0  0999 V2000
    0.0000   -0.2062    0.0000 C   0  0  0  0  0  0  0  2  0  0  0  0
    0.7145   -0.6188    0.0000 C   0  0  0  0  0  0  0  2  0  0  0  0
   -0.7145   -0.6187    0.0000 C   0  0  0  0  0  0  0  2  0  0  0  0
    0.0000    0.6188    0.0000 I   0  0  0  0  0  0  0  2  0  0  0  0
  1  2  1  0        0
  1  3  1  0        0
  1  4  1  0        0
M  END
$$$$

CDXL12

  4  3  0  0  0  0  0  0  0  0999 V2000
    0.0000    0.6188    0.0000 N   0  0  0  0  0  0  0  2  0  0  0  0
    0.0000   -0.2062    0.0000 C   0  0  0  0  0  0  0  2  0  0  0  0
    0.7145   -0.6188    0.0000 C   0  0  0  0  0  0  0  2  0  0  0  0
   -0.7145   -0.6187    0.0000 C   0  0  0  0  0  0  0  2  0  0  0  0
  1  2  1  0        0
  2  3  1  0        0
  2  4  1  0        0
M  END
$$$$

CDXL12

  4  3  0  0  0  0  0  0  0  0999 V2000
    0.0000   -0.2062    0.0000 C   0  0  0  0  0  0  0  2  0  0  0  0
    0.7145   -0.6188    0.0000 Cl  0  0  0  0  0  0  0  2  0  0  0  0
    0.0000    0.6188    0.0000 Cl  0  0  0  0  0  0  0  2  0  0  0  0
   -0.7145   -0.6187    0.0000 C   0  0  0  0  0  0  0  2  0  0  0  0
  1  2  1  0        0
  1  3  1  0        0
  1  4  1  0        0
M  END
$$$$

CDXL12

  4  3  0  0  0  0  0  0  0  0999 V2000
    0.0000   -0.2062    0.0000 C   0  0  0  0  0  0  0  2  0  0  0  0
    0.0000    0.6188    0.0000 C   0  0  0  0  0  0  0  2  0  0  0  0
   -0.7145   -0.6187    0.0000 Cl  0  0  0  0  0  0  0  2  0  0  0  0
    0.7145   -0.6188    0.0000 Cl  0  0  0  0  0  0  0  2  0  0  0  0
  1  2  2  0        0
  1  3  1  0        0
  1  4  1  0        0
M  END
$$$$

CDXL12

  4  3  0  0  0  0  0  0  0  0999 V2000
   -0.7145   -0.6187    0.0000 F   0  0  0  0  0  0  0  2  0  0  0  0
    0.0000   -0.2062    0.0000 C   0  0  0  0  0  0  0  2  0  0  0  0
    0.7145   -0.6188    0.0000 F   0  0  0  0  0  0  0  2  0  0  0  0
    0.0000    0.6188    0.0000 C   0  0  0  0  0  0  0  2  0  0  0  0
  1  2  1  0        0
  2  3  1  0        0
  2  4  2  0        0
M  END
$$$$

CDXL12

  4  3  0  0  0  0  0  0  0  0999 V2000
   -0.7145   -0.6187    0.0000 F   0  0  0  0  0  0  0  2  0  0  0  0
    0.0000   -0.2062    0.0000 C   0  0  0  0  0  0  0  2  0  0  0  0
    0.7145   -0.6188    0.0000 F   0  0  0  0  0  0  0  2  0  0  0  0
    0.0000    0.6188    0.0000 F   0  0  0  0  0  0  0  2  0  0  0  0
  1  2  1  0        0
  2  3  1  0        0
  2  4  1  0        0
M  END
$$$$

CDXL12

  4  3  0  0  0  0  0  0  0  0999 V2000
    0.0000   -0.2062    0.0000 N   0  0  0  0  0  0  0  2  0  0  0  0
   -0.7145   -0.6187    0.0000 C   0  0  0  0  0  0  0  2  0  0  0  0
    0.7145   -0.6188    0.0000 C   0  0  0  0  0  0  0  2  0  0  0  0
    0.0000    0.6188    0.0000 C   0  0  0  0  0  0  0  2  0  0  0  0
  1  2  1  0        0
  1  3  1  0        0
  1  4  1  0        0
M  END
$$$$

CDXL12

  4  3  0  0  0  0  0  0  0  0999 V2000
    0.7145   -0.6188    0.0000 O   0  0  0  0  0  0  0  2  0  0  0  0
    0.0000   -0.2062    0.0000 N   0  0  0  0  0  0  0  2  0  0  0  0
    0.0000    0.6188    0.0000 O   0  0  0  0  0  0  0  2  0  0  0  0
   -0.7145   -0.6187    0.0000 C   0  0  0  0  0  0  0  2  0  0  0  0
  1  2  2  0        0
  2  3  2  0        0
  2  4  1  0        0
M  END
$$$$

CDXL12

  4  4  0  0  0  0  0  0  0  0999 V2000
   -0.3572    0.5635    0.0000 N   0  0  0  0  0  0  0  2  0  0  0  0
    0.0553   -0.1510    0.0000 C   0  0  0  0  0  0  0  2  0  0  0  0
    0.7697   -0.5635    0.0000 C   0  0  0  0  0  0  0  2  0  0  0  0
   -0.7697   -0.1510    0.0000 C   0  0  0  0  0  0  0  2  0  0  0  0
  1  2  1  0        0
  2  3  1  0        0
  2  4  1  0        0
  1  4  1  0        0
M  END
$$$$

CDXL12

  4  4  0  0  0  0  0  0  0  0999 V2000
   -0.3572    0.5635    0.0000 O   0  0  0  0  0  0  0  2  0  0  0  0
    0.0553   -0.1510    0.0000 C   0  0  0  0  0  0  0  2  0  0  0  0
    0.7697   -0.5635    0.0000 C   0  0  0  0  0  0  0  2  0  0  0  0
   -0.7697   -0.1510    0.0000 C   0  0  0  0  0  0  0  2  0  0  0  0
  1  2  1  0        0
  2  3  1  0        0
  2  4  1  0        0
  1  4  1  0        0
M  END
$$$$

CDXL12

  5  4  0  0  0  0  0  0  0  0999 V2000
   -0.8250   -0.0000    0.0000 C   0  0  0  0  0  0  0  2  0  0  0  0
    0.0000   -0.0000    0.0000 As  0  0  0  0  0  0  0  2  0  0  0  0
    0.0000   -0.8250    0.0000 C   0  0  0  0  0  0  0  2  0  0  0  0
    0.8250   -0.0000    0.0000 O   0  0  0  0  0  0  0  2  0  0  0  0
    0.0000    0.8250    0.0000 O   0  0  0  0  0  0  0  2  0  0  0  0
  1  2  1  0        0
  2  3  1  0        0
  2  4  1  0        0
  2  5  2  0        0
M  END
$$$$

CDXL12

  5  4  0  0  0  0  0  0  0  0999 V2000
   -0.8250   -0.0000    0.0000 F   0  0  0  0  0  0  0  2  0  0  0  0
    0.0000   -0.0000    0.0000 C   0  0  0  0  0  0  0  2  0  0  0  0
    0.0000   -0.8250    0.0000 F   0  0  0  0  0  0  0  2  0  0  0  0
    0.8250   -0.0000    0.0000 F   0  0  0  0  0  0  0  2  0  0  0  0
    0.0000    0.8250    0.0000 Br  0  0  0  0  0  0  0  2  0  0  0  0
  1  2  1  0        0
  2  3  1  0        0
  2  4  1  0        0
  2  5  1  0        0
M  END
$$$$

CDXL12

  5  4  0  0  0  0  0  0  0  0999 V2000
    0.0000    0.8250    0.0000 N   0  0  0  0  0  0  0  2  0  0  0  0
    0.0000   -0.0000    0.0000 C   0  0  0  0  0  0  0  2  0  0  0  0
    0.8250   -0.0000    0.0000 C   0  0  0  0  0  0  0  2  0  0  0  0
    0.0000   -0.8250    0.0000 C   0  0  0  0  0  0  0  2  0  0  0  0
   -0.8250   -0.0000    0.0000 C   0  0  0  0  0  0  0  2  0  0  0  0
  1  2  1  0        0
  2  3  1  0        0
  2  4  1  0        0
  2  5  1  0        0
M  END
$$$$

CDXL12

  5  4  0  0  0  0  0  0  0  0999 V2000
   -0.8250   -0.0000    0.0000 F   0  0  0  0  0  0  0  2  0  0  0  0
    0.0000   -0.0000    0.0000 C   0  0  0  0  0  0  0  2  0  0  0  0
    0.0000   -0.8250    0.0000 Cl  0  0  0  0  0  0  0  2  0  0  0  0
    0.8250   -0.0000    0.0000 Cl  0  0  0  0  0  0  0  2  0  0  0  0
    0.0000    0.8250    0.0000 Cl  0  0  0  0  0  0  0  2  0  0  0  0
  1  2  1  0        0
  2  3  1  0        0
  2  4  1  0        0
  2  5  1  0        0
M  END
$$$$

CDXL12

  5  4  0  0  0  0  0  0  0  0999 V2000
   -0.8250   -0.0000    0.0000 F   0  0  0  0  0  0  0  2  0  0  0  0
    0.0000   -0.0000    0.0000 C   0  0  0  0  0  0  0  2  0  0  0  0
    0.0000   -0.8250    0.0000 F   0  0  0  0  0  0  0  2  0  0  0  0
    0.8250   -0.0000    0.0000 Cl  0  0  0  0  0  0  0  2  0  0  0  0
    0.0000    0.8250    0.0000 Cl  0  0  0  0  0  0  0  2  0  0  0  0
  1  2  1  0        0
  2  3  1  0        0
  2  4  1  0        0
  2  5  1  0        0
M  END
$$$$

CDXL12

  5  4  0  0  0  0  0  0  0  0999 V2000
   -0.8250   -0.0000    0.0000 F   0  0  0  0  0  0  0  2  0  0  0  0
    0.0000   -0.0000    0.0000 C   0  0  0  0  0  0  0  2  0  0  0  0
    0.0000   -0.8250    0.0000 F   0  0  0  0  0  0  0  2  0  0  0  0
    0.8250   -0.0000    0.0000 F   0  0  0  0  0  0  0  2  0  0  0  0
    0.0000    0.8250    0.0000 Cl  0  0  0  0  0  0  0  2  0  0  0  0
  1  2  1  0        0
  2  3  1  0        0
  2  4  1  0        0
  2  5  1  0        0
M  END
$$$$

CDXL12

  5  4  0  0  0  0  0  0  0  0999 V2000
   -0.8250   -0.0000    0.0000 F   0  0  0  0  0  0  0  2  0  0  0  0
    0.0000   -0.0000    0.0000 C   0  0  0  0  0  0  0  2  0  0  0  0
    0.0000   -0.8250    0.0000 F   0  0  0  0  0  0  0  2  0  0  0  0
    0.8250   -0.0000    0.0000 F   0  0  0  0  0  0  0  2  0  0  0  0
    0.0000    0.8250    0.0000 F   0  0  0  0  0  0  0  2  0  0  0  0
  1  2  1  0        0
  2  3  1  0        0
  2  4  1  0        0
  2  5  1  0        0
M  END
$$$$

CDXL12

  5  4  0  0  0  0  0  0  0  0999 V2000
    0.0000   -0.8250    0.0000 O   0  0  0  0  0  0  0  2  0  0  0  0
    0.0000   -0.0000    0.0000 S   0  0  0  0  0  0  0  2  0  0  0  0
    0.0000    0.8250    0.0000 O   0  0  0  0  0  0  0  2  0  0  0  0
    0.8250   -0.0000    0.0000 O   0  0  0  0  0  0  0  2  0  0  0  0
   -0.8250   -0.0000    0.0000 C   0  0  0  0  0  0  0  2  0  0  0  0
  1  2  2  0        0
  2  3  2  0        0
  2  4  1  0        0
  2  5  1  0        0
M  END
$$$$

CDXL12

  5  4  0  0  0  0  0  0  0  0999 V2000
   -0.8250   -0.0000    0.0000 C   0  0  0  0  0  0  0  2  0  0  0  0
    0.0000   -0.0000    0.0000 Si  0  0  0  0  0  0  0  2  0  0  0  0
    0.0000   -0.8250    0.0000 C   0  0  0  0  0  0  0  2  0  0  0  0
    0.8250   -0.0000    0.0000 C   0  0  0  0  0  0  0  2  0  0  0  0
    0.0000    0.8250    0.0000 C   0  0  0  0  0  0  0  2  0  0  0  0
  1  2  1  0        0
  2  3  1  0        0
  2  4  1  0        0
  2  5  1  0        0
M  END
$$$$

CDXL12

  6  5  0  0  0  0  0  0  0  0999 V2000
   -1.0717   -0.2063    0.0000 O   0  0  0  0  0  0  0  2  0  0  0  0
   -0.3572   -0.6188    0.0000 C   0  0  0  0  0  0  0  2  0  0  0  0
    0.3572   -0.2062    0.0000 C   0  0  0  0  0  0  0  2  0  0  0  0
    1.0717    0.2062    0.0000 Br  0  0  0  0  0  0  0  2  0  0  0  0
    0.3572    0.6188    0.0000 Br  0  0  0  0  0  0  0  2  0  0  0  0
    1.0717   -0.6188    0.0000 Br  0  0  0  0  0  0  0  2  0  0  0  0
  1  2  1  0        0
  2  3  1  0        0
  3  4  1  0        0
  3  5  1  0        0
  3  6  1  0        0
M  END
$$$$

CDXL12

  6  5  0  0  0  0  0  0  0  0999 V2000
   -0.3572   -0.2063    0.0000 C   0  0  0  0  0  0  0  2  0  0  0  0
    0.3572   -0.6188    0.0000 C   0  0  0  0  0  0  0  2  0  0  0  0
    1.0717   -0.2062    0.0000 C   0  0  0  0  0  0  0  2  0  0  0  0
   -1.0717   -0.6188    0.0000 C   0  0  0  0  0  0  0  2  0  0  0  0
   -1.0717    0.2062    0.0000 C   0  0  0  0  0  0  0  2  0  0  0  0
   -0.3572    0.6188    0.0000 C   0  0  0  0  0  0  0  2  0  0  0  0
  1  2  1  0        0
  2  3  1  0        0
  1  4  1  0        0
  1  5  1  0        0
  1  6  1  0        0
M  END
$$$$

CDXL12

  6  5  0  0  0  0  0  0  0  0999 V2000
   -1.0717   -0.2063    0.0000 O   0  0  0  0  0  0  0  2  0  0  0  0
   -0.3572   -0.6188    0.0000 C   0  0  0  0  0  0  0  2  0  0  0  0
    0.3572   -0.2062    0.0000 C   0  0  0  0  0  0  0  2  0  0  0  0
    0.3572    0.6188    0.0000 C   0  0  0  0  0  0  0  2  0  0  0  0
    1.0717    0.2062    0.0000 C   0  0  0  0  0  0  0  2  0  0  0  0
    1.0717   -0.6188    0.0000 C   0  0  0  0  0  0  0  2  0  0  0  0
  1  2  1  0        0
  2  3  1  0        0
  3  4  1  0        0
  3  5  1  0        0
  3  6  1  0        0
M  END
$$$$

CDXL12

  6  5  0  0  0  0  0  0  0  0999 V2000
    1.0717    0.2062    0.0000 O   0  0  0  0  0  0  0  2  0  0  0  0
    0.3572   -0.2062    0.0000 C   0  0  0  0  0  0  0  2  0  0  0  0
   -0.3572   -0.6188    0.0000 C   0  0  0  0  0  0  0  2  0  0  0  0
   -1.0717   -0.2063    0.0000 C   0  0  0  0  0  0  0  2  0  0  0  0
    1.0717   -0.6188    0.0000 C   0  0  0  0  0  0  0  2  0  0  0  0
    0.3572    0.6188    0.0000 C   0  0  0  0  0  0  0  2  0  0  0  0
  1  2  1  0        0
  2  3  1  0        0
  3  4  1  0        0
  2  5  1  0        0
  2  6  1  0        0
M  END
$$$$

CDXL12

  6  5  0  0  0  0  0  0  0  0999 V2000
    1.2375   -0.0000    0.0000 N   0  0  0  0  0  0  0  2  0  0  0  0
    0.4125   -0.0000    0.0000 C   0  0  0  0  0  0  0  2  0  0  0  0
   -0.4125   -0.0000    0.0000 C   0  0  0  0  0  0  0  2  0  0  0  0
   -1.2375   -0.0000    0.0000 O   0  0  0  0  0  0  0  2  0  0  0  0
   -0.8250    0.7145    0.0000 C   0  0  0  0  0  0  0  2  0  0  0  0
   -0.8250   -0.7145    0.0000 C   0  0  0  0  0  0  0  2  0  0  0  0
  1  2  3  0        0
  2  3  1  0        0
  3  4  1  0        0
  3  5  1  0        0
  3  6  1  0        0
M  END
$$$$

CDXL12

  7  6  0  0  0  0  0  0  0  0999 V2000
    0.3572    1.0313    0.0000 O   0  0  0  0  0  0  0  2  0  0  0  0
    0.3572    0.2062    0.0000 C   0  0  0  0  0  0  0  2  0  0  0  0
   -0.3572   -0.2062    0.0000 C   0  0  0  0  0  0  0  2  0  0  0  0
   -0.3572   -1.0313    0.0000 C   0  0  0  0  0  0  0  2  0  0  0  0
   -1.0717   -0.6187    0.0000 C   0  0  0  0  0  0  0  2  0  0  0  0
   -1.0717    0.2062    0.0000 C   0  0  0  0  0  0  0  2  0  0  0  0
    1.0717   -0.2062    0.0000 C   0  0  0  0  0  0  0  2  0  0  0  0
  1  2  2  0        0
  2  3  1  0        0
  3  4  1  0        0
  3  5  1  0        0
  3  6  1  0        0
  2  7  1  0        0
M  END
$$$$

CDXL12

  7  6  0  0  0  0  0  0  0  0999 V2000
    0.3572    1.0313    0.0000 O   0  0  0  0  0  0  0  2  0  0  0  0
    0.3572    0.2062    0.0000 C   0  0  0  0  0  0  0  2  0  0  0  0
    1.0717   -0.2062    0.0000 O   0  0  0  0  0  0  0  2  0  0  0  0
   -0.3572   -0.2062    0.0000 C   0  0  0  0  0  0  0  2  0  0  0  0
   -0.3572   -1.0313    0.0000 C   0  0  0  0  0  0  0  2  0  0  0  0
   -1.0717   -0.6187    0.0000 C   0  0  0  0  0  0  0  2  0  0  0  0
   -1.0717    0.2062    0.0000 C   0  0  0  0  0  0  0  2  0  0  0  0
  1  2  2  0        0
  2  3  1  0        0
  2  4  1  0        0
  4  5  1  0        0
  4  6  1  0        0
  4  7  1  0        0
M  END
$$$$

CDXL12

  7  6  0  0  0  0  0  0  0  0999 V2000
    0.3572    0.9760    0.0000 O   0  0  0  0  0  0  0  2  0  0  0  0
    0.3572    0.1510    0.0000 C   0  0  0  0  0  0  0  2  0  0  0  0
    1.0717   -0.2615    0.0000 O   0  0  0  0  0  0  0  2  0  0  0  0
   -0.3572   -0.2615    0.0000 C   0  0  0  0  0  0  0  2  0  0  0  0
   -0.7697   -0.9760    0.0000 Cl  0  0  0  0  0  0  0  2  0  0  0  0
    0.0553   -0.9760    0.0000 Cl  0  0  0  0  0  0  0  2  0  0  0  0
   -1.0717    0.1510    0.0000 C   0  0  0  0  0  0  0  2  0  0  0  0
  1  2  2  0        0
  2  3  1  0        0
  2  4  1  0        0
  4  5  1  0        0
  4  6  1  0        0
  4  7  1  0        0
M  END
$$$$

CDXL12

  7  6  0  0  0  0  0  0  0  0999 V2000
    0.3572   -0.2062    0.0000 C   0  0  0  0  0  0  0  2  0  0  0  0
   -0.3572    0.2062    0.0000 C   0  0  0  0  0  0  0  2  0  0  0  0
   -1.0717   -0.2062    0.0000 Cl  0  0  0  0  0  0  0  2  0  0  0  0
   -0.3572    1.0313    0.0000 Cl  0  0  0  0  0  0  0  2  0  0  0  0
    1.0717    0.2062    0.0000 Cl  0  0  0  0  0  0  0  2  0  0  0  0
    0.3572   -1.0313    0.0000 Cl  0  0  0  0  0  0  0  2  0  0  0  0
    1.0717   -0.6188    0.0000 Cl  0  0  0  0  0  0  0  2  0  0  0  0
  1  2  1  0        0
  2  3  1  0        0
  2  4  1  0        0
  1  5  1  0        0
  1  6  1  0        0
  1  7  1  0        0
M  END
$$$$

CDXL12

  7  6  0  0  0  0  0  0  0  0999 V2000
    0.3572    1.0313    0.0000 O   0  0  0  0  0  0  0  2  0  0  0  0
    0.3572    0.2062    0.0000 C   0  0  0  0  0  0  0  2  0  0  0  0
    1.0717   -0.2062    0.0000 O   0  0  0  0  0  0  0  2  0  0  0  0
   -0.3572   -0.2062    0.0000 C   0  0  0  0  0  0  0  2  0  0  0  0
   -1.0717   -0.6187    0.0000 F   0  0  0  0  0  0  0  2  0  0  0  0
   -0.3572   -1.0313    0.0000 F   0  0  0  0  0  0  0  2  0  0  0  0
   -1.0717    0.2062    0.0000 F   0  0  0  0  0  0  0  2  0  0  0  0
  1  2  2  0        0
  2  3  1  0        0
  2  4  1  0        0
  4  5  1  0        0
  4  6  1  0        0
  4  7  1  0        0
M  END
$$$$

CDXL12

  7  6  0  0  0  0  0  0  0  0999 V2000
   -1.0717   -0.2062    0.0000 O   0  0  0  0  0  0  0  2  0  0  0  0
   -0.3572    0.2062    0.0000 N   0  0  0  0  0  0  0  2  0  0  0  0
   -0.3572    1.0313    0.0000 O   0  0  0  0  0  0  0  2  0  0  0  0
    0.3572   -0.2062    0.0000 C   0  0  0  0  0  0  0  2  0  0  0  0
    1.0717    0.2062    0.0000 Cl  0  0  0  0  0  0  0  2  0  0  0  0
    0.3572   -1.0313    0.0000 Cl  0  0  0  0  0  0  0  2  0  0  0  0
    1.0717   -0.6188    0.0000 Cl  0  0  0  0  0  0  0  2  0  0  0  0
  1  2  2  0        0
  2  3  2  0        0
  2  4  1  0        0
  4  5  1  0        0
  4  6  1  0        0
  4  7  1  0        0
M  END
$$$$

CDXL12

  8  7  0  0  0  0  0  0  0  0999 V2000
    0.8250    0.7145    0.0000 F   0  0  0  0  0  0  0  2  0  0  0  0
    0.4125   -0.0000    0.0000 C   0  0  0  0  0  0  0  2  0  0  0  0
   -0.4125   -0.0000    0.0000 C   0  0  0  0  0  0  0  2  0  0  0  0
   -0.8250   -0.7145    0.0000 F   0  0  0  0  0  0  0  2  0  0  0  0
   -0.8250    0.7145    0.0000 Cl  0  0  0  0  0  0  0  2  0  0  0  0
   -1.2375   -0.0000    0.0000 Cl  0  0  0  0  0  0  0  2  0  0  0  0
    0.8250   -0.7145    0.0000 Cl  0  0  0  0  0  0  0  2  0  0  0  0
    1.2375   -0.0000    0.0000 Cl  0  0  0  0  0  0  0  2  0  0  0  0
  1  2  1  0        0
  2  3  1  0        0
  3  4  1  0        0
  3  5  1  0        0
  3  6  1  0        0
  2  7  1  0        0
  2  8  1  0        0
M  END
$$$$

CDXL12

  8  7  0  0  0  0  0  0  0  0999 V2000
    1.2375   -0.0000    0.0000 F   0  0  0  0  0  0  0  2  0  0  0  0
    0.4125   -0.0000    0.0000 C   0  0  0  0  0  0  0  2  0  0  0  0
    0.8250    0.7145    0.0000 F   0  0  0  0  0  0  0  2  0  0  0  0
   -0.4125   -0.0000    0.0000 C   0  0  0  0  0  0  0  2  0  0  0  0
   -0.8250    0.7145    0.0000 F   0  0  0  0  0  0  0  2  0  0  0  0
   -1.2375   -0.0000    0.0000 Cl  0  0  0  0  0  0  0  2  0  0  0  0
   -0.8250   -0.7145    0.0000 Cl  0  0  0  0  0  0  0  2  0  0  0  0
    0.8250   -0.7145    0.0000 Cl  0  0  0  0  0  0  0  2  0  0  0  0
  1  2  1  0        0
  2  3  1  0        0
  2  4  1  0        0
  4  5  1  0        0
  4  6  1  0        0
  4  7  1  0        0
  2  8  1  0        0
M  END
$$$$

CDXL12

  8  7  0  0  0  0  0  0  0  0999 V2000
    1.2375   -0.0000    0.0000 F   0  0  0  0  0  0  0  2  0  0  0  0
    0.4125   -0.0000    0.0000 C   0  0  0  0  0  0  0  2  0  0  0  0
    0.8250    0.7145    0.0000 F   0  0  0  0  0  0  0  2  0  0  0  0
   -0.4125   -0.0000    0.0000 C   0  0  0  0  0  0  0  2  0  0  0  0
   -1.2375   -0.0000    0.0000 F   0  0  0  0  0  0  0  2  0  0  0  0
   -0.8250   -0.7145    0.0000 F   0  0  0  0  0  0  0  2  0  0  0  0
   -0.8250    0.7145    0.0000 Cl  0  0  0  0  0  0  0  2  0  0  0  0
    0.8250   -0.7145    0.0000 Cl  0  0  0  0  0  0  0  2  0  0  0  0
  1  2  1  0        0
  2  3  1  0        0
  2  4  1  0        0
  4  5  1  0        0
  4  6  1  0        0
  4  7  1  0        0
  2  8  1  0        0
M  END
$$$$

CDXL12

  8  7  0  0  0  0  0  0  0  0999 V2000
    0.8250    0.7145    0.0000 F   0  0  0  0  0  0  0  2  0  0  0  0
    0.4125   -0.0000    0.0000 C   0  0  0  0  0  0  0  2  0  0  0  0
    0.8250   -0.7145    0.0000 F   0  0  0  0  0  0  0  2  0  0  0  0
    1.2375   -0.0000    0.0000 F   0  0  0  0  0  0  0  2  0  0  0  0
   -0.4125   -0.0000    0.0000 C   0  0  0  0  0  0  0  2  0  0  0  0
   -0.8250   -0.7145    0.0000 F   0  0  0  0  0  0  0  2  0  0  0  0
   -0.8250    0.7145    0.0000 F   0  0  0  0  0  0  0  2  0  0  0  0
   -1.2375   -0.0000    0.0000 F   0  0  0  0  0  0  0  2  0  0  0  0
  1  2  1  0        0
  2  3  1  0        0
  2  4  1  0        0
  2  5  1  0        0
  5  6  1  0        0
  5  7  1  0        0
  5  8  1  0        0
M  END
$$$$

CDXL12

 14 13  0  0  0  0  0  0  0  0999 V2000
    0.7145    1.1822    0.0000 C   0  0  0  0  0  0  0  2  0  0  0  0
   -0.0000    0.7697    0.0000 C   0  0  0  0  0  0  0  2  0  0  0  0
   -0.0000   -0.0553    0.0000 C   0  0  0  0  0  0  0  2  0  0  0  0
   -0.0000   -0.8803    0.0000 C   0  0  0  0  0  0  0  2  0  0  0  0
   -0.7145   -0.4678    0.0000 S   0  0  0  0  0  0  0  2  0  0  0  0
   -0.3020   -1.1822    0.0000 O   0  0  0  0  0  0  0  2  0  0  0  0
   -1.1270    0.2467    0.0000 O   0  0  0  0  0  0  0  2  0  0  0  0
   -1.4289   -0.8803    0.0000 C   0  0  0  0  0  0  0  2  0  0  0  0
   -2.1434   -0.4678    0.0000 C   0  0  0  0  0  0  0  2  0  0  0  0
    0.7145   -0.4678    0.0000 S   0  0  0  0  0  0  0  2  0  0  0  0
    0.3020   -1.1822    0.0000 O   0  0  0  0  0  0  0  2  0  0  0  0
    1.1270    0.2467    0.0000 O   0  0  0  0  0  0  0  2  0  0  0  0
    1.4289   -0.8803    0.0000 C   0  0  0  0  0  0  0  2  0  0  0  0
    2.1434   -0.4678    0.0000 C   0  0  0  0  0  0  0  2  0  0  0  0
  1  2  1  0        0
  2  3  1  0        0
  3  4  1  0        0
  3  5  1  0        0
  5  6  2  0        0
  5  7  2  0        0
  5  8  1  0        0
  8  9  1  0        0
  3 10  1  0        0
 10 11  2  0        0
 10 12  2  0        0
 10 13  1  0        0
 13 14  1  0        0
M  END
$$$$

CDXL12

 11 12  0  0  0  0  0  0  0  0999 V2000
    1.2400    0.4125    0.0000 O   0  0  0  0  0  0  0  2  0  0  0  0
    0.5255   -0.0000    0.0000 C   0  0  0  0  0  0  0  2  0  0  0  0
   -0.1890    0.4125    0.0000 C   0  0  0  0  0  0  0  2  0  0  0  0
   -0.5255   -0.4125    0.0000 C   0  0  0  0  0  0  0  2  0  0  0  0
   -0.1890   -1.2375    0.0000 C   0  0  0  0  0  0  0  2  0  0  0  0
   -0.9034   -0.8250    0.0000 C   0  0  0  0  0  0  0  2  0  0  0  0
   -0.9034   -0.0000    0.0000 C   0  0  0  0  0  0  0  2  0  0  0  0
    0.5255   -0.8250    0.0000 C   0  0  0  0  0  0  0  2  0  0  0  0
   -1.2400   -0.8250    0.0000 C   0  0  0  0  0  0  0  2  0  0  0  0
   -1.2400    0.0000    0.0000 C   0  0  0  0  0  0  0  2  0  0  0  0
   -0.1890    1.2375    0.0000 C   0  0  0  0  0  0  0  2  0  0  0  0
  1  2  2  0        0
  2  3  1  0        0
  3  4  1  0        0
  4  5  1  0        0
  5  6  1  0        0
  6  7  1  0        0
  3  7  1  0        0
  5  8  1  0        0
  2  8  1  0        0
  4  9  1  0        0
  4 10  1  0        0
  3 11  1  0        0
M  END
$$$$

CDXL12

 31 35  0  0  0  0  0  0  0  0999 V2000
   -3.5807   -2.1756    0.0000 O   0  0  0  0  0  0  0  2  0  0  0  0
   -2.8663   -1.7631    0.0000 C   0  0  0  0  0  0  0  2  0  0  0  0
   -2.1518   -2.1756    0.0000 C   0  0  0  0  0  0  0  2  0  0  0  0
   -1.4373   -1.7631    0.0000 C   0  0  0  0  0  0  0  2  0  0  0  0
   -0.7229   -2.1756    0.0000 C   0  0  0  0  0  0  0  2  0  0  0  0
   -0.0084   -1.7631    0.0000 C   0  0  0  0  0  0  0  2  0  0  0  0
   -0.0084   -0.9381    0.0000 C   0  0  0  0  0  0  0  2  0  0  0  0
    0.7061   -0.5256    0.0000 C   0  0  0  0  0  0  0  2  0  0  0  0
    1.4907   -0.7806    0.0000 C   0  0  0  0  0  0  0  2  0  0  0  0
    1.9756   -0.1131    0.0000 C   0  0  0  0  0  0  0  2  0  0  0  0
    2.7603    0.1418    0.0000 O   0  0  0  0  0  0  0  2  0  0  0  0
    2.7603    0.9668    0.0000 C   0  0  0  0  0  0  0  2  0  0  0  0
    3.0958    1.7205    0.0000 C   0  0  0  0  0  0  0  2  0  0  0  0
    3.5807    1.0530    0.0000 C   0  0  0  0  0  0  0  2  0  0  0  0
    1.9756    1.2217    0.0000 O   0  0  0  0  0  0  0  2  0  0  0  0
    1.4907    0.5543    0.0000 C   0  0  0  0  0  0  0  2  0  0  0  0
    0.8603    1.4220    0.0000 C   0  0  0  0  0  0  0  2  0  0  0  0
    1.1959    2.1756    0.0000 O   0  0  0  0  0  0  0  2  0  0  0  0
    0.0398    1.3357    0.0000 C   0  0  0  0  0  0  0  2  0  0  0  0
   -0.4451    2.0032    0.0000 O   0  0  0  0  0  0  0  2  0  0  0  0
    0.7061    0.2994    0.0000 C   0  0  0  0  0  0  0  2  0  0  0  0
    0.7061    0.9181    0.0000 C   0  0  0  0  0  0  0  2  0  0  0  0
   -0.0084    0.7119    0.0000 C   0  0  0  0  0  0  0  2  0  0  0  0
   -0.7229    0.2994    0.0000 C   0  0  0  0  0  0  0  2  0  0  0  0
   -1.4373    0.7119    0.0000 O   0  0  0  0  0  0  0  2  0  0  0  0
   -0.7229   -0.5256    0.0000 C   0  0  0  0  0  0  0  2  0  0  0  0
   -0.7229   -1.3506    0.0000 F   0  0  0  0  0  0  0  2  0  0  0  0
   -1.4373   -0.9381    0.0000 C   0  0  0  0  0  0  0  2  0  0  0  0
   -1.4373   -0.1131    0.0000 C   0  0  0  0  0  0  0  2  0  0  0  0
   -2.1518   -0.5256    0.0000 C   0  0  0  0  0  0  0  2  0  0  0  0
   -2.8663   -0.9381    0.0000 C   0  0  0  0  0  0  0  2  0  0  0  0
  1  2  2  0        0
  2  3  1  0        0
  3  4  2  0        0
  4  5  1  0        0
  5  6  1  0        0
  6  7  1  0        0
  7  8  1  0        0
  8  9  1  0        0
  9 10  1  0        0
 10 11  1  0        0
 11 12  1  0        0
 12 13  1  0        0
 12 14  1  0        0
 12 15  1  0        0
 15 16  1  0        0
 10 16  1  0        0
 16 17  1  0        0
 17 18  2  0        0
 17 19  1  0        0
 19 20  1  0        0
 16 21  1  0        0
  8 21  1  0        0
 21 22  1  0        0
 21 23  1  0        0
 23 24  1  0        0
 24 25  1  0        0
 24 26  1  0        0
  7 26  1  0        0
 26 27  1  0        0
 26 28  1  0        0
  4 28  1  0        0
 28 29  1  0        0
 28 30  1  0        0
 30 31  2  0        0
  2 31  1  0        0
M  END
$$$$

CDXL12

  8  7  0  0  0  0  0  0  0  0999 V2000
   -1.4289   -0.2615    0.0000 C   0  0  0  0  0  0  0  2  0  0  0  0
   -0.7145    0.1510    0.0000 O   0  0  0  0  0  0  0  2  0  0  0  0
    0.0000   -0.2615    0.0000 C   0  0  0  0  0  0  0  2  0  0  0  0
   -0.4125   -0.9760    0.0000 F   0  0  0  0  0  0  0  2  0  0  0  0
    0.4125   -0.9760    0.0000 F   0  0  0  0  0  0  0  2  0  0  0  0
    0.7145    0.1510    0.0000 C   0  0  0  0  0  0  0  2  0  0  0  0
    0.7145    0.9760    0.0000 Cl  0  0  0  0  0  0  0  2  0  0  0  0
    1.4289   -0.2615    0.0000 Cl  0  0  0  0  0  0  0  2  0  0  0  0
  1  2  1  0        0
  2  3  1  0        0
  3  4  1  0        0
  3  5  1  0        0
  3  6  1  0        0
  6  7  1  0        0
  6  8  1  0        0
M  END
$$$$

CDXL12

  8  7  0  0  0  0  0  0  0  0999 V2000
    0.7145    0.9760    0.0000 O   0  0  0  0  0  0  0  2  0  0  0  0
    0.7145    0.1510    0.0000 N   0  0  0  0  0  0  0  2  0  0  0  0
    1.4289   -0.2615    0.0000 O   0  0  0  0  0  0  0  2  0  0  0  0
    0.0000   -0.2615    0.0000 C   0  0  0  0  0  0  0  2  0  0  0  0
   -0.7145    0.1510    0.0000 C   0  0  0  0  0  0  0  2  0  0  0  0
   -1.4289   -0.2615    0.0000 O   0  0  0  0  0  0  0  2  0  0  0  0
    0.4125   -0.9760    0.0000 C   0  0  0  0  0  0  0  2  0  0  0  0
   -0.4125   -0.9760    0.0000 C   0  0  0  0  0  0  0  2  0  0  0  0
  1  2  2  0        0
  2  3  2  0        0
  2  4  1  0        0
  4  5  1  0        0
  5  6  1  0        0
  4  7  1  0        0
  4  8  1  0        0
M  END
$$$$

CDXL12

 22 26  0  0  0  0  0  0  0  0999 V2000
   -2.1434   -2.7393    0.0000 C   0  0  0  0  0  0  0  2  0  0  0  0
   -1.4289   -2.3268    0.0000 O   0  0  0  0  0  0  0  2  0  0  0  0
   -1.4289   -1.5018    0.0000 C   0  0  0  0  0  0  0  2  0  0  0  0
   -2.1434   -1.0893    0.0000 C   0  0  0  0  0  0  0  2  0  0  0  0
   -2.1434   -0.2643    0.0000 C   0  0  0  0  0  0  0  2  0  0  0  0
   -1.4289    0.1482    0.0000 C   0  0  0  0  0  0  0  2  0  0  0  0
   -1.4289    0.9732    0.0000 C   0  0  0  0  0  0  0  2  0  0  0  0
   -0.7145    1.3857    0.0000 C   0  0  0  0  0  0  0  2  0  0  0  0
    0.0000    0.9732    0.0000 C   0  0  0  0  0  0  0  2  0  0  0  0
    0.7145    1.3857    0.0000 C   0  0  0  0  0  0  0  2  0  0  0  0
    1.4289    0.9732    0.0000 C   0  0  0  0  0  0  0  2  0  0  0  0
    1.4289    0.1482    0.0000 C   0  0  0  0  0  0  0  2  0  0  0  0
    2.1434   -0.2643    0.0000 O   0  0  0  0  0  0  0  2  0  0  0  0
    0.7145   -0.2643    0.0000 C   0  0  0  0  0  0  0  2  0  0  0  0
    0.2736   -1.1507    0.0000 O   0  0  0  0  0  0  0  2  0  0  0  0
   -0.7145   -1.0893    0.0000 C   0  0  0  0  0  0  0  2  0  0  0  0
   -0.7145   -0.2643    0.0000 C   0  0  0  0  0  0  0  2  0  0  0  0
    0.0000    0.1482    0.0000 C   0  0  0  0  0  0  0  2  0  0  0  0
    0.8392    0.5447    0.0000 C   0  0  0  0  0  0  0  2  0  0  0  0
    0.8647    1.4724    0.0000 C   0  0  0  0  0  0  0  2  0  0  0  0
    0.0484    1.9143    0.0000 N   0  0  0  0  0  0  0  2  0  0  0  0
    0.0484    2.7393    0.0000 C   0  0  0  0  0  0  0  2  0  0  0  0
  1  2  1  0        0
  2  3  1  0        0
  3  4  4  0        0
  4  5  4  0        0
  5  6  4  0        0
  6  7  1  0        0
  7  8  1  0        0
  8  9  1  0        0
  9 10  1  0        0
 10 11  2  0        0
 11 12  1  0        0
 12 13  1  0        0
 12 14  1  0        0
 14 15  1  0        0
 15 16  1  0        0
  3 16  4  0        0
 16 17  4  0        0
  6 17  4  0        0
 17 18  1  0        0
  9 18  1  0        0
 14 18  1  0        0
 18 19  1  0        0
 19 20  1  0        0
 20 21  1  0        0
  8 21  1  0        0
 21 22  1  0        0
M  END
$$$$

CDXL12

 16 16  0  0  0  0  0  0  0  0999 V2000
    2.6664   -0.0000    0.0000 C   0  0  0  0  0  0  0  2  0  0  0  0
    1.9520   -0.4125    0.0000 C   0  0  0  0  0  0  0  2  0  0  0  0
    1.2375    0.0000    0.0000 C   0  0  0  0  0  0  0  2  0  0  0  0
    0.5230   -0.4125    0.0000 C   0  0  0  0  0  0  0  2  0  0  0  0
    0.5230   -1.2375    0.0000 C   0  0  0  0  0  0  0  2  0  0  0  0
   -0.1914   -0.0000    0.0000 C   0  0  0  0  0  0  0  2  0  0  0  0
    0.5230    0.4125    0.0000 C   0  0  0  0  0  0  0  2  0  0  0  0
    0.5230    1.2375    0.0000 C   0  0  0  0  0  0  0  2  0  0  0  0
   -0.6039   -0.7145    0.0000 C   0  0  0  0  0  0  0  2  0  0  0  0
   -0.1914   -1.4289    0.0000 O   0  0  0  0  0  0  0  2  0  0  0  0
   -1.4289   -0.7145    0.0000 N   0  0  0  0  0  0  0  2  0  0  0  0
   -1.8414   -0.0000    0.0000 C   0  0  0  0  0  0  0  2  0  0  0  0
   -2.6664   -0.0000    0.0000 O   0  0  0  0  0  0  0  2  0  0  0  0
   -1.4289    0.7145    0.0000 N   0  0  0  0  0  0  0  2  0  0  0  0
   -0.6039    0.7145    0.0000 C   0  0  0  0  0  0  0  2  0  0  0  0
   -0.1914    1.4289    0.0000 O   0  0  0  0  0  0  0  2  0  0  0  0
  1  2  1  0        0
  2  3  1  0        0
  3  4  1  0        0
  4  5  1  0        0
  4  6  1  0        0
  6  7  1  0        0
  7  8  1  0        0
  6  9  1  0        0
  9 10  2  0        0
  9 11  1  0        0
 11 12  1  0        0
 12 13  2  0        0
 12 14  1  0        0
 14 15  1  0        0
  6 15  1  0        0
 15 16  2  0        0
M  END
$$$$

CDXL12

 14 14  0  0  0  0  0  0  0  0999 V2000
    1.2375   -0.4125    0.0000 C   0  0  0  0  0  0  0  2  0  0  0  0
    1.2375   -1.2375    0.0000 C   0  0  0  0  0  0  0  2  0  0  0  0
    1.9520    0.0000    0.0000 C   0  0  0  0  0  0  0  2  0  0  0  0
    0.5230   -0.0000    0.0000 C   0  0  0  0  0  0  0  2  0  0  0  0
    1.2375    0.4125    0.0000 C   0  0  0  0  0  0  0  2  0  0  0  0
    1.2375    1.2375    0.0000 C   0  0  0  0  0  0  0  2  0  0  0  0
    0.1105   -0.7145    0.0000 C   0  0  0  0  0  0  0  2  0  0  0  0
    0.5230   -1.4289    0.0000 O   0  0  0  0  0  0  0  2  0  0  0  0
   -0.7145   -0.7145    0.0000 N   0  0  0  0  0  0  0  2  0  0  0  0
   -1.1270   -0.0000    0.0000 C   0  0  0  0  0  0  0  2  0  0  0  0
   -1.9520   -0.0000    0.0000 O   0  0  0  0  0  0  0  2  0  0  0  0
   -0.7145    0.7145    0.0000 N   0  0  0  0  0  0  0  2  0  0  0  0
    0.1105    0.7145    0.0000 C   0  0  0  0  0  0  0  2  0  0  0  0
    0.5230    1.4289    0.0000 O   0  0  0  0  0  0  0  2  0  0  0  0
  1  2  1  0        0
  1  3  1  0        0
  1  4  1  0        0
  4  5  1  0        0
  5  6  1  0        0
  4  7  1  0        0
  7  8  2  0        0
  7  9  1  0        0
  9 10  1  0        0
 10 11  2  0        0
 10 12  1  0        0
 12 13  1  0        0
  4 13  1  0        0
 13 14  2  0        0
M  END
$$$$

CDXL12

 20 22  0  0  0  0  0  0  0  0999 V2000
    0.0000   -1.2375    0.0000 O   0  0  0  0  0  0  0  2  0  0  0  0
    0.0000   -0.4125    0.0000 C   0  0  0  0  0  0  0  2  0  0  0  0
   -0.7145   -0.8250    0.0000 C   0  0  0  0  0  0  0  2  0  0  0  0
   -0.7145   -1.6500    0.0000 C   0  0  0  0  0  0  0  2  0  0  0  0
   -1.4289   -2.0625    0.0000 C   0  0  0  0  0  0  0  2  0  0  0  0
   -2.1434   -1.6500    0.0000 C   0  0  0  0  0  0  0  2  0  0  0  0
   -2.1434   -0.8250    0.0000 C   0  0  0  0  0  0  0  2  0  0  0  0
   -1.4289   -0.4125    0.0000 C   0  0  0  0  0  0  0  2  0  0  0  0
    0.0000    0.4125    0.0000 C   0  0  0  0  0  0  0  2  0  0  0  0
   -0.7145    0.8250    0.0000 C   0  0  0  0  0  0  0  2  0  0  0  0
   -0.7145    1.6500    0.0000 C   0  0  0  0  0  0  0  2  0  0  0  0
    0.0000    2.0625    0.0000 C   0  0  0  0  0  0  0  2  0  0  0  0
    0.7145    1.6500    0.0000 C   0  0  0  0  0  0  0  2  0  0  0  0
    0.7145    0.8250    0.0000 C   0  0  0  0  0  0  0  2  0  0  0  0
    0.7145   -0.8250    0.0000 C   0  0  0  0  0  0  0  2  0  0  0  0
    1.4289   -0.4125    0.0000 C   0  0  0  0  0  0  0  2  0  0  0  0
    2.1434   -0.8250    0.0000 C   0  0  0  0  0  0  0  2  0  0  0  0
    2.1434   -1.6500    0.0000 C   0  0  0  0  0  0  0  2  0  0  0  0
    1.4289   -2.0625    0.0000 C   0  0  0  0  0  0  0  2  0  0  0  0
    0.7145   -1.6500    0.0000 C   0  0  0  0  0  0  0  2  0  0  0  0
  1  2  1  0        0
  2  3  1  0        0
  3  4  4  0        0
  4  5  4  0        0
  5  6  4  0        0
  6  7  4  0        0
  7  8  4  0        0
  3  8  4  0        0
  2  9  1  0        0
  9 10  4  0        0
 10 11  4  0        0
 11 12  4  0        0
 12 13  4  0        0
 13 14  4  0        0
  9 14  4  0        0
  2 15  1  0        0
 15 16  4  0        0
 16 17  4  0        0
 17 18  4  0        0
 18 19  4  0        0
 19 20  4  0        0
 15 20  4  0        0
M  END
$$$$

CDXL12

 17 18  0  0  0  0  0  0  0  0999 V2000
    1.0717   -1.6500    0.0000 O   0  0  0  0  0  0  0  2  0  0  0  0
    1.0717   -0.8250    0.0000 C   0  0  0  0  0  0  0  2  0  0  0  0
    1.7862   -0.4125    0.0000 O   0  0  0  0  0  0  0  2  0  0  0  0
    0.3572   -0.4125    0.0000 C   0  0  0  0  0  0  0  2  0  0  0  0
   -0.3572   -0.0000    0.0000 O   0  0  0  0  0  0  0  2  0  0  0  0
   -0.3572   -0.8250    0.0000 C   0  0  0  0  0  0  0  2  0  0  0  0
   -0.3572   -1.6500    0.0000 C   0  0  0  0  0  0  0  2  0  0  0  0
   -1.0717   -2.0625    0.0000 C   0  0  0  0  0  0  0  2  0  0  0  0
   -1.7862   -1.6500    0.0000 C   0  0  0  0  0  0  0  2  0  0  0  0
   -1.7862   -0.8250    0.0000 C   0  0  0  0  0  0  0  2  0  0  0  0
   -1.0717   -0.4125    0.0000 C   0  0  0  0  0  0  0  2  0  0  0  0
    0.3572    0.4125    0.0000 C   0  0  0  0  0  0  0  2  0  0  0  0
   -0.3572    0.8250    0.0000 C   0  0  0  0  0  0  0  2  0  0  0  0
   -0.3572    1.6500    0.0000 C   0  0  0  0  0  0  0  2  0  0  0  0
    0.3572    2.0625    0.0000 C   0  0  0  0  0  0  0  2  0  0  0  0
    1.0717    1.6500    0.0000 C   0  0  0  0  0  0  0  2  0  0  0  0
    1.0717    0.8250    0.0000 C   0  0  0  0  0  0  0  2  0  0  0  0
  1  2  2  0        0
  2  3  1  0        0
  2  4  1  0        0
  4  5  1  0        0
  4  6  1  0        0
  6  7  4  0        0
  7  8  4  0        0
  8  9  4  0        0
  9 10  4  0        0
 10 11  4  0        0
  6 11  4  0        0
  4 12  1  0        0
 12 13  4  0        0
 13 14  4  0        0
 14 15  4  0        0
 15 16  4  0        0
 16 17  4  0        0
 12 17  4  0        0
M  END
$$$$

CDXL12

 15 15  0  0  0  0  0  0  0  0999 V2000
   -1.1674   -1.6905    0.0000 C   0  0  0  0  0  0  0  2  0  0  0  0
   -0.4530   -1.2780    0.0000 C   0  0  0  0  0  0  0  2  0  0  0  0
    0.2615   -1.6905    0.0000 C   0  0  0  0  0  0  0  2  0  0  0  0
   -0.4530   -0.4530    0.0000 C   0  0  0  0  0  0  0  2  0  0  0  0
    0.2615   -0.8655    0.0000 C   0  0  0  0  0  0  0  2  0  0  0  0
    0.9760   -0.4530    0.0000 C   0  0  0  0  0  0  0  2  0  0  0  0
    1.6905   -0.8655    0.0000 C   0  0  0  0  0  0  0  2  0  0  0  0
   -0.0405    0.2615    0.0000 C   0  0  0  0  0  0  0  2  0  0  0  0
    0.7845    0.2615    0.0000 O   0  0  0  0  0  0  0  2  0  0  0  0
   -0.4530    0.9760    0.0000 N   0  0  0  0  0  0  0  2  0  0  0  0
   -1.2780    0.9760    0.0000 C   0  0  0  0  0  0  0  2  0  0  0  0
   -1.6905    1.6905    0.0000 O   0  0  0  0  0  0  0  2  0  0  0  0
   -1.6905    0.2615    0.0000 N   0  0  0  0  0  0  0  2  0  0  0  0
   -1.2780   -0.4530    0.0000 C   0  0  0  0  0  0  0  2  0  0  0  0
   -1.6905   -1.1674    0.0000 O   0  0  0  0  0  0  0  2  0  0  0  0
  1  2  1  0        0
  2  3  1  0        0
  2  4  1  0        0
  4  5  1  0        0
  5  6  1  0        0
  6  7  2  0        0
  4  8  1  0        0
  8  9  2  0        0
  8 10  1  0        0
 10 11  1  0        0
 11 12  2  0        0
 11 13  1  0        0
 13 14  1  0        0
  4 14  1  0        0
 14 15  2  0        0
M  END
$$$$

CDXL12

 25 29  0  0  0  0  0  0  0  0999 V2000
    0.7259    1.0576    0.0000 O   0  0  0  0  0  0  0  2  0  0  0  0
    0.9209    0.2560    0.0000 C   0  0  0  0  0  0  0  2  0  0  0  0
    0.4151   -0.1994    0.0000 O   0  0  0  0  0  0  0  2  0  0  0  0
    0.5175   -0.8723    0.0000 C   0  0  0  0  0  0  0  2  0  0  0  0
    0.7724   -0.0877    0.0000 C   0  0  0  0  0  0  0  2  0  0  0  0
    0.1050    0.3973    0.0000 C   0  0  0  0  0  0  0  2  0  0  0  0
   -0.5624   -0.0877    0.0000 C   0  0  0  0  0  0  0  2  0  0  0  0
   -1.0847   -1.0206    0.0000 C   0  0  0  0  0  0  0  2  0  0  0  0
   -2.1538   -1.0385    0.0000 C   0  0  0  0  0  0  0  2  0  0  0  0
   -2.9384   -1.2934    0.0000 O   0  0  0  0  0  0  0  2  0  0  0  0
   -2.0431   -0.2209    0.0000 C   0  0  0  0  0  0  0  2  0  0  0  0
   -2.7575    0.1916    0.0000 C   0  0  0  0  0  0  0  2  0  0  0  0
   -1.3348    0.2022    0.0000 C   0  0  0  0  0  0  0  2  0  0  0  0
   -1.5837   -1.6348    0.0000 C   0  0  0  0  0  0  0  2  0  0  0  0
   -0.7620   -1.5608    0.0000 C   0  0  0  0  0  0  0  2  0  0  0  0
   -0.3075   -0.8723    0.0000 C   0  0  0  0  0  0  0  2  0  0  0  0
    0.1050    1.2223    0.0000 C   0  0  0  0  0  0  0  2  0  0  0  0
   -0.6095    1.6348    0.0000 O   0  0  0  0  0  0  0  2  0  0  0  0
    0.8195    1.6348    0.0000 O   0  0  0  0  0  0  0  2  0  0  0  0
    1.5794    0.0839    0.0000 C   0  0  0  0  0  0  0  2  0  0  0  0
    2.1314   -0.5292    0.0000 C   0  0  0  0  0  0  0  2  0  0  0  0
    1.8765   -1.3139    0.0000 C   0  0  0  0  0  0  0  2  0  0  0  0
    1.0695   -1.4854    0.0000 C   0  0  0  0  0  0  0  2  0  0  0  0
    2.9384   -0.3577    0.0000 O   0  0  0  0  0  0  0  2  0  0  0  0
    1.9919    0.7983    0.0000 C   0  0  0  0  0  0  0  2  0  0  0  0
  1  2  2  0        0
  2  3  1  0        0
  3  4  1  0        0
  4  5  1  0        0
  5  6  1  0        0
  6  7  1  0        0
  7  8  1  0        0
  8  9  1  0        0
  9 10  1  0        0
  9 11  1  0        0
 11 12  2  0        0
 11 13  1  0        0
  7 13  1  0        0
  9 14  1  0        0
 14 15  1  0        0
 15 16  1  0        0
  4 16  1  0        0
  7 16  1  0        0
  6 17  1  0        0
 17 18  2  0        0
 17 19  1  0        0
  5 20  1  0        0
  2 20  1  0        0
 20 21  1  0        0
 21 22  1  0        0
 22 23  2  0        0
  4 23  1  0        0
 21 24  1  0        0
 20 25  1  0        0
M  END
$$$$

CDXL12

 24 27  0  0  0  0  0  0  0  0999 V2000
   -0.0672    2.5896    0.0000 O   0  0  0  0  0  0  0  2  0  0  0  0
   -0.3222    1.8050    0.0000 C   0  0  0  0  0  0  0  2  0  0  0  0
    0.1628    1.1375    0.0000 O   0  0  0  0  0  0  0  2  0  0  0  0
   -0.3222    0.4701    0.0000 C   0  0  0  0  0  0  0  2  0  0  0  0
   -1.1068    0.7250    0.0000 C   0  0  0  0  0  0  0  2  0  0  0  0
   -1.8213    0.3125    0.0000 C   0  0  0  0  0  0  0  2  0  0  0  0
   -2.5357    0.7250    0.0000 C   0  0  0  0  0  0  0  2  0  0  0  0
   -2.5357    1.5500    0.0000 C   0  0  0  0  0  0  0  2  0  0  0  0
   -1.8213    1.9625    0.0000 C   0  0  0  0  0  0  0  2  0  0  0  0
   -1.1068    1.5500    0.0000 C   0  0  0  0  0  0  0  2  0  0  0  0
    0.3923    0.0576    0.0000 C   0  0  0  0  0  0  0  2  0  0  0  0
    1.1068    0.4701    0.0000 C   0  0  0  0  0  0  0  2  0  0  0  0
    1.8213    0.0576    0.0000 C   0  0  0  0  0  0  0  2  0  0  0  0
    1.8213   -0.7674    0.0000 C   0  0  0  0  0  0  0  2  0  0  0  0
    2.5357   -1.1799    0.0000 O   0  0  0  0  0  0  0  2  0  0  0  0
    1.1068   -1.1799    0.0000 C   0  0  0  0  0  0  0  2  0  0  0  0
    0.3923   -0.7674    0.0000 C   0  0  0  0  0  0  0  2  0  0  0  0
   -0.6312   -0.2948    0.0000 C   0  0  0  0  0  0  0  2  0  0  0  0
   -0.1233   -0.9449    0.0000 C   0  0  0  0  0  0  0  2  0  0  0  0
   -0.4323   -1.7099    0.0000 C   0  0  0  0  0  0  0  2  0  0  0  0
   -1.2493   -1.8247    0.0000 C   0  0  0  0  0  0  0  2  0  0  0  0
   -1.5584   -2.5896    0.0000 O   0  0  0  0  0  0  0  2  0  0  0  0
   -1.7572   -1.1746    0.0000 C   0  0  0  0  0  0  0  2  0  0  0  0
   -1.4482   -0.4096    0.0000 C   0  0  0  0  0  0  0  2  0  0  0  0
  1  2  2  0        0
  2  3  1  0        0
  3  4  1  0        0
  4  5  1  0        0
  5  6  4  0        0
  6  7  4  0        0
  7  8  4  0        0
  8  9  4  0        0
  9 10  4  0        0
  2 10  1  0        0
  5 10  4  0        0
  4 11  1  0        0
 11 12  4  0        0
 12 13  4  0        0
 13 14  4  0        0
 14 15  1  0        0
 14 16  4  0        0
 16 17  4  0        0
 11 17  4  0        0
  4 18  1  0        0
 18 19  4  0        0
 19 20  4  0        0
 20 21  4  0        0
 21 22  1  0        0
 21 23  4  0        0
 23 24  4  0        0
 18 24  4  0        0
M  END
$$$$

CDXL12

 16 17  0  0  0  0  0  0  0  0999 V2000
    1.4842   -1.1674    0.0000 C   0  0  0  0  0  0  0  2  0  0  0  0
    1.0717   -0.4530    0.0000 C   0  0  0  0  0  0  0  2  0  0  0  0
    0.2467   -0.4530    0.0000 C   0  0  0  0  0  0  0  2  0  0  0  0
   -0.4678   -0.0405    0.0000 C   0  0  0  0  0  0  0  2  0  0  0  0
   -1.1822   -0.4530    0.0000 C   0  0  0  0  0  0  0  2  0  0  0  0
   -1.1822   -1.2780    0.0000 C   0  0  0  0  0  0  0  2  0  0  0  0
   -1.8967   -1.6905    0.0000 O   0  0  0  0  0  0  0  2  0  0  0  0
   -0.4678   -1.6905    0.0000 N   0  0  0  0  0  0  0  2  0  0  0  0
    0.2467   -1.2780    0.0000 C   0  0  0  0  0  0  0  2  0  0  0  0
    0.9612   -1.6905    0.0000 O   0  0  0  0  0  0  0  2  0  0  0  0
    0.6592    0.2615    0.0000 C   0  0  0  0  0  0  0  2  0  0  0  0
    0.2467    0.9760    0.0000 C   0  0  0  0  0  0  0  2  0  0  0  0
    0.6592    1.6905    0.0000 C   0  0  0  0  0  0  0  2  0  0  0  0
    1.4842    1.6905    0.0000 C   0  0  0  0  0  0  0  2  0  0  0  0
    1.8967    0.9760    0.0000 C   0  0  0  0  0  0  0  2  0  0  0  0
    1.4842    0.2615    0.0000 C   0  0  0  0  0  0  0  2  0  0  0  0
  1  2  1  0        0
  2  3  1  0        0
  3  4  1  0        0
  4  5  1  0        0
  5  6  1  0        0
  6  7  2  0        0
  6  8  1  0        0
  8  9  1  0        0
  3  9  1  0        0
  9 10  2  0        0
  3 11  1  0        0
 11 12  4  0        0
 12 13  4  0        0
 13 14  4  0        0
 14 15  4  0        0
 15 16  4  0        0
 11 16  4  0        0
M  END
$$$$

CDXL12

 17 17  0  0  0  0  0  0  0  0999 V2000
    0.1914   -1.5395    0.0000 O   0  0  0  0  0  0  0  2  0  0  0  0
    0.6039   -0.8250    0.0000 C   0  0  0  0  0  0  0  2  0  0  0  0
    1.4289   -0.8250    0.0000 N   0  0  0  0  0  0  0  2  0  0  0  0
    1.8414   -0.1105    0.0000 C   0  0  0  0  0  0  0  2  0  0  0  0
    2.6664   -0.1105    0.0000 S   0  0  0  0  0  0  0  2  0  0  0  0
    1.4289    0.6039    0.0000 N   0  0  0  0  0  0  0  2  0  0  0  0
    0.6039    0.6039    0.0000 C   0  0  0  0  0  0  0  2  0  0  0  0
    0.1914    1.3184    0.0000 O   0  0  0  0  0  0  0  2  0  0  0  0
    0.1914   -0.1105    0.0000 C   0  0  0  0  0  0  0  2  0  0  0  0
   -0.5230    0.3020    0.0000 C   0  0  0  0  0  0  0  2  0  0  0  0
   -0.5230    1.1270    0.0000 C   0  0  0  0  0  0  0  2  0  0  0  0
   -1.2375    1.5395    0.0000 C   0  0  0  0  0  0  0  2  0  0  0  0
   -0.5230   -0.5230    0.0000 C   0  0  0  0  0  0  0  2  0  0  0  0
   -0.5230   -1.3480    0.0000 C   0  0  0  0  0  0  0  2  0  0  0  0
   -1.2375   -0.1105    0.0000 C   0  0  0  0  0  0  0  2  0  0  0  0
   -1.9520   -0.5230    0.0000 C   0  0  0  0  0  0  0  2  0  0  0  0
   -2.6664   -0.1105    0.0000 C   0  0  0  0  0  0  0  2  0  0  0  0
  1  2  2  0        0
  2  3  1  0        0
  3  4  1  0        0
  4  5  2  0        0
  4  6  1  0        0
  6  7  1  0        0
  7  8  2  0        0
  7  9  1  0        0
  2  9  1  0        0
  9 10  1  0        0
 10 11  1  0        0
 11 12  2  0        0
  9 13  1  0        0
 13 14  1  0        0
 13 15  1  0        0
 15 16  1  0        0
 16 17  1  0        0
M  END
$$$$

CDXL12

 15 15  0  0  0  0  0  0  0  0999 V2000
   -2.6664   -0.0000    0.0000 C   0  0  0  0  0  0  0  2  0  0  0  0
   -1.9520    0.4125    0.0000 C   0  0  0  0  0  0  0  2  0  0  0  0
   -1.2375   -0.0000    0.0000 C   0  0  0  0  0  0  0  2  0  0  0  0
   -0.5230    0.4125    0.0000 C   0  0  0  0  0  0  0  2  0  0  0  0
    0.1914   -0.0000    0.0000 C   0  0  0  0  0  0  0  2  0  0  0  0
   -0.5230   -0.4125    0.0000 C   0  0  0  0  0  0  0  2  0  0  0  0
   -0.5230   -1.2375    0.0000 C   0  0  0  0  0  0  0  2  0  0  0  0
    0.6039    0.7145    0.0000 C   0  0  0  0  0  0  0  2  0  0  0  0
    0.1914    1.4289    0.0000 O   0  0  0  0  0  0  0  2  0  0  0  0
    1.4289    0.7145    0.0000 N   0  0  0  0  0  0  0  2  0  0  0  0
    1.8414   -0.0000    0.0000 C   0  0  0  0  0  0  0  2  0  0  0  0
    2.6664   -0.0000    0.0000 O   0  0  0  0  0  0  0  2  0  0  0  0
    1.4289   -0.7145    0.0000 N   0  0  0  0  0  0  0  2  0  0  0  0
    0.6039   -0.7145    0.0000 C   0  0  0  0  0  0  0  2  0  0  0  0
    0.1914   -1.4289    0.0000 O   0  0  0  0  0  0  0  2  0  0  0  0
  1  2  1  0        0
  2  3  1  0        0
  3  4  1  0        0
  4  5  1  0        0
  5  6  1  0        0
  6  7  1  0        0
  5  8  1  0        0
  8  9  2  0        0
  8 10  1  0        0
 10 11  1  0        0
 11 12  2  0        0
 11 13  1  0        0
 13 14  1  0        0
  5 14  1  0        0
 14 15  2  0        0
M  END
$$$$

CDXL12

 12 11  0  0  0  0  0  0  0  0999 V2000
    1.4289    1.2375    0.0000 O   0  0  0  0  0  0  0  2  0  0  0  0
    1.4289    0.4125    0.0000 C   0  0  0  0  0  0  0  2  0  0  0  0
    0.7145   -0.0000    0.0000 N   0  0  0  0  0  0  0  2  0  0  0  0
    0.0000    0.4125    0.0000 C   0  0  0  0  0  0  0  2  0  0  0  0
    0.0000    1.2375    0.0000 O   0  0  0  0  0  0  0  2  0  0  0  0
   -0.7145   -0.0000    0.0000 C   0  0  0  0  0  0  0  2  0  0  0  0
   -0.7145    0.8250    0.0000 Br  0  0  0  0  0  0  0  2  0  0  0  0
   -1.4289    0.4125    0.0000 C   0  0  0  0  0  0  0  2  0  0  0  0
   -2.1434    0.0000    0.0000 C   0  0  0  0  0  0  0  2  0  0  0  0
   -0.7145   -0.8250    0.0000 C   0  0  0  0  0  0  0  2  0  0  0  0
   -1.4289   -1.2375    0.0000 C   0  0  0  0  0  0  0  2  0  0  0  0
    2.1434   -0.0000    0.0000 N   0  0  0  0  0  0  0  2  0  0  0  0
  1  2  2  0        0
  2  3  1  0        0
  3  4  1  0        0
  4  5  2  0        0
  4  6  1  0        0
  6  7  1  0        0
  6  8  1  0        0
  8  9  1  0        0
  6 10  1  0        0
 10 11  1  0        0
  2 12  1  0        0
M  END
$$$$

CDXL12

  7  6  0  0  0  0  0  0  0  0999 V2000
   -0.4125    0.5635    0.0000 O   0  0  0  0  0  0  0  2  0  0  0  0
    0.0000   -0.1510    0.0000 C   0  0  0  0  0  0  0  2  0  0  0  0
    0.7145   -0.5635    0.0000 C   0  0  0  0  0  0  0  2  0  0  0  0
    1.4289   -0.1510    0.0000 C   0  0  0  0  0  0  0  2  0  0  0  0
   -0.7145   -0.5635    0.0000 C   0  0  0  0  0  0  0  2  0  0  0  0
   -1.4289   -0.1510    0.0000 C   0  0  0  0  0  0  0  2  0  0  0  0
    0.4125    0.5635    0.0000 C   0  0  0  0  0  0  0  2  0  0  0  0
  1  2  1  0        0
  2  3  1  0        0
  3  4  1  0        0
  2  5  1  0        0
  5  6  1  0        0
  2  7  1  0        0
M  END
$$$$

CDXL12

  7  6  0  0  0  0  0  0  0  0999 V2000
    0.4125   -0.7697    0.0000 O   0  0  0  0  0  0  0  2  0  0  0  0
    0.0000   -0.0553    0.0000 C   0  0  0  0  0  0  0  2  0  0  0  0
   -0.7145    0.3572    0.0000 C   0  0  0  0  0  0  0  2  0  0  0  0
   -1.4289    0.7697    0.0000 C   0  0  0  0  0  0  0  2  0  0  0  0
    0.7145    0.3572    0.0000 C   0  0  0  0  0  0  0  2  0  0  0  0
    1.4289   -0.0553    0.0000 C   0  0  0  0  0  0  0  2  0  0  0  0
   -0.4125   -0.7697    0.0000 C   0  0  0  0  0  0  0  2  0  0  0  0
  1  2  1  0        0
  2  3  1  0        0
  3  4  3  0        0
  2  5  1  0        0
  5  6  1  0        0
  2  7  1  0        0
M  END
$$$$

CDXL12

  7  6  0  0  0  0  0  0  0  0999 V2000
   -1.4289   -0.0000    0.0000 C   0  0  0  0  0  0  0  2  0  0  0  0
   -0.7145   -0.4125    0.0000 C   0  0  0  0  0  0  0  2  0  0  0  0
    0.0000    0.0000    0.0000 S   0  0  0  0  0  0  0  2  0  0  0  0
    0.4125   -0.7145    0.0000 O   0  0  0  0  0  0  0  2  0  0  0  0
   -0.4125    0.7145    0.0000 O   0  0  0  0  0  0  0  2  0  0  0  0
    0.7145    0.4125    0.0000 C   0  0  0  0  0  0  0  2  0  0  0  0
    1.4289   -0.0000    0.0000 C   0  0  0  0  0  0  0  2  0  0  0  0
  1  2  2  0        0
  2  3  1  0        0
  3  4  2  0        0
  3  5  2  0        0
  3  6  1  0        0
  6  7  2  0        0
M  END
$$$$

CDXL12

  7  6  0  0  0  0  0  0  0  0999 V2000
    0.4125   -0.7145    0.0000 O   0  0  0  0  0  0  0  2  0  0  0  0
    0.0000    0.0000    0.0000 S   0  0  0  0  0  0  0  2  0  0  0  0
   -0.4125    0.7145    0.0000 O   0  0  0  0  0  0  0  2  0  0  0  0
   -0.7145   -0.4125    0.0000 O   0  0  0  0  0  0  0  2  0  0  0  0
   -1.4289   -0.0000    0.0000 C   0  0  0  0  0  0  0  2  0  0  0  0
    0.7145    0.4125    0.0000 O   0  0  0  0  0  0  0  2  0  0  0  0
    1.4289   -0.0000    0.0000 C   0  0  0  0  0  0  0  2  0  0  0  0
  1  2  2  0        0
  2  3  2  0        0
  2  4  1  0        0
  4  5  1  0        0
  2  6  1  0        0
  6  7  1  0        0
M  END
$$$$

CDXL12

 10  9  0  0  0  0  0  0  0  0999 V2000
    1.7862   -0.2062    0.0000 C   0  0  0  0  0  0  0  2  0  0  0  0
    1.0717    0.2062    0.0000 C   0  0  0  0  0  0  0  2  0  0  0  0
    0.3572   -0.2062    0.0000 O   0  0  0  0  0  0  0  2  0  0  0  0
   -0.3572    0.2062    0.0000 P   0  0  0  0  0  0  0  2  0  0  0  0
   -0.3572    1.0313    0.0000 O   0  0  0  0  0  0  0  2  0  0  0  0
   -1.0717   -0.2062    0.0000 C   0  0  0  0  0  0  0  2  0  0  0  0
   -1.7862   -0.6188    0.0000 N   0  0  0  0  0  0  0  2  0  0  0  0
   -0.3572   -0.6188    0.0000 N   0  0  0  0  0  0  0  2  0  0  0  0
   -1.0717   -1.0313    0.0000 C   0  0  0  0  0  0  0  2  0  0  0  0
    0.3572   -1.0313    0.0000 C   0  0  0  0  0  0  0  2  0  0  0  0
  1  2  1  0        0
  2  3  1  0        0
  3  4  1  0        0
  4  5  2  0        0
  4  6  1  0        0
  6  7  3  0        0
  4  8  1  0        0
  8  9  1  0        0
  8 10  1  0        0
M  END
$$$$

CDXL12

  8  7  0  0  0  0  0  0  0  0999 V2000
    1.4289   -0.2062    0.0000 O   0  0  0  0  0  0  0  2  0  0  0  0
    0.7145   -0.6188    0.0000 C   0  0  0  0  0  0  0  2  0  0  0  0
    0.0000   -0.2063    0.0000 C   0  0  0  0  0  0  0  2  0  0  0  0
    0.0000   -1.0313    0.0000 N   0  0  0  0  0  0  0  2  0  0  0  0
   -0.7145   -0.6188    0.0000 C   0  0  0  0  0  0  0  2  0  0  0  0
   -1.4289   -0.2063    0.0000 O   0  0  0  0  0  0  0  2  0  0  0  0
    0.0000    0.6188    0.0000 C   0  0  0  0  0  0  0  2  0  0  0  0
    0.7145    1.0313    0.0000 O   0  0  0  0  0  0  0  2  0  0  0  0
  1  2  1  0        0
  2  3  1  0        0
  3  4  1  0        0
  3  5  1  0        0
  5  6  1  0        0
  3  7  1  0        0
  7  8  1  0        0
M  END
$$$$

CDXL12

 28 27  0  0  0  0  0  0  0  0999 V2000
   -0.4678   -3.0722    0.0000 O   0  0  0  0  0  0  0  2  0  0  0  0
    0.3572   -3.0722    0.0000 C   0  0  0  0  0  0  0  2  0  0  0  0
    0.7697   -2.3578    0.0000 O   0  0  0  0  0  0  0  2  0  0  0  0
    0.3572   -1.6433    0.0000 C   0  0  0  0  0  0  0  2  0  0  0  0
    1.0717   -1.2308    0.0000 C   0  0  0  0  0  0  0  2  0  0  0  0
    1.0717   -0.4058    0.0000 O   0  0  0  0  0  0  0  2  0  0  0  0
    1.7862   -1.6433    0.0000 O   0  0  0  0  0  0  0  2  0  0  0  0
    2.5006   -1.2308    0.0000 C   0  0  0  0  0  0  0  2  0  0  0  0
    3.2151   -1.6433    0.0000 C   0  0  0  0  0  0  0  2  0  0  0  0
    3.9296   -1.2308    0.0000 C   0  0  0  0  0  0  0  2  0  0  0  0
    4.6441   -1.6433    0.0000 C   0  0  0  0  0  0  0  2  0  0  0  0
   -0.3572   -2.0558    0.0000 C   0  0  0  0  0  0  0  2  0  0  0  0
   -1.0717   -1.6433    0.0000 C   0  0  0  0  0  0  0  2  0  0  0  0
   -1.0717   -0.8183    0.0000 O   0  0  0  0  0  0  0  2  0  0  0  0
   -1.7862   -2.0558    0.0000 O   0  0  0  0  0  0  0  2  0  0  0  0
   -2.5006   -1.6433    0.0000 C   0  0  0  0  0  0  0  2  0  0  0  0
   -3.2151   -2.0558    0.0000 C   0  0  0  0  0  0  0  2  0  0  0  0
   -3.9296   -1.6433    0.0000 C   0  0  0  0  0  0  0  2  0  0  0  0
   -4.6441   -2.0558    0.0000 C   0  0  0  0  0  0  0  2  0  0  0  0
   -0.1790   -0.7145    0.0000 C   0  0  0  0  0  0  0  2  0  0  0  0
    0.3572    0.2143    0.0000 C   0  0  0  0  0  0  0  2  0  0  0  0
    1.1822    0.2143    0.0000 O   0  0  0  0  0  0  0  2  0  0  0  0
   -0.0553    0.9288    0.0000 O   0  0  0  0  0  0  0  2  0  0  0  0
    0.3572    1.6433    0.0000 C   0  0  0  0  0  0  0  2  0  0  0  0
   -0.0553    2.3578    0.0000 C   0  0  0  0  0  0  0  2  0  0  0  0
    0.3572    3.0722    0.0000 C   0  0  0  0  0  0  0  2  0  0  0  0
   -0.0553    3.7867    0.0000 C   0  0  0  0  0  0  0  2  0  0  0  0
    0.7697   -3.7867    0.0000 C   0  0  0  0  0  0  0  2  0  0  0  0
  1  2  2  0        0
  2  3  1  0        0
  3  4  1  0        0
  4  5  1  0        0
  5  6  2  0        0
  5  7  1  0        0
  7  8  1  0        0
  8  9  1  0        0
  9 10  1  0        0
 10 11  1  0        0
  4 12  1  0        0
 12 13  1  0        0
 13 14  2  0        0
 13 15  1  0        0
 15 16  1  0        0
 16 17  1  0        0
 17 18  1  0        0
 18 19  1  0        0
  4 20  1  0        0
 20 21  1  0        0
 21 22  2  0        0
 21 23  1  0        0
 23 24  1  0        0
 24 25  1  0        0
 25 26  1  0        0
 26 27  1  0        0
  2 28  1  0        0
M  END
$$$$

CDXL12

 13 12  0  0  0  0  0  0  0  0999 V2000
   -0.7145    1.0313    0.0000 O   0  0  0  0  0  0  0  2  0  0  0  0
    0.0000    0.6188    0.0000 C   0  0  0  0  0  0  0  2  0  0  0  0
    0.7145    1.0313    0.0000 O   0  0  0  0  0  0  0  2  0  0  0  0
    0.0000   -0.2063    0.0000 C   0  0  0  0  0  0  0  2  0  0  0  0
    0.0000   -1.0313    0.0000 O   0  0  0  0  0  0  0  2  0  0  0  0
    0.7145   -0.6188    0.0000 C   0  0  0  0  0  0  0  2  0  0  0  0
    1.4289   -0.2062    0.0000 C   0  0  0  0  0  0  0  2  0  0  0  0
    1.4289    0.6188    0.0000 O   0  0  0  0  0  0  0  2  0  0  0  0
    2.1434   -0.6188    0.0000 O   0  0  0  0  0  0  0  2  0  0  0  0
   -0.7145   -0.6188    0.0000 C   0  0  0  0  0  0  0  2  0  0  0  0
   -1.4289   -0.2063    0.0000 C   0  0  0  0  0  0  0  2  0  0  0  0
   -1.4289    0.6187    0.0000 O   0  0  0  0  0  0  0  2  0  0  0  0
   -2.1434   -0.6188    0.0000 O   0  0  0  0  0  0  0  2  0  0  0  0
  1  2  2  0        0
  2  3  1  0        0
  2  4  1  0        0
  4  5  1  0        0
  4  6  1  0        0
  6  7  1  0        0
  7  8  2  0        0
  7  9  1  0        0
  4 10  1  0        0
 10 11  1  0        0
 11 12  2  0        0
 11 13  1  0        0
M  END
$$$$

CDXL12

 19 18  0  0  0  0  0  0  0  0999 V2000
   -0.7145    0.4125    0.0000 O   0  0  0  0  0  0  0  2  0  0  0  0
   -0.0000    0.0000    0.0000 C   0  0  0  0  0  0  0  2  0  0  0  0
    0.7145    0.4125    0.0000 O   0  0  0  0  0  0  0  2  0  0  0  0
    0.7145    1.2375    0.0000 C   0  0  0  0  0  0  0  2  0  0  0  0
    1.4289    1.6500    0.0000 C   0  0  0  0  0  0  0  2  0  0  0  0
   -0.0000   -0.8250    0.0000 C   0  0  0  0  0  0  0  2  0  0  0  0
   -0.0000   -1.6500    0.0000 O   0  0  0  0  0  0  0  2  0  0  0  0
   -0.7145   -1.2375    0.0000 C   0  0  0  0  0  0  0  2  0  0  0  0
   -1.4289   -0.8250    0.0000 C   0  0  0  0  0  0  0  2  0  0  0  0
   -1.4289    0.0000    0.0000 O   0  0  0  0  0  0  0  2  0  0  0  0
   -2.1434   -1.2375    0.0000 O   0  0  0  0  0  0  0  2  0  0  0  0
   -2.8579   -0.8250    0.0000 C   0  0  0  0  0  0  0  2  0  0  0  0
   -3.5724   -1.2375    0.0000 C   0  0  0  0  0  0  0  2  0  0  0  0
    0.7145   -1.2375    0.0000 C   0  0  0  0  0  0  0  2  0  0  0  0
    1.4289   -0.8250    0.0000 C   0  0  0  0  0  0  0  2  0  0  0  0
    1.4289   -0.0000    0.0000 O   0  0  0  0  0  0  0  2  0  0  0  0
    2.1434   -1.2375    0.0000 O   0  0  0  0  0  0  0  2  0  0  0  0
    2.8579   -0.8250    0.0000 C   0  0  0  0  0  0  0  2  0  0  0  0
    3.5724   -1.2375    0.0000 C   0  0  0  0  0  0  0  2  0  0  0  0
  1  2  2  0        0
  2  3  1  0        0
  3  4  1  0        0
  4  5  1  0        0
  2  6  1  0        0
  6  7  1  0        0
  6  8  1  0        0
  8  9  1  0        0
  9 10  2  0        0
  9 11  1  0        0
 11 12  1  0        0
 12 13  1  0        0
  6 14  1  0        0
 14 15  1  0        0
 15 16  2  0        0
 15 17  1  0        0
 17 18  1  0        0
 18 19  1  0        0
M  END
$$$$

CDXL12

  9  8  0  0  0  0  0  0  0  0999 V2000
    1.4289    0.0000    0.0000 O   0  0  0  0  0  0  0  2  0  0  0  0
    0.7145   -0.4125    0.0000 C   0  0  0  0  0  0  0  2  0  0  0  0
    0.0000   -0.0000    0.0000 C   0  0  0  0  0  0  0  2  0  0  0  0
   -0.4125   -0.7145    0.0000 C   0  0  0  0  0  0  0  2  0  0  0  0
   -1.2375   -0.7145    0.0000 C   0  0  0  0  0  0  0  2  0  0  0  0
   -0.7145    0.4125    0.0000 C   0  0  0  0  0  0  0  2  0  0  0  0
   -1.4289   -0.0000    0.0000 O   0  0  0  0  0  0  0  2  0  0  0  0
    0.4125    0.7145    0.0000 C   0  0  0  0  0  0  0  2  0  0  0  0
    1.2375    0.7145    0.0000 O   0  0  0  0  0  0  0  2  0  0  0  0
  1  2  1  0        0
  2  3  1  0        0
  3  4  1  0        0
  4  5  1  0        0
  3  6  1  0        0
  6  7  1  0        0
  3  8  1  0        0
  8  9  1  0        0
M  END
$$$$

CDXL12

  9  8  0  0  0  0  0  0  0  0999 V2000
    1.4289    0.0000    0.0000 C   0  0  0  0  0  0  0  2  0  0  0  0
    0.7145   -0.4125    0.0000 C   0  0  0  0  0  0  0  2  0  0  0  0
    0.0000   -0.0000    0.0000 Pb  0  0  0  0  0  0  0  2  0  0  0  0
    0.4125    0.7145    0.0000 C   0  0  0  0  0  0  0  2  0  0  0  0
    1.2375    0.7145    0.0000 C   0  0  0  0  0  0  0  2  0  0  0  0
   -0.7145    0.4125    0.0000 C   0  0  0  0  0  0  0  2  0  0  0  0
   -1.4289   -0.0000    0.0000 C   0  0  0  0  0  0  0  2  0  0  0  0
   -0.4125   -0.7145    0.0000 C   0  0  0  0  0  0  0  2  0  0  0  0
   -1.2375   -0.7145    0.0000 C   0  0  0  0  0  0  0  2  0  0  0  0
  1  2  1  0        0
  2  3  1  0        0
  3  4  1  0        0
  4  5  1  0        0
  3  6  1  0        0
  6  7  1  0        0
  3  8  1  0        0
  8  9  1  0        0
M  END
$$$$

CDXL12

 21 20  0  0  0  0  0  0  0  0999 V2000
   -2.1434   -1.2375    0.0000 O   0  0  0  0  0  0  0  2  0  0  0  0
   -2.1434   -0.4125    0.0000 N   0  0  0  0  0  0  0  2  0  0  0  0
   -2.8579   -0.0000    0.0000 O   0  0  0  0  0  0  0  2  0  0  0  0
   -1.4289   -0.0000    0.0000 O   0  0  0  0  0  0  0  2  0  0  0  0
   -0.7145   -0.4125    0.0000 C   0  0  0  0  0  0  0  2  0  0  0  0
   -0.0000    0.0000    0.0000 C   0  0  0  0  0  0  0  2  0  0  0  0
   -0.4125    0.7145    0.0000 C   0  0  0  0  0  0  0  2  0  0  0  0
   -1.2375    0.7145    0.0000 O   0  0  0  0  0  0  0  2  0  0  0  0
   -1.6500    1.4289    0.0000 N   0  0  0  0  0  0  0  2  0  0  0  0
   -1.2375    2.1434    0.0000 O   0  0  0  0  0  0  0  2  0  0  0  0
   -2.4750    1.4289    0.0000 O   0  0  0  0  0  0  0  2  0  0  0  0
    0.7145    0.4125    0.0000 C   0  0  0  0  0  0  0  2  0  0  0  0
    1.4289   -0.0000    0.0000 O   0  0  0  0  0  0  0  2  0  0  0  0
    2.1434    0.4125    0.0000 N   0  0  0  0  0  0  0  2  0  0  0  0
    2.1434    1.2375    0.0000 O   0  0  0  0  0  0  0  2  0  0  0  0
    2.8579   -0.0000    0.0000 O   0  0  0  0  0  0  0  2  0  0  0  0
    0.4125   -0.7145    0.0000 C   0  0  0  0  0  0  0  2  0  0  0  0
    1.2375   -0.7145    0.0000 O   0  0  0  0  0  0  0  2  0  0  0  0
    1.6500   -1.4289    0.0000 N   0  0  0  0  0  0  0  2  0  0  0  0
    1.2375   -2.1434    0.0000 O   0  0  0  0  0  0  0  2  0  0  0  0
    2.4750   -1.4289    0.0000 O   0  0  0  0  0  0  0  2  0  0  0  0
  1  2  2  0        0
  2  3  2  0        0
  2  4  1  0        0
  4  5  1  0        0
  5  6  1  0        0
  6  7  1  0        0
  7  8  1  0        0
  8  9  1  0        0
  9 10  2  0        0
  9 11  2  0        0
  6 12  1  0        0
 12 13  1  0        0
 13 14  1  0        0
 14 15  2  0        0
 14 16  2  0        0
  6 17  1  0        0
 17 18  1  0        0
 18 19  1  0        0
 19 20  2  0        0
 19 21  2  0        0
M  END
$$$$

CDXL12

 26 28  0  0  0  0  0  0  0  0999 V2000
    0.0000   -1.4438    0.0000 O   0  0  0  0  0  0  0  2  0  0  0  0
    0.0000   -0.6188    0.0000 P   0  0  0  0  0  0  0  2  0  0  0  0
   -0.7145   -0.2062    0.0000 O   0  0  0  0  0  0  0  2  0  0  0  0
   -1.4289   -0.6188    0.0000 C   0  0  0  0  0  0  0  2  0  0  0  0
   -1.4289   -1.4438    0.0000 C   0  0  0  0  0  0  0  2  0  0  0  0
   -2.1434   -1.8563    0.0000 C   0  0  0  0  0  0  0  2  0  0  0  0
   -2.8579   -1.4438    0.0000 C   0  0  0  0  0  0  0  2  0  0  0  0
   -2.8579   -0.6188    0.0000 C   0  0  0  0  0  0  0  2  0  0  0  0
   -2.1434   -0.2062    0.0000 C   0  0  0  0  0  0  0  2  0  0  0  0
   -3.5724   -1.8563    0.0000 C   0  0  0  0  0  0  0  2  0  0  0  0
    0.7145   -0.2062    0.0000 O   0  0  0  0  0  0  0  2  0  0  0  0
    1.4289   -0.6188    0.0000 C   0  0  0  0  0  0  0  2  0  0  0  0
    2.1434   -0.2062    0.0000 C   0  0  0  0  0  0  0  2  0  0  0  0
    2.8579   -0.6188    0.0000 C   0  0  0  0  0  0  0  2  0  0  0  0
    2.8579   -1.4438    0.0000 C   0  0  0  0  0  0  0  2  0  0  0  0
    2.1434   -1.8563    0.0000 C   0  0  0  0  0  0  0  2  0  0  0  0
    1.4289   -1.4438    0.0000 C   0  0  0  0  0  0  0  2  0  0  0  0
    3.5724   -1.8563    0.0000 C   0  0  0  0  0  0  0  2  0  0  0  0
    0.0000    0.2062    0.0000 O   0  0  0  0  0  0  0  2  0  0  0  0
   -0.7145    0.6188    0.0000 C   0  0  0  0  0  0  0  2  0  0  0  0
   -1.4289    0.2062    0.0000 C   0  0  0  0  0  0  0  2  0  0  0  0
   -2.1434    0.6187    0.0000 C   0  0  0  0  0  0  0  2  0  0  0  0
   -2.1434    1.4438    0.0000 C   0  0  0  0  0  0  0  2  0  0  0  0
   -1.4289    1.8563    0.0000 C   0  0  0  0  0  0  0  2  0  0  0  0
   -0.7145    1.4438    0.0000 C   0  0  0  0  0  0  0  2  0  0  0  0
   -2.8579    1.8563    0.0000 C   0  0  0  0  0  0  0  2  0  0  0  0
  1  2  2  0        0
  2  3  1  0        0
  3  4  1  0        0
  4  5  4  0        0
  5  6  4  0        0
  6  7  4  0        0
  7  8  4  0        0
  8  9  4  0        0
  4  9  4  0        0
  7 10  1  0        0
  2 11  1  0        0
 11 12  1  0        0
 12 13  4  0        0
 13 14  4  0        0
 14 15  4  0        0
 15 16  4  0        0
 16 17  4  0        0
 12 17  4  0        0
 15 18  1  0        0
  2 19  1  0        0
 19 20  1  0        0
 20 21  4  0        0
 21 22  4  0        0
 22 23  4  0        0
 23 24  4  0        0
 24 25  4  0        0
 20 25  4  0        0
 23 26  1  0        0
M  END
$$$$

CDXL12

 11 10  0  0  0  0  0  0  0  0999 V2000
    0.0000    1.4438    0.0000 O   0  0  0  0  0  0  0  2  0  0  0  0
    0.0000    0.6188    0.0000 P   0  0  0  0  0  0  0  2  0  0  0  0
   -0.7145    0.2062    0.0000 O   0  0  0  0  0  0  0  2  0  0  0  0
   -1.4289    0.6187    0.0000 C   0  0  0  0  0  0  0  2  0  0  0  0
   -2.1434    0.2062    0.0000 C   0  0  0  0  0  0  0  2  0  0  0  0
    0.7145    0.2062    0.0000 O   0  0  0  0  0  0  0  2  0  0  0  0
    1.4289    0.6187    0.0000 C   0  0  0  0  0  0  0  2  0  0  0  0
    2.1434    0.2062    0.0000 C   0  0  0  0  0  0  0  2  0  0  0  0
    0.0000   -0.2062    0.0000 O   0  0  0  0  0  0  0  2  0  0  0  0
    0.7145   -0.6188    0.0000 C   0  0  0  0  0  0  0  2  0  0  0  0
    0.7145   -1.4438    0.0000 C   0  0  0  0  0  0  0  2  0  0  0  0
  1  2  2  0        0
  2  3  1  0        0
  3  4  1  0        0
  4  5  1  0        0
  2  6  1  0        0
  6  7  1  0        0
  7  8  1  0        0
  2  9  1  0        0
  9 10  1  0        0
 10 11  1  0        0
M  END
$$$$

CDXL12

 29 28  0  0  0  0  0  0  0  0999 V2000
   -0.0000   -2.6812    0.0000 O   0  0  0  0  0  0  0  2  0  0  0  0
   -0.0000   -1.8562    0.0000 P   0  0  0  0  0  0  0  2  0  0  0  0
    0.7145   -1.4437    0.0000 O   0  0  0  0  0  0  0  2  0  0  0  0
    1.4289   -1.8562    0.0000 C   0  0  0  0  0  0  0  2  0  0  0  0
    2.1434   -1.4437    0.0000 C   0  0  0  0  0  0  0  2  0  0  0  0
    2.8579   -1.8562    0.0000 C   0  0  0  0  0  0  0  2  0  0  0  0
    3.5724   -1.4437    0.0000 C   0  0  0  0  0  0  0  2  0  0  0  0
    4.2868   -1.8562    0.0000 C   0  0  0  0  0  0  0  2  0  0  0  0
    5.0013   -1.4437    0.0000 C   0  0  0  0  0  0  0  2  0  0  0  0
    2.1434   -0.6187    0.0000 C   0  0  0  0  0  0  0  2  0  0  0  0
    2.8579   -0.2062    0.0000 C   0  0  0  0  0  0  0  2  0  0  0  0
   -0.7145   -1.4437    0.0000 O   0  0  0  0  0  0  0  2  0  0  0  0
   -1.4289   -1.8562    0.0000 C   0  0  0  0  0  0  0  2  0  0  0  0
   -2.1434   -1.4437    0.0000 C   0  0  0  0  0  0  0  2  0  0  0  0
   -2.8579   -1.8562    0.0000 C   0  0  0  0  0  0  0  2  0  0  0  0
   -3.5724   -1.4437    0.0000 C   0  0  0  0  0  0  0  2  0  0  0  0
   -4.2868   -1.8562    0.0000 C   0  0  0  0  0  0  0  2  0  0  0  0
   -5.0013   -1.4437    0.0000 C   0  0  0  0  0  0  0  2  0  0  0  0
   -2.1434   -0.6187    0.0000 C   0  0  0  0  0  0  0  2  0  0  0  0
   -2.8579   -0.2062    0.0000 C   0  0  0  0  0  0  0  2  0  0  0  0
   -0.0000   -1.0312    0.0000 O   0  0  0  0  0  0  0  2  0  0  0  0
   -0.7145   -0.6187    0.0000 C   0  0  0  0  0  0  0  2  0  0  0  0
   -0.7145    0.2063    0.0000 C   0  0  0  0  0  0  0  2  0  0  0  0
   -1.4289    0.6188    0.0000 C   0  0  0  0  0  0  0  2  0  0  0  0
   -1.4289    1.4438    0.0000 C   0  0  0  0  0  0  0  2  0  0  0  0
   -2.1434    1.8562    0.0000 C   0  0  0  0  0  0  0  2  0  0  0  0
   -2.1434    2.6812    0.0000 C   0  0  0  0  0  0  0  2  0  0  0  0
   -0.0000    0.6188    0.0000 C   0  0  0  0  0  0  0  2  0  0  0  0
    0.7145    0.2063    0.0000 C   0  0  0  0  0  0  0  2  0  0  0  0
  1  2  2  0        0
  2  3  1  0        0
  3  4  1  0        0
  4  5  1  0        0
  5  6  1  0        0
  6  7  1  0        0
  7  8  1  0        0
  8  9  1  0        0
  5 10  1  0        0
 10 11  1  0        0
  2 12  1  0        0
 12 13  1  0        0
 13 14  1  0        0
 14 15  1  0        0
 15 16  1  0        0
 16 17  1  0        0
 17 18  1  0        0
 14 19  1  0        0
 19 20  1  0        0
  2 21  1  0        0
 21 22  1  0        0
 22 23  1  0        0
 23 24  1  0        0
 24 25  1  0        0
 25 26  1  0        0
 26 27  1  0        0
 23 28  1  0        0
 28 29  1  0        0
M  END
$$$$

CDXL12

 26 25  0  0  0  0  0  0  0  0999 V2000
    0.0000   -2.8875    0.0000 O   0  0  0  0  0  0  0  2  0  0  0  0
    0.0000   -2.0625    0.0000 P   0  0  0  0  0  0  0  2  0  0  0  0
   -0.7145   -1.6500    0.0000 O   0  0  0  0  0  0  0  2  0  0  0  0
   -1.4289   -2.0625    0.0000 C   0  0  0  0  0  0  0  2  0  0  0  0
   -2.1434   -1.6500    0.0000 C   0  0  0  0  0  0  0  2  0  0  0  0
   -2.8579   -2.0625    0.0000 O   0  0  0  0  0  0  0  2  0  0  0  0
   -3.5724   -1.6500    0.0000 C   0  0  0  0  0  0  0  2  0  0  0  0
   -4.2868   -2.0625    0.0000 C   0  0  0  0  0  0  0  2  0  0  0  0
   -5.0013   -1.6500    0.0000 C   0  0  0  0  0  0  0  2  0  0  0  0
   -5.7158   -2.0625    0.0000 C   0  0  0  0  0  0  0  2  0  0  0  0
    0.7145   -1.6500    0.0000 O   0  0  0  0  0  0  0  2  0  0  0  0
    1.4289   -2.0625    0.0000 C   0  0  0  0  0  0  0  2  0  0  0  0
    2.1434   -1.6500    0.0000 C   0  0  0  0  0  0  0  2  0  0  0  0
    2.8579   -2.0625    0.0000 O   0  0  0  0  0  0  0  2  0  0  0  0
    3.5724   -1.6500    0.0000 C   0  0  0  0  0  0  0  2  0  0  0  0
    4.2868   -2.0625    0.0000 C   0  0  0  0  0  0  0  2  0  0  0  0
    5.0013   -1.6500    0.0000 C   0  0  0  0  0  0  0  2  0  0  0  0
    5.7158   -2.0625    0.0000 C   0  0  0  0  0  0  0  2  0  0  0  0
    0.0000   -1.2375    0.0000 O   0  0  0  0  0  0  0  2  0  0  0  0
   -0.7145   -0.8250    0.0000 C   0  0  0  0  0  0  0  2  0  0  0  0
   -0.7145    0.0000    0.0000 C   0  0  0  0  0  0  0  2  0  0  0  0
   -1.4289    0.4125    0.0000 O   0  0  0  0  0  0  0  2  0  0  0  0
   -1.4289    1.2375    0.0000 C   0  0  0  0  0  0  0  2  0  0  0  0
   -2.1434    1.6500    0.0000 C   0  0  0  0  0  0  0  2  0  0  0  0
   -2.1434    2.4750    0.0000 C   0  0  0  0  0  0  0  2  0  0  0  0
   -2.8579    2.8875    0.0000 C   0  0  0  0  0  0  0  2  0  0  0  0
  1  2  2  0        0
  2  3  1  0        0
  3  4  1  0        0
  4  5  1  0        0
  5  6  1  0        0
  6  7  1  0        0
  7  8  1  0        0
  8  9  1  0        0
  9 10  1  0        0
  2 11  1  0        0
 11 12  1  0        0
 12 13  1  0        0
 13 14  1  0        0
 14 15  1  0        0
 15 16  1  0        0
 16 17  1  0        0
 17 18  1  0        0
  2 19  1  0        0
 19 20  1  0        0
 20 21  1  0        0
 21 22  1  0        0
 22 23  1  0        0
 23 24  1  0        0
 24 25  1  0        0
 25 26  1  0        0
M  END
$$$$

CDXL12

 16 16  0  0  0  0  0  0  0  0999 V2000
    2.8579    0.8250    0.0000 C   0  0  0  0  0  0  0  2  0  0  0  0
    2.1434    0.4125    0.0000 O   0  0  0  0  0  0  0  2  0  0  0  0
    1.4289    0.8250    0.0000 P   0  0  0  0  0  0  0  2  0  0  0  0
    1.4289    1.6500    0.0000 S   0  0  0  0  0  0  0  2  0  0  0  0
    1.4289    0.0000    0.0000 O   0  0  0  0  0  0  0  2  0  0  0  0
    2.1434   -0.4125    0.0000 C   0  0  0  0  0  0  0  2  0  0  0  0
    0.7145    0.4125    0.0000 S   0  0  0  0  0  0  0  2  0  0  0  0
    0.0000    0.8250    0.0000 C   0  0  0  0  0  0  0  2  0  0  0  0
   -0.7145    0.4125    0.0000 C   0  0  0  0  0  0  0  2  0  0  0  0
   -1.4289    0.8250    0.0000 N   0  0  0  0  0  0  0  2  0  0  0  0
   -2.1434    0.4125    0.0000 C   0  0  0  0  0  0  0  2  0  0  0  0
   -2.8579    0.8250    0.0000 N   0  0  0  0  0  0  0  2  0  0  0  0
   -2.1434   -0.4125    0.0000 N   0  0  0  0  0  0  0  2  0  0  0  0
   -1.4289   -0.8250    0.0000 C   0  0  0  0  0  0  0  2  0  0  0  0
   -1.4289   -1.6500    0.0000 N   0  0  0  0  0  0  0  2  0  0  0  0
   -0.7145   -0.4125    0.0000 N   0  0  0  0  0  0  0  2  0  0  0  0
  1  2  1  0        0
  2  3  1  0        0
  3  4  2  0        0
  3  5  1  0        0
  5  6  1  0        0
  3  7  1  0        0
  7  8  1  0        0
  8  9  1  0        0
  9 10  4  0        0
 10 11  4  0        0
 11 12  1  0        0
 11 13  4  0        0
 13 14  4  0        0
 14 15  1  0        0
 14 16  4  0        0
  9 16  4  0        0
M  END
$$$$

CDXL12

  5  4  0  0  0  0  0  0  0  0999 V2000
   -1.0717   -0.2062    0.0000 Br  0  0  0  0  0  0  0  2  0  0  0  0
   -0.3572   -0.6187    0.0000 C   0  0  0  0  0  0  0  2  0  0  0  0
    0.3572   -0.2062    0.0000 C   0  0  0  0  0  0  0  2  0  0  0  0
    0.3572    0.6187    0.0000 Br  0  0  0  0  0  0  0  2  0  0  0  0
    1.0717   -0.6187    0.0000 C   0  0  0  0  0  0  0  2  0  0  0  0
  1  2  1  0        0
  2  3  1  0        0
  3  4  1  0        0
  3  5  1  0        0
M  END
$$$$

CDXL12

  5  4  0  0  0  0  0  0  0  0999 V2000
   -1.0717   -0.2062    0.0000 Br  0  0  0  0  0  0  0  2  0  0  0  0
   -0.3572   -0.6187    0.0000 C   0  0  0  0  0  0  0  2  0  0  0  0
    0.3572   -0.2062    0.0000 C   0  0  0  0  0  0  0  2  0  0  0  0
    0.3572    0.6187    0.0000 C   0  0  0  0  0  0  0  2  0  0  0  0
    1.0717   -0.6187    0.0000 C   0  0  0  0  0  0  0  2  0  0  0  0
  1  2  1  0        0
  2  3  1  0        0
  3  4  1  0        0
  3  5  1  0        0
M  END
$$$$

CDXL12

  5  4  0  0  0  0  0  0  0  0999 V2000
   -0.3572   -0.2062    0.0000 C   0  0  0  0  0  0  0  2  0  0  0  0
    0.3572   -0.6188    0.0000 C   0  0  0  0  0  0  0  2  0  0  0  0
    1.0717   -0.2062    0.0000 C   0  0  0  0  0  0  0  2  0  0  0  0
   -1.0717   -0.6187    0.0000 C   0  0  0  0  0  0  0  2  0  0  0  0
   -0.3572    0.6188    0.0000 C   0  0  0  0  0  0  0  2  0  0  0  0
  1  2  1  0        0
  2  3  1  0        0
  1  4  1  0        0
  1  5  1  0        0
M  END
$$$$

CDXL12

  5  4  0  0  0  0  0  0  0  0999 V2000
   -0.3572   -0.2062    0.0000 C   0  0  0  0  0  0  0  2  0  0  0  0
    0.3572   -0.6188    0.0000 C   0  0  0  0  0  0  0  2  0  0  0  0
    1.0717   -0.2062    0.0000 C   0  0  0  0  0  0  0  2  0  0  0  0
   -1.0717   -0.6187    0.0000 C   0  0  0  0  0  0  0  2  0  0  0  0
   -0.3572    0.6188    0.0000 C   0  0  0  0  0  0  0  2  0  0  0  0
  1  2  1  0        0
  2  3  2  0        0
  1  4  2  0        0
  1  5  1  0        0
M  END
$$$$

CDXL12

  5  4  0  0  0  0  0  0  0  0999 V2000
   -1.0717   -0.2062    0.0000 N   0  0  0  0  0  0  0  2  0  0  0  0
   -0.3572   -0.6187    0.0000 C   0  0  0  0  0  0  0  2  0  0  0  0
    0.3572   -0.2062    0.0000 C   0  0  0  0  0  0  0  2  0  0  0  0
    0.3572    0.6187    0.0000 C   0  0  0  0  0  0  0  2  0  0  0  0
    1.0717   -0.6187    0.0000 C   0  0  0  0  0  0  0  2  0  0  0  0
  1  2  1  0        0
  2  3  1  0        0
  3  4  1  0        0
  3  5  1  0        0
M  END
$$$$

CDXL12

  5  4  0  0  0  0  0  0  0  0999 V2000
   -1.0717   -0.2062    0.0000 O   0  0  0  0  0  0  0  2  0  0  0  0
   -0.3572   -0.6187    0.0000 C   0  0  0  0  0  0  0  2  0  0  0  0
    0.3572   -0.2062    0.0000 C   0  0  0  0  0  0  0  2  0  0  0  0
    0.3572    0.6187    0.0000 C   0  0  0  0  0  0  0  2  0  0  0  0
    1.0717   -0.6187    0.0000 C   0  0  0  0  0  0  0  2  0  0  0  0
  1  2  2  0        0
  2  3  1  0        0
  3  4  1  0        0
  3  5  1  0        0
M  END
$$$$

CDXL12

  5  4  0  0  0  0  0  0  0  0999 V2000
   -1.0717   -0.2062    0.0000 O   0  0  0  0  0  0  0  2  0  0  0  0
   -0.3572   -0.6187    0.0000 C   0  0  0  0  0  0  0  2  0  0  0  0
    0.3572   -0.2062    0.0000 C   0  0  0  0  0  0  0  2  0  0  0  0
    0.3572    0.6187    0.0000 C   0  0  0  0  0  0  0  2  0  0  0  0
    1.0717   -0.6187    0.0000 C   0  0  0  0  0  0  0  2  0  0  0  0
  1  2  2  0        0
  2  3  1  0        0
  3  4  2  0        0
  3  5  1  0        0
M  END
$$$$

CDXL12

  5  4  0  0  0  0  0  0  0  0999 V2000
    0.3572   -0.2062    0.0000 C   0  0  0  0  0  0  0  2  0  0  0  0
    0.3572    0.6187    0.0000 Cl  0  0  0  0  0  0  0  2  0  0  0  0
   -0.3572   -0.6187    0.0000 C   0  0  0  0  0  0  0  2  0  0  0  0
   -1.0717   -0.2062    0.0000 C   0  0  0  0  0  0  0  2  0  0  0  0
    1.0717   -0.6187    0.0000 C   0  0  0  0  0  0  0  2  0  0  0  0
  1  2  1  0        0
  1  3  1  0        0
  3  4  1  0        0
  1  5  1  0        0
M  END
$$$$

CDXL12

  5  4  0  0  0  0  0  0  0  0999 V2000
   -1.0717   -0.2062    0.0000 Cl  0  0  0  0  0  0  0  2  0  0  0  0
   -0.3572   -0.6187    0.0000 C   0  0  0  0  0  0  0  2  0  0  0  0
    0.3572   -0.2062    0.0000 C   0  0  0  0  0  0  0  2  0  0  0  0
    0.3572    0.6187    0.0000 Cl  0  0  0  0  0  0  0  2  0  0  0  0
    1.0717   -0.6187    0.0000 C   0  0  0  0  0  0  0  2  0  0  0  0
  1  2  1  0        0
  2  3  1  0        0
  3  4  1  0        0
  3  5  1  0        0
M  END
$$$$

CDXL12

  5  4  0  0  0  0  0  0  0  0999 V2000
   -0.3572   -0.2062    0.0000 C   0  0  0  0  0  0  0  2  0  0  0  0
   -1.0717   -0.6187    0.0000 C   0  0  0  0  0  0  0  2  0  0  0  0
    0.3572   -0.6188    0.0000 C   0  0  0  0  0  0  0  2  0  0  0  0
    1.0717   -0.2062    0.0000 Cl  0  0  0  0  0  0  0  2  0  0  0  0
   -0.3572    0.6188    0.0000 Cl  0  0  0  0  0  0  0  2  0  0  0  0
  1  2  2  0        0
  1  3  1  0        0
  3  4  1  0        0
  1  5  1  0        0
M  END
$$$$

CDXL12

  5  4  0  0  0  0  0  0  0  0999 V2000
    0.3572    0.6187    0.0000 O   0  0  0  0  0  0  0  2  0  0  0  0
    0.3572   -0.2062    0.0000 C   0  0  0  0  0  0  0  2  0  0  0  0
   -0.3572   -0.6187    0.0000 C   0  0  0  0  0  0  0  2  0  0  0  0
   -1.0717   -0.2062    0.0000 C   0  0  0  0  0  0  0  2  0  0  0  0
    1.0717   -0.6187    0.0000 C   0  0  0  0  0  0  0  2  0  0  0  0
  1  2  1  0        0
  2  3  1  0        0
  3  4  1  0        0
  2  5  1  0        0
M  END
$$$$

CDXL12

  5  4  0  0  0  0  0  0  0  0999 V2000
    0.3572    0.6187    0.0000 O   0  0  0  0  0  0  0  2  0  0  0  0
    0.3572   -0.2062    0.0000 C   0  0  0  0  0  0  0  2  0  0  0  0
   -0.3572   -0.6187    0.0000 C   0  0  0  0  0  0  0  2  0  0  0  0
   -1.0717   -0.2062    0.0000 C   0  0  0  0  0  0  0  2  0  0  0  0
    1.0717   -0.6187    0.0000 C   0  0  0  0  0  0  0  2  0  0  0  0
  1  2  2  0        0
  2  3  1  0        0
  3  4  1  0        0
  2  5  1  0        0
M  END
$$$$

CDXL12

  5  4  0  0  0  0  0  0  0  0999 V2000
    0.3572    0.6187    0.0000 O   0  0  0  0  0  0  0  2  0  0  0  0
    0.3572   -0.2062    0.0000 C   0  0  0  0  0  0  0  2  0  0  0  0
   -0.3572   -0.6187    0.0000 C   0  0  0  0  0  0  0  2  0  0  0  0
   -1.0717   -0.2062    0.0000 C   0  0  0  0  0  0  0  2  0  0  0  0
    1.0717   -0.6187    0.0000 C   0  0  0  0  0  0  0  2  0  0  0  0
  1  2  2  0        0
  2  3  1  0        0
  3  4  2  0        0
  2  5  1  0        0
M  END
$$$$

CDXL12

  5  4  0  0  0  0  0  0  0  0999 V2000
    0.3572    0.6187    0.0000 O   0  0  0  0  0  0  0  2  0  0  0  0
    0.3572   -0.2062    0.0000 C   0  0  0  0  0  0  0  2  0  0  0  0
   -0.3572   -0.6187    0.0000 C   0  0  0  0  0  0  0  2  0  0  0  0
   -1.0717   -0.2062    0.0000 Cl  0  0  0  0  0  0  0  2  0  0  0  0
    1.0717   -0.6187    0.0000 C   0  0  0  0  0  0  0  2  0  0  0  0
  1  2  2  0        0
  2  3  1  0        0
  3  4  1  0        0
  2  5  1  0        0
M  END
$$$$

CDXL12

  5  4  0  0  0  0  0  0  0  0999 V2000
   -1.0717   -0.2062    0.0000 Cl  0  0  0  0  0  0  0  2  0  0  0  0
   -0.3572   -0.6187    0.0000 C   0  0  0  0  0  0  0  2  0  0  0  0
    0.3572   -0.2062    0.0000 C   0  0  0  0  0  0  0  2  0  0  0  0
    0.3572    0.6187    0.0000 Cl  0  0  0  0  0  0  0  2  0  0  0  0
    1.0717   -0.6187    0.0000 Cl  0  0  0  0  0  0  0  2  0  0  0  0
  1  2  1  0        0
  2  3  1  0        0
  3  4  1  0        0
  3  5  1  0        0
M  END
$$$$

CDXL12

  5  4  0  0  0  0  0  0  0  0999 V2000
   -0.3572   -0.2062    0.0000 C   0  0  0  0  0  0  0  2  0  0  0  0
    0.3572   -0.6188    0.0000 C   0  0  0  0  0  0  0  2  0  0  0  0
    1.0717   -0.2062    0.0000 Cl  0  0  0  0  0  0  0  2  0  0  0  0
   -1.0717   -0.6187    0.0000 Cl  0  0  0  0  0  0  0  2  0  0  0  0
   -0.3572    0.6188    0.0000 Cl  0  0  0  0  0  0  0  2  0  0  0  0
  1  2  2  0        0
  2  3  1  0        0
  1  4  1  0        0
  1  5  1  0        0
M  END
$$$$

CDXL12

  5  4  0  0  0  0  0  0  0  0999 V2000
    0.3572    0.6187    0.0000 O   0  0  0  0  0  0  0  2  0  0  0  0
    0.3572   -0.2062    0.0000 C   0  0  0  0  0  0  0  2  0  0  0  0
    1.0717   -0.6187    0.0000 N   0  0  0  0  0  0  0  2  0  0  0  0
   -0.3572   -0.6187    0.0000 C   0  0  0  0  0  0  0  2  0  0  0  0
   -1.0717   -0.2062    0.0000 C   0  0  0  0  0  0  0  2  0  0  0  0
  1  2  2  0        0
  2  3  1  0        0
  2  4  1  0        0
  4  5  2  0        0
M  END
$$$$

CDXL12

  5  4  0  0  0  0  0  0  0  0999 V2000
    0.3572    0.6187    0.0000 O   0  0  0  0  0  0  0  2  0  0  0  0
    0.3572   -0.2062    0.0000 C   0  0  0  0  0  0  0  2  0  0  0  0
    1.0717   -0.6187    0.0000 N   0  0  0  0  0  0  0  2  0  0  0  0
   -0.3572   -0.6187    0.0000 C   0  0  0  0  0  0  0  2  0  0  0  0
   -1.0717   -0.2062    0.0000 Cl  0  0  0  0  0  0  0  2  0  0  0  0
  1  2  2  0        0
  2  3  1  0        0
  2  4  1  0        0
  4  5  1  0        0
M  END
$$$$

CDXL12

  5  4  0  0  0  0  0  0  0  0999 V2000
    0.3572    0.6187    0.0000 O   0  0  0  0  0  0  0  2  0  0  0  0
    0.3572   -0.2062    0.0000 C   0  0  0  0  0  0  0  2  0  0  0  0
    1.0717   -0.6187    0.0000 O   0  0  0  0  0  0  0  2  0  0  0  0
   -0.3572   -0.6187    0.0000 C   0  0  0  0  0  0  0  2  0  0  0  0
   -1.0717   -0.2062    0.0000 C   0  0  0  0  0  0  0  2  0  0  0  0
  1  2  2  0        0
  2  3  1  0        0
  2  4  1  0        0
  4  5  2  0        0
M  END
$$$$

CDXL12

  5  4  0  0  0  0  0  0  0  0999 V2000
    0.3572    0.6187    0.0000 O   0  0  0  0  0  0  0  2  0  0  0  0
    0.3572   -0.2062    0.0000 C   0  0  0  0  0  0  0  2  0  0  0  0
    1.0717   -0.6187    0.0000 O   0  0  0  0  0  0  0  2  0  0  0  0
   -0.3572   -0.6187    0.0000 C   0  0  0  0  0  0  0  2  0  0  0  0
   -1.0717   -0.2062    0.0000 Cl  0  0  0  0  0  0  0  2  0  0  0  0
  1  2  2  0        0
  2  3  1  0        0
  2  4  1  0        0
  4  5  1  0        0
M  END
$$$$

CDXL12

  5  4  0  0  0  0  0  0  0  0999 V2000
   -0.3572    0.6187    0.0000 O   0  0  0  0  0  0  0  2  0  0  0  0
   -0.3572   -0.2062    0.0000 C   0  0  0  0  0  0  0  2  0  0  0  0
    0.3572   -0.6187    0.0000 O   0  0  0  0  0  0  0  2  0  0  0  0
    1.0717   -0.2062    0.0000 C   0  0  0  0  0  0  0  2  0  0  0  0
   -1.0717   -0.6187    0.0000 C   0  0  0  0  0  0  0  2  0  0  0  0
  1  2  2  0        0
  2  3  1  0        0
  3  4  1  0        0
  2  5  1  0        0
M  END
$$$$

CDXL12

  5  4  0  0  0  0  0  0  0  0999 V2000
   -1.0717   -0.6187    0.0000 O   0  0  0  0  0  0  0  2  0  0  0  0
   -0.3572   -0.2062    0.0000 N   0  0  0  0  0  0  0  2  0  0  0  0
   -0.3572    0.6188    0.0000 O   0  0  0  0  0  0  0  2  0  0  0  0
    0.3572   -0.6188    0.0000 C   0  0  0  0  0  0  0  2  0  0  0  0
    1.0717   -0.2062    0.0000 C   0  0  0  0  0  0  0  2  0  0  0  0
  1  2  2  0        0
  2  3  2  0        0
  2  4  1  0        0
  4  5  1  0        0
M  END
$$$$

CDXL12

  6  5  0  0  0  0  0  0  0  0999 V2000
    1.0717    0.2062    0.0000 Br  0  0  0  0  0  0  0  2  0  0  0  0
    0.3572   -0.2062    0.0000 C   0  0  0  0  0  0  0  2  0  0  0  0
    0.3572   -1.0313    0.0000 Br  0  0  0  0  0  0  0  2  0  0  0  0
   -0.3572    0.2062    0.0000 C   0  0  0  0  0  0  0  2  0  0  0  0
   -1.0717   -0.2062    0.0000 Br  0  0  0  0  0  0  0  2  0  0  0  0
   -0.3572    1.0313    0.0000 Br  0  0  0  0  0  0  0  2  0  0  0  0
  1  2  1  0        0
  2  3  1  0        0
  2  4  1  0        0
  4  5  1  0        0
  4  6  1  0        0
M  END
$$$$

CDXL12

  6  5  0  0  0  0  0  0  0  0999 V2000
    0.3572   -0.2062    0.0000 C   0  0  0  0  0  0  0  2  0  0  0  0
   -0.3572    0.2062    0.0000 C   0  0  0  0  0  0  0  2  0  0  0  0
   -1.0717   -0.2062    0.0000 C   0  0  0  0  0  0  0  2  0  0  0  0
   -0.3572    1.0313    0.0000 C   0  0  0  0  0  0  0  2  0  0  0  0
    1.0717    0.2062    0.0000 C   0  0  0  0  0  0  0  2  0  0  0  0
    0.3572   -1.0313    0.0000 C   0  0  0  0  0  0  0  2  0  0  0  0
  1  2  1  0        0
  2  3  1  0        0
  2  4  1  0        0
  1  5  1  0        0
  1  6  1  0        0
M  END
$$$$

CDXL12

  6  5  0  0  0  0  0  0  0  0999 V2000
    0.3572    1.0313    0.0000 O   0  0  0  0  0  0  0  2  0  0  0  0
    0.3572    0.2062    0.0000 C   0  0  0  0  0  0  0  2  0  0  0  0
    1.0717   -0.2062    0.0000 O   0  0  0  0  0  0  0  2  0  0  0  0
   -0.3572   -0.2062    0.0000 C   0  0  0  0  0  0  0  2  0  0  0  0
   -0.3572   -1.0313    0.0000 C   0  0  0  0  0  0  0  2  0  0  0  0
   -1.0717    0.2062    0.0000 C   0  0  0  0  0  0  0  2  0  0  0  0
  1  2  2  0        0
  2  3  1  0        0
  2  4  1  0        0
  4  5  1  0        0
  4  6  1  0        0
M  END
$$$$

CDXL12

  6  5  0  0  0  0  0  0  0  0999 V2000
    0.3572    1.0313    0.0000 O   0  0  0  0  0  0  0  2  0  0  0  0
    0.3572    0.2062    0.0000 C   0  0  0  0  0  0  0  2  0  0  0  0
    1.0717   -0.2062    0.0000 O   0  0  0  0  0  0  0  2  0  0  0  0
   -0.3572   -0.2062    0.0000 C   0  0  0  0  0  0  0  2  0  0  0  0
   -0.3572   -1.0313    0.0000 C   0  0  0  0  0  0  0  2  0  0  0  0
   -1.0717    0.2062    0.0000 C   0  0  0  0  0  0  0  2  0  0  0  0
  1  2  2  0        0
  2  3  1  0        0
  2  4  1  0        0
  4  5  2  0        0
  4  6  1  0        0
M  END
$$$$

CDXL12

  6  5  0  0  0  0  0  0  0  0999 V2000
    0.3572    1.0313    0.0000 O   0  0  0  0  0  0  0  2  0  0  0  0
    0.3572    0.2062    0.0000 C   0  0  0  0  0  0  0  2  0  0  0  0
    1.0717   -0.2062    0.0000 O   0  0  0  0  0  0  0  2  0  0  0  0
   -0.3572   -0.2062    0.0000 C   0  0  0  0  0  0  0  2  0  0  0  0
   -0.3572   -1.0313    0.0000 Cl  0  0  0  0  0  0  0  2  0  0  0  0
   -1.0717    0.2062    0.0000 Cl  0  0  0  0  0  0  0  2  0  0  0  0
  1  2  2  0        0
  2  3  1  0        0
  2  4  1  0        0
  4  5  1  0        0
  4  6  1  0        0
M  END
$$$$

CDXL12

  6  5  0  0  0  0  0  0  0  0999 V2000
   -1.0717   -0.2062    0.0000 O   0  0  0  0  0  0  0  2  0  0  0  0
   -0.3572    0.2062    0.0000 N   0  0  0  0  0  0  0  2  0  0  0  0
   -0.3572    1.0313    0.0000 O   0  0  0  0  0  0  0  2  0  0  0  0
    0.3572   -0.2062    0.0000 C   0  0  0  0  0  0  0  2  0  0  0  0
    1.0717    0.2062    0.0000 C   0  0  0  0  0  0  0  2  0  0  0  0
    0.3572   -1.0313    0.0000 C   0  0  0  0  0  0  0  2  0  0  0  0
  1  2  2  0        0
  2  3  2  0        0
  2  4  1  0        0
  4  5  1  0        0
  4  6  1  0        0
M  END
$$$$

CDXL12

 33 36  0  0  0  0  0  0  0  0999 V2000
    2.8579    1.8563    0.0000 O   0  0  0  0  0  0  0  2  0  0  0  0
    2.8579    1.0313    0.0000 C   0  0  0  0  0  0  0  2  0  0  0  0
    3.5724    0.6187    0.0000 N   0  0  0  0  0  0  0  2  0  0  0  0
    2.1434    0.6187    0.0000 C   0  0  0  0  0  0  0  2  0  0  0  0
    2.1434   -0.2062    0.0000 C   0  0  0  0  0  0  0  2  0  0  0  0
    2.8579   -0.6188    0.0000 O   0  0  0  0  0  0  0  2  0  0  0  0
    1.4289   -0.6188    0.0000 C   0  0  0  0  0  0  0  2  0  0  0  0
    1.4289   -1.4438    0.0000 N   0  0  0  0  0  0  0  2  0  0  0  0
    0.7145   -1.8563    0.0000 C   0  0  0  0  0  0  0  2  0  0  0  0
    2.1434   -1.8563    0.0000 C   0  0  0  0  0  0  0  2  0  0  0  0
    0.7145   -0.2062    0.0000 C   0  0  0  0  0  0  0  2  0  0  0  0
    0.7145    0.6187    0.0000 C   0  0  0  0  0  0  0  2  0  0  0  0
    0.7145    1.4437    0.0000 O   0  0  0  0  0  0  0  2  0  0  0  0
   -0.0000    1.0312    0.0000 C   0  0  0  0  0  0  0  2  0  0  0  0
   -0.0000    1.8562    0.0000 O   0  0  0  0  0  0  0  2  0  0  0  0
   -0.7145    0.6187    0.0000 C   0  0  0  0  0  0  0  2  0  0  0  0
   -0.7145   -0.2062    0.0000 C   0  0  0  0  0  0  0  2  0  0  0  0
   -1.4289   -0.6187    0.0000 C   0  0  0  0  0  0  0  2  0  0  0  0
   -1.0164   -1.3332    0.0000 O   0  0  0  0  0  0  0  2  0  0  0  0
   -2.1434   -0.2062    0.0000 C   0  0  0  0  0  0  0  2  0  0  0  0
   -2.1434    0.6188    0.0000 C   0  0  0  0  0  0  0  2  0  0  0  0
   -2.8579    1.0313    0.0000 C   0  0  0  0  0  0  0  2  0  0  0  0
   -2.8579    1.8563    0.0000 O   0  0  0  0  0  0  0  2  0  0  0  0
   -3.5724    0.6188    0.0000 C   0  0  0  0  0  0  0  2  0  0  0  0
   -3.5724   -0.2062    0.0000 C   0  0  0  0  0  0  0  2  0  0  0  0
   -2.8579   -0.6187    0.0000 C   0  0  0  0  0  0  0  2  0  0  0  0
   -1.4289    1.0313    0.0000 C   0  0  0  0  0  0  0  2  0  0  0  0
   -1.4289    1.8563    0.0000 O   0  0  0  0  0  0  0  2  0  0  0  0
   -1.8414   -1.3332    0.0000 C   0  0  0  0  0  0  0  2  0  0  0  0
   -0.0000   -0.6188    0.0000 C   0  0  0  0  0  0  0  2  0  0  0  0
   -0.0000   -1.4438    0.0000 O   0  0  0  0  0  0  0  2  0  0  0  0
    1.4289    1.0312    0.0000 C   0  0  0  0  0  0  0  2  0  0  0  0
    1.4289    1.8562    0.0000 O   0  0  0  0  0  0  0  2  0  0  0  0
  1  2  2  0        0
  2  3  1  0        0
  2  4  1  0        0
  4  5  2  0        0
  5  6  1  0        0
  5  7  1  0        0
  7  8  1  0        0
  8  9  1  0        0
  8 10  1  0        0
  7 11  1  0        0
 11 12  1  0        0
 12 13  1  0        0
 12 14  1  0        0
 14 15  1  0        0
 14 16  2  0        0
 16 17  1  0        0
 17 18  1  0        0
 18 19  1  0        0
 18 20  1  0        0
 20 21  4  0        0
 21 22  4  0        0
 22 23  1  0        0
 22 24  4  0        0
 24 25  4  0        0
 25 26  4  0        0
 20 26  4  0        0
 21 27  1  0        0
 16 27  1  0        0
 27 28  2  0        0
 18 29  1  0        0
 17 30  1  0        0
 11 30  1  0        0
 30 31  1  0        0
 12 32  1  0        0
  4 32  1  0        0
 32 33  2  0        0
M  END
$$$$

CDXL12

 10 11  0  0  0  0  0  0  0  0999 V2000
    0.3020   -0.5635    0.0000 C   0  0  0  0  0  0  0  2  0  0  0  0
   -0.4125   -0.9760    0.0000 C   0  0  0  0  0  0  0  2  0  0  0  0
   -0.7490   -0.1510    0.0000 C   0  0  0  0  0  0  0  2  0  0  0  0
   -0.4125    0.6740    0.0000 C   0  0  0  0  0  0  0  2  0  0  0  0
   -1.1270    0.2615    0.0000 C   0  0  0  0  0  0  0  2  0  0  0  0
   -1.1270   -0.5635    0.0000 C   0  0  0  0  0  0  0  2  0  0  0  0
    0.3020    0.2615    0.0000 C   0  0  0  0  0  0  0  2  0  0  0  0
    0.7145    0.9760    0.0000 C   0  0  0  0  0  0  0  2  0  0  0  0
    1.1270    0.2615    0.0000 C   0  0  0  0  0  0  0  2  0  0  0  0
    1.0164   -0.9760    0.0000 C   0  0  0  0  0  0  0  2  0  0  0  0
  1  2  1  0        0
  2  3  1  0        0
  3  4  1  0        0
  4  5  1  0        0
  5  6  1  0        0
  2  6  1  0        0
  4  7  1  0        0
  1  7  1  0        0
  7  8  1  0        0
  7  9  1  0        0
  1 10  2  0        0
M  END
$$$$

CDXL12

 17 18  0  0  0  0  0  0  0  0999 V2000
    2.8579    1.1822    0.0000 O   0  0  0  0  0  0  0  2  0  0  0  0
    2.1434    0.7697    0.0000 C   0  0  0  0  0  0  0  2  0  0  0  0
    2.1434   -0.0553    0.0000 C   0  0  0  0  0  0  0  2  0  0  0  0
    1.4289   -0.4678    0.0000 C   0  0  0  0  0  0  0  2  0  0  0  0
    0.7145   -0.0553    0.0000 C   0  0  0  0  0  0  0  2  0  0  0  0
    0.7145    0.7697    0.0000 C   0  0  0  0  0  0  0  2  0  0  0  0
    1.4289    1.1822    0.0000 C   0  0  0  0  0  0  0  2  0  0  0  0
    0.0000   -0.4678    0.0000 C   0  0  0  0  0  0  0  2  0  0  0  0
   -0.7145   -0.0553    0.0000 C   0  0  0  0  0  0  0  2  0  0  0  0
   -1.4289   -0.4678    0.0000 C   0  0  0  0  0  0  0  2  0  0  0  0
   -2.1434   -0.0553    0.0000 C   0  0  0  0  0  0  0  2  0  0  0  0
   -2.1434    0.7697    0.0000 C   0  0  0  0  0  0  0  2  0  0  0  0
   -2.8579    1.1822    0.0000 O   0  0  0  0  0  0  0  2  0  0  0  0
   -1.4289    1.1822    0.0000 C   0  0  0  0  0  0  0  2  0  0  0  0
   -0.7145    0.7697    0.0000 C   0  0  0  0  0  0  0  2  0  0  0  0
   -0.4125   -1.1822    0.0000 C   0  0  0  0  0  0  0  2  0  0  0  0
    0.4125   -1.1822    0.0000 C   0  0  0  0  0  0  0  2  0  0  0  0
  1  2  1  0        0
  2  3  4  0        0
  3  4  4  0        0
  4  5  4  0        0
  5  6  4  0        0
  6  7  4  0        0
  2  7  4  0        0
  5  8  1  0        0
  8  9  1  0        0
  9 10  4  0        0
 10 11  4  0        0
 11 12  4  0        0
 12 13  1  0        0
 12 14  4  0        0
 14 15  4  0        0
  9 15  4  0        0
  8 16  1  0        0
  8 17  1  0        0
M  END
$$$$

CDXL12

 17 18  0  0  0  0  0  0  0  0999 V2000
    0.4125   -0.7145    0.0000 O   0  0  0  0  0  0  0  2  0  0  0  0
   -0.0000   -0.0000    0.0000 S   0  0  0  0  0  0  0  2  0  0  0  0
   -0.4125    0.7145    0.0000 O   0  0  0  0  0  0  0  2  0  0  0  0
   -0.7145   -0.4125    0.0000 C   0  0  0  0  0  0  0  2  0  0  0  0
   -0.7145   -1.2375    0.0000 C   0  0  0  0  0  0  0  2  0  0  0  0
   -1.4289   -1.6500    0.0000 C   0  0  0  0  0  0  0  2  0  0  0  0
   -2.1434   -1.2375    0.0000 C   0  0  0  0  0  0  0  2  0  0  0  0
   -2.8579   -1.6500    0.0000 N   0  0  0  0  0  0  0  2  0  0  0  0
   -2.1434   -0.4125    0.0000 C   0  0  0  0  0  0  0  2  0  0  0  0
   -1.4289   -0.0000    0.0000 C   0  0  0  0  0  0  0  2  0  0  0  0
    0.7145    0.4125    0.0000 C   0  0  0  0  0  0  0  2  0  0  0  0
    0.7145    1.2375    0.0000 C   0  0  0  0  0  0  0  2  0  0  0  0
    1.4289    1.6500    0.0000 C   0  0  0  0  0  0  0  2  0  0  0  0
    2.1434    1.2375    0.0000 C   0  0  0  0  0  0  0  2  0  0  0  0
    2.8579    1.6500    0.0000 N   0  0  0  0  0  0  0  2  0  0  0  0
    2.1434    0.4125    0.0000 C   0  0  0  0  0  0  0  2  0  0  0  0
    1.4289   -0.0000    0.0000 C   0  0  0  0  0  0  0  2  0  0  0  0
  1  2  2  0        0
  2  3  2  0        0
  2  4  1  0        0
  4  5  4  0        0
  5  6  4  0        0
  6  7  4  0        0
  7  8  1  0        0
  7  9  4  0        0
  9 10  4  0        0
  4 10  4  0        0
  2 11  1  0        0
 11 12  4  0        0
 12 13  4  0        0
 13 14  4  0        0
 14 15  1  0        0
 14 16  4  0        0
 16 17  4  0        0
 11 17  4  0        0
M  END
$$$$

CDXL12

 11 11  0  0  0  0  0  0  0  0999 V2000
    1.0717   -0.0553    0.0000 O   0  0  0  0  0  0  0  2  0  0  0  0
    1.7862   -0.4678    0.0000 O   0  0  0  0  0  0  0  2  0  0  0  0
    0.3572   -0.4678    0.0000 C   0  0  0  0  0  0  0  2  0  0  0  0
   -0.3572   -0.0553    0.0000 C   0  0  0  0  0  0  0  2  0  0  0  0
   -1.0717   -0.4678    0.0000 C   0  0  0  0  0  0  0  2  0  0  0  0
   -1.7862   -0.0553    0.0000 C   0  0  0  0  0  0  0  2  0  0  0  0
   -1.7862    0.7697    0.0000 C   0  0  0  0  0  0  0  2  0  0  0  0
   -1.0717    1.1822    0.0000 C   0  0  0  0  0  0  0  2  0  0  0  0
   -0.3572    0.7697    0.0000 C   0  0  0  0  0  0  0  2  0  0  0  0
    0.7697   -1.1822    0.0000 C   0  0  0  0  0  0  0  2  0  0  0  0
   -0.0553   -1.1822    0.0000 C   0  0  0  0  0  0  0  2  0  0  0  0
  1  2  1  0        0
  1  3  1  0        0
  3  4  1  0        0
  4  5  4  0        0
  5  6  4  0        0
  6  7  4  0        0
  7  8  4  0        0
  8  9  4  0        0
  4  9  4  0        0
  3 10  1  0        0
  3 11  1  0        0
M  END
$$$$

CDXL12

 19 20  0  0  0  0  0  0  0  0999 V2000
    3.5724   -0.3572    0.0000 C   0  0  0  0  0  0  0  2  0  0  0  0
    2.8579   -0.7697    0.0000 O   0  0  0  0  0  0  0  2  0  0  0  0
    2.1434   -0.3572    0.0000 C   0  0  0  0  0  0  0  2  0  0  0  0
    1.4289   -0.7697    0.0000 C   0  0  0  0  0  0  0  2  0  0  0  0
    0.7145   -0.3572    0.0000 C   0  0  0  0  0  0  0  2  0  0  0  0
    0.7145    0.4678    0.0000 C   0  0  0  0  0  0  0  2  0  0  0  0
   -0.0000    0.8803    0.0000 N   0  0  0  0  0  0  0  2  0  0  0  0
   -0.7145    0.4678    0.0000 S   0  0  0  0  0  0  0  2  0  0  0  0
   -0.3020   -0.2467    0.0000 O   0  0  0  0  0  0  0  2  0  0  0  0
   -1.1270    1.1822    0.0000 O   0  0  0  0  0  0  0  2  0  0  0  0
   -1.4289    0.0553    0.0000 C   0  0  0  0  0  0  0  2  0  0  0  0
   -1.4289   -0.7697    0.0000 C   0  0  0  0  0  0  0  2  0  0  0  0
   -2.1434   -1.1822    0.0000 C   0  0  0  0  0  0  0  2  0  0  0  0
   -2.8579   -0.7697    0.0000 C   0  0  0  0  0  0  0  2  0  0  0  0
   -3.5724   -1.1822    0.0000 N   0  0  0  0  0  0  0  2  0  0  0  0
   -2.8579    0.0553    0.0000 C   0  0  0  0  0  0  0  2  0  0  0  0
   -2.1434    0.4678    0.0000 C   0  0  0  0  0  0  0  2  0  0  0  0
    1.4289    0.8803    0.0000 N   0  0  0  0  0  0  0  2  0  0  0  0
    2.1434    0.4678    0.0000 N   0  0  0  0  0  0  0  2  0  0  0  0
  1  2  1  0        0
  2  3  1  0        0
  3  4  4  0        0
  4  5  4  0        0
  5  6  4  0        0
  6  7  1  0        0
  7  8  1  0        0
  8  9  2  0        0
  8 10  2  0        0
  8 11  1  0        0
 11 12  4  0        0
 12 13  4  0        0
 13 14  4  0        0
 14 15  1  0        0
 14 16  4  0        0
 16 17  4  0        0
 11 17  4  0        0
  6 18  4  0        0
 18 19  4  0        0
  3 19  4  0        0
M  END
$$$$

CDXL12

 20 21  0  0  0  0  0  0  0  0999 V2000
   -0.3572   -0.2062    0.0000 O   0  0  0  0  0  0  0  2  0  0  0  0
    0.3572    0.2062    0.0000 O   0  0  0  0  0  0  0  2  0  0  0  0
    1.0717   -0.2062    0.0000 C   0  0  0  0  0  0  0  2  0  0  0  0
    1.7862    0.2062    0.0000 C   0  0  0  0  0  0  0  2  0  0  0  0
    1.7862    1.0312    0.0000 C   0  0  0  0  0  0  0  2  0  0  0  0
    2.5006    1.4438    0.0000 C   0  0  0  0  0  0  0  2  0  0  0  0
    3.2151    1.0313    0.0000 C   0  0  0  0  0  0  0  2  0  0  0  0
    3.2151    0.2062    0.0000 C   0  0  0  0  0  0  0  2  0  0  0  0
    2.5006   -0.2062    0.0000 C   0  0  0  0  0  0  0  2  0  0  0  0
    1.4842   -0.9207    0.0000 C   0  0  0  0  0  0  0  2  0  0  0  0
    0.6592   -0.9207    0.0000 C   0  0  0  0  0  0  0  2  0  0  0  0
   -1.0717    0.2062    0.0000 C   0  0  0  0  0  0  0  2  0  0  0  0
   -1.7862   -0.2062    0.0000 C   0  0  0  0  0  0  0  2  0  0  0  0
   -1.7862   -1.0313    0.0000 C   0  0  0  0  0  0  0  2  0  0  0  0
   -2.5006   -1.4438    0.0000 C   0  0  0  0  0  0  0  2  0  0  0  0
   -3.2151   -1.0313    0.0000 C   0  0  0  0  0  0  0  2  0  0  0  0
   -3.2151   -0.2062    0.0000 C   0  0  0  0  0  0  0  2  0  0  0  0
   -2.5006    0.2062    0.0000 C   0  0  0  0  0  0  0  2  0  0  0  0
   -1.4842    0.9207    0.0000 C   0  0  0  0  0  0  0  2  0  0  0  0
   -0.6592    0.9207    0.0000 C   0  0  0  0  0  0  0  2  0  0  0  0
  1  2  1  0        0
  2  3  1  0        0
  3  4  1  0        0
  4  5  4  0        0
  5  6  4  0        0
  6  7  4  0        0
  7  8  4  0        0
  8  9  4  0        0
  4  9  4  0        0
  3 10  1  0        0
  3 11  1  0        0
  1 12  1  0        0
 12 13  1  0        0
 13 14  4  0        0
 14 15  4  0        0
 15 16  4  0        0
 16 17  4  0        0
 17 18  4  0        0
 13 18  4  0        0
 12 19  1  0        0
 12 20  1  0        0
M  END
$$$$

CDXL12

 12 12  0  0  0  0  0  0  0  0999 V2000
   -2.1434    1.1822    0.0000 O   0  0  0  0  0  0  0  2  0  0  0  0
   -1.4289    0.7697    0.0000 C   0  0  0  0  0  0  0  2  0  0  0  0
   -0.7145    1.1822    0.0000 C   0  0  0  0  0  0  0  2  0  0  0  0
   -0.0000    0.7697    0.0000 C   0  0  0  0  0  0  0  2  0  0  0  0
   -0.0000   -0.0553    0.0000 C   0  0  0  0  0  0  0  2  0  0  0  0
   -0.7145   -0.4678    0.0000 C   0  0  0  0  0  0  0  2  0  0  0  0
   -1.4289   -0.0553    0.0000 C   0  0  0  0  0  0  0  2  0  0  0  0
    0.7145   -0.4678    0.0000 C   0  0  0  0  0  0  0  2  0  0  0  0
    1.4289   -0.0553    0.0000 C   0  0  0  0  0  0  0  2  0  0  0  0
    2.1434   -0.4678    0.0000 C   0  0  0  0  0  0  0  2  0  0  0  0
    1.1270   -1.1822    0.0000 C   0  0  0  0  0  0  0  2  0  0  0  0
    0.3020   -1.1822    0.0000 C   0  0  0  0  0  0  0  2  0  0  0  0
  1  2  1  0        0
  2  3  4  0        0
  3  4  4  0        0
  4  5  4  0        0
  5  6  4  0        0
  6  7  4  0        0
  2  7  4  0        0
  5  8  1  0        0
  8  9  1  0        0
  9 10  1  0        0
  8 11  1  0        0
  8 12  1  0        0
M  END
$$$$

CDXL12

  7  6  0  0  0  0  0  0  0  0999 V2000
    0.7145    1.0313    0.0000 O   0  0  0  0  0  0  0  2  0  0  0  0
    0.7145    0.2062    0.0000 C   0  0  0  0  0  0  0  2  0  0  0  0
    1.4289   -0.2062    0.0000 O   0  0  0  0  0  0  0  2  0  0  0  0
    0.0000   -0.2062    0.0000 C   0  0  0  0  0  0  0  2  0  0  0  0
    0.0000   -1.0313    0.0000 Br  0  0  0  0  0  0  0  2  0  0  0  0
   -0.7145    0.2062    0.0000 C   0  0  0  0  0  0  0  2  0  0  0  0
   -1.4289   -0.2062    0.0000 C   0  0  0  0  0  0  0  2  0  0  0  0
  1  2  2  0        0
  2  3  1  0        0
  2  4  1  0        0
  4  5  1  0        0
  4  6  1  0        0
  6  7  1  0        0
M  END
$$$$

CDXL12

  7  6  0  0  0  0  0  0  0  0999 V2000
    0.0000    1.0312    0.0000 O   0  0  0  0  0  0  0  2  0  0  0  0
    0.0000    0.2062    0.0000 C   0  0  0  0  0  0  0  2  0  0  0  0
    0.7145   -0.2063    0.0000 O   0  0  0  0  0  0  0  2  0  0  0  0
    1.4289    0.2062    0.0000 C   0  0  0  0  0  0  0  2  0  0  0  0
   -0.7145   -0.2063    0.0000 C   0  0  0  0  0  0  0  2  0  0  0  0
   -0.7145   -1.0312    0.0000 C   0  0  0  0  0  0  0  2  0  0  0  0
   -1.4289    0.2062    0.0000 C   0  0  0  0  0  0  0  2  0  0  0  0
  1  2  2  0        0
  2  3  1  0        0
  3  4  1  0        0
  2  5  1  0        0
  5  6  2  0        0
  5  7  1  0        0
M  END
$$$$

CDXL12

 12 13  0  0  0  0  0  0  0  0999 V2000
    1.0552   -1.4632    0.0000 O   0  0  0  0  0  0  0  2  0  0  0  0
    0.8002   -0.6786    0.0000 C   0  0  0  0  0  0  0  2  0  0  0  0
    1.2852   -0.0112    0.0000 N   0  0  0  0  0  0  0  2  0  0  0  0
    0.8002    0.6563    0.0000 S   0  0  0  0  0  0  0  2  0  0  0  0
    1.4133    1.2083    0.0000 O   0  0  0  0  0  0  0  2  0  0  0  0
    0.6287    1.4632    0.0000 O   0  0  0  0  0  0  0  2  0  0  0  0
    0.0156    0.4013    0.0000 C   0  0  0  0  0  0  0  2  0  0  0  0
   -0.6989    0.8138    0.0000 C   0  0  0  0  0  0  0  2  0  0  0  0
   -1.4133    0.4013    0.0000 C   0  0  0  0  0  0  0  2  0  0  0  0
   -1.4133   -0.4237    0.0000 C   0  0  0  0  0  0  0  2  0  0  0  0
   -0.6989   -0.8362    0.0000 C   0  0  0  0  0  0  0  2  0  0  0  0
    0.0156   -0.4237    0.0000 C   0  0  0  0  0  0  0  2  0  0  0  0
  1  2  2  0        0
  2  3  1  0        0
  3  4  1  0        0
  4  5  2  0        0
  4  6  2  0        0
  4  7  1  0        0
  7  8  4  0        0
  8  9  4  0        0
  9 10  4  0        0
 10 11  4  0        0
 11 12  4  0        0
  2 12  1  0        0
  7 12  4  0        0
M  END
$$$$

CDXL12

 21 21  0  0  0  0  0  0  0  0999 V2000
    1.4289    1.8563    0.0000 O   0  0  0  0  0  0  0  2  0  0  0  0
    1.4289    1.0313    0.0000 C   0  0  0  0  0  0  0  2  0  0  0  0
    0.7145    0.6188    0.0000 C   0  0  0  0  0  0  0  2  0  0  0  0
    0.0000    1.0313    0.0000 C   0  0  0  0  0  0  0  2  0  0  0  0
   -0.7145    0.6187    0.0000 C   0  0  0  0  0  0  0  2  0  0  0  0
   -0.7145   -0.2063    0.0000 C   0  0  0  0  0  0  0  2  0  0  0  0
    0.0000   -0.6188    0.0000 C   0  0  0  0  0  0  0  2  0  0  0  0
    0.7145   -0.2062    0.0000 C   0  0  0  0  0  0  0  2  0  0  0  0
    1.4289   -0.6188    0.0000 C   0  0  0  0  0  0  0  2  0  0  0  0
    0.0000   -1.4438    0.0000 N   0  0  0  0  0  0  0  2  0  0  0  0
   -0.7145   -1.8562    0.0000 O   0  0  0  0  0  0  0  2  0  0  0  0
    0.7145   -1.8563    0.0000 O   0  0  0  0  0  0  0  2  0  0  0  0
   -1.4289   -0.6188    0.0000 C   0  0  0  0  0  0  0  2  0  0  0  0
   -2.1434   -1.0313    0.0000 C   0  0  0  0  0  0  0  2  0  0  0  0
   -1.4289   -1.4438    0.0000 C   0  0  0  0  0  0  0  2  0  0  0  0
   -2.1434   -0.2063    0.0000 C   0  0  0  0  0  0  0  2  0  0  0  0
   -1.4289    1.0312    0.0000 N   0  0  0  0  0  0  0  2  0  0  0  0
   -1.4289    1.8562    0.0000 O   0  0  0  0  0  0  0  2  0  0  0  0
   -2.1434    0.6187    0.0000 O   0  0  0  0  0  0  0  2  0  0  0  0
    0.0000    1.8563    0.0000 C   0  0  0  0  0  0  0  2  0  0  0  0
    2.1434    0.6188    0.0000 C   0  0  0  0  0  0  0  2  0  0  0  0
  1  2  2  0        0
  2  3  1  0        0
  3  4  4  0        0
  4  5  4  0        0
  5  6  4  0        0
  6  7  4  0        0
  7  8  4  0        0
  3  8  4  0        0
  8  9  1  0        0
  7 10  1  0        0
 10 11  2  0        0
 10 12  2  0        0
  6 13  1  0        0
 13 14  1  0        0
 13 15  1  0        0
 13 16  1  0        0
  5 17  1  0        0
 17 18  2  0        0
 17 19  2  0        0
  4 20  1  0        0
  2 21  1  0        0
M  END
$$$$

CDXL12

 21 21  0  0  0  0  0  0  0  0999 V2000
   -1.4289    1.8563    0.0000 O   0  0  0  0  0  0  0  2  0  0  0  0
   -1.4289    1.0313    0.0000 N   0  0  0  0  0  0  0  2  0  0  0  0
   -2.1434    0.6188    0.0000 O   0  0  0  0  0  0  0  2  0  0  0  0
   -0.7145    0.6188    0.0000 C   0  0  0  0  0  0  0  2  0  0  0  0
    0.0000    1.0313    0.0000 C   0  0  0  0  0  0  0  2  0  0  0  0
    0.7145    0.6187    0.0000 C   0  0  0  0  0  0  0  2  0  0  0  0
    0.7145   -0.2063    0.0000 C   0  0  0  0  0  0  0  2  0  0  0  0
    0.0000   -0.6188    0.0000 C   0  0  0  0  0  0  0  2  0  0  0  0
   -0.7145   -0.2062    0.0000 C   0  0  0  0  0  0  0  2  0  0  0  0
   -1.4289   -0.6188    0.0000 C   0  0  0  0  0  0  0  2  0  0  0  0
    0.0000   -1.4438    0.0000 N   0  0  0  0  0  0  0  2  0  0  0  0
    0.7145   -1.8563    0.0000 O   0  0  0  0  0  0  0  2  0  0  0  0
   -0.7145   -1.8562    0.0000 O   0  0  0  0  0  0  0  2  0  0  0  0
    1.4289   -0.6188    0.0000 C   0  0  0  0  0  0  0  2  0  0  0  0
    2.1434   -1.0313    0.0000 C   0  0  0  0  0  0  0  2  0  0  0  0
    1.4289   -1.4438    0.0000 C   0  0  0  0  0  0  0  2  0  0  0  0
    2.1434   -0.2063    0.0000 C   0  0  0  0  0  0  0  2  0  0  0  0
    1.4289    1.0312    0.0000 N   0  0  0  0  0  0  0  2  0  0  0  0
    1.4289    1.8562    0.0000 O   0  0  0  0  0  0  0  2  0  0  0  0
    2.1434    0.6187    0.0000 O   0  0  0  0  0  0  0  2  0  0  0  0
    0.0000    1.8563    0.0000 C   0  0  0  0  0  0  0  2  0  0  0  0
  1  2  2  0        0
  2  3  2  0        0
  2  4  1  0        0
  4  5  4  0        0
  5  6  4  0        0
  6  7  4  0        0
  7  8  4  0        0
  8  9  4  0        0
  4  9  4  0        0
  9 10  1  0        0
  8 11  1  0        0
 11 12  2  0        0
 11 13  2  0        0
  7 14  1  0        0
 14 15  1  0        0
 14 16  1  0        0
 14 17  1  0        0
  6 18  1  0        0
 18 19  2  0        0
 18 20  2  0        0
  5 21  1  0        0
M  END
$$$$

CDXL12

 15 16  0  0  0  0  0  0  0  0999 V2000
    1.1822    0.8250    0.0000 O   0  0  0  0  0  0  0  2  0  0  0  0
    0.3572    0.8250    0.0000 S   0  0  0  0  0  0  0  2  0  0  0  0
   -0.4678    0.8250    0.0000 O   0  0  0  0  0  0  0  2  0  0  0  0
    0.3572    1.6500    0.0000 O   0  0  0  0  0  0  0  2  0  0  0  0
    0.3572   -0.0000    0.0000 C   0  0  0  0  0  0  0  2  0  0  0  0
   -0.3572   -0.4125    0.0000 C   0  0  0  0  0  0  0  2  0  0  0  0
   -0.3572   -1.2375    0.0000 C   0  0  0  0  0  0  0  2  0  0  0  0
   -1.0717   -1.6500    0.0000 C   0  0  0  0  0  0  0  2  0  0  0  0
   -1.7862   -1.2375    0.0000 C   0  0  0  0  0  0  0  2  0  0  0  0
   -1.7862   -0.4125    0.0000 C   0  0  0  0  0  0  0  2  0  0  0  0
   -1.0717    0.0000    0.0000 C   0  0  0  0  0  0  0  2  0  0  0  0
    0.3572   -1.6500    0.0000 C   0  0  0  0  0  0  0  2  0  0  0  0
    1.0717   -1.2375    0.0000 C   0  0  0  0  0  0  0  2  0  0  0  0
    1.0717   -0.4125    0.0000 C   0  0  0  0  0  0  0  2  0  0  0  0
    1.7862   -0.0000    0.0000 N   0  0  0  0  0  0  0  2  0  0  0  0
  1  2  2  0        0
  2  3  2  0        0
  2  4  1  0        0
  2  5  1  0        0
  5  6  4  0        0
  6  7  4  0        0
  7  8  4  0        0
  8  9  4  0        0
  9 10  4  0        0
 10 11  4  0        0
  6 11  4  0        0
  7 12  4  0        0
 12 13  4  0        0
 13 14  4  0        0
  5 14  4  0        0
 14 15  1  0        0
M  END
$$$$

CDXL12

 29 32  0  0  0  0  0  0  0  0999 V2000
    3.5195    2.7196    0.0000 O   0  0  0  0  0  0  0  2  0  0  0  0
    3.3060    1.9227    0.0000 C   0  0  0  0  0  0  0  2  0  0  0  0
    3.8893    1.3393    0.0000 O   0  0  0  0  0  0  0  2  0  0  0  0
    2.4990    1.7511    0.0000 C   0  0  0  0  0  0  0  2  0  0  0  0
    2.2440    0.9665    0.0000 C   0  0  0  0  0  0  0  2  0  0  0  0
    1.4371    0.7950    0.0000 C   0  0  0  0  0  0  0  2  0  0  0  0
    1.1821    0.0104    0.0000 C   0  0  0  0  0  0  0  2  0  0  0  0
    0.3975   -0.2446    0.0000 C   0  0  0  0  0  0  0  2  0  0  0  0
    0.3975   -1.0696    0.0000 C   0  0  0  0  0  0  0  2  0  0  0  0
   -0.3170   -1.4821    0.0000 C   0  0  0  0  0  0  0  2  0  0  0  0
   -1.0314   -1.0696    0.0000 C   0  0  0  0  0  0  0  2  0  0  0  0
   -1.7459   -1.4821    0.0000 C   0  0  0  0  0  0  0  2  0  0  0  0
   -1.7459   -2.3071    0.0000 C   0  0  0  0  0  0  0  2  0  0  0  0
   -1.0314   -2.7196    0.0000 C   0  0  0  0  0  0  0  2  0  0  0  0
   -0.3170   -2.3071    0.0000 C   0  0  0  0  0  0  0  2  0  0  0  0
    0.3975   -2.7196    0.0000 O   0  0  0  0  0  0  0  2  0  0  0  0
   -2.4604   -2.7196    0.0000 C   0  0  0  0  0  0  0  2  0  0  0  0
   -3.1748   -2.3071    0.0000 C   0  0  0  0  0  0  0  2  0  0  0  0
   -3.8893   -2.7196    0.0000 O   0  0  0  0  0  0  0  2  0  0  0  0
   -3.1748   -1.4821    0.0000 C   0  0  0  0  0  0  0  2  0  0  0  0
   -2.4604   -1.0696    0.0000 C   0  0  0  0  0  0  0  2  0  0  0  0
   -1.7459   -0.6571    0.0000 C   0  0  0  0  0  0  0  2  0  0  0  0
   -1.0314   -0.2446    0.0000 C   0  0  0  0  0  0  0  2  0  0  0  0
   -0.3170    0.1679    0.0000 C   0  0  0  0  0  0  0  2  0  0  0  0
   -0.3170    0.9929    0.0000 O   0  0  0  0  0  0  0  2  0  0  0  0
    1.1821   -1.3245    0.0000 C   0  0  0  0  0  0  0  2  0  0  0  0
    1.6671   -0.6571    0.0000 C   0  0  0  0  0  0  0  2  0  0  0  0
    0.4837    0.5759    0.0000 C   0  0  0  0  0  0  0  2  0  0  0  0
    0.8537    1.3784    0.0000 C   0  0  0  0  0  0  0  2  0  0  0  0
  1  2  2  0        0
  2  3  1  0        0
  2  4  1  0        0
  4  5  1  0        0
  5  6  1  0        0
  6  7  1  0        0
  7  8  1  0        0
  8  9  1  0        0
  9 10  1  0        0
 10 11  1  0        0
 11 12  1  0        0
 12 13  1  0        0
 13 14  1  0        0
 14 15  1  0        0
 10 15  1  0        0
 15 16  1  0        0
 13 17  1  0        0
 17 18  1  0        0
 18 19  1  0        0
 18 20  1  0        0
 20 21  1  0        0
 12 21  1  0        0
 12 22  1  0        0
 11 23  1  0        0
 23 24  1  0        0
  8 24  1  0        0
 24 25  1  0        0
  9 26  1  0        0
 26 27  1  0        0
  7 27  1  0        0
  8 28  1  0        0
  6 29  1  0        0
M  END
$$$$

CDXL12

 20 22  0  0  0  0  0  0  0  0999 V2000
    0.3572    0.4125    0.0000 C   0  0  0  0  0  0  0  2  0  0  0  0
    1.0717    0.8250    0.0000 C   0  0  0  0  0  0  0  2  0  0  0  0
    1.0717    1.6500    0.0000 N   0  0  0  0  0  0  0  2  0  0  0  0
    1.7862    0.4125    0.0000 C   0  0  0  0  0  0  0  2  0  0  0  0
    2.5006    0.8250    0.0000 Cl  0  0  0  0  0  0  0  2  0  0  0  0
    1.7862   -0.4125    0.0000 C   0  0  0  0  0  0  0  2  0  0  0  0
    2.5006   -0.8250    0.0000 Cl  0  0  0  0  0  0  0  2  0  0  0  0
    1.0717   -0.8250    0.0000 C   0  0  0  0  0  0  0  2  0  0  0  0
    1.0717   -1.6500    0.0000 N   0  0  0  0  0  0  0  2  0  0  0  0
    0.3572   -0.4125    0.0000 C   0  0  0  0  0  0  0  2  0  0  0  0
   -0.3572   -0.8250    0.0000 C   0  0  0  0  0  0  0  2  0  0  0  0
   -0.3572   -1.6500    0.0000 O   0  0  0  0  0  0  0  2  0  0  0  0
   -1.0717   -0.4125    0.0000 C   0  0  0  0  0  0  0  2  0  0  0  0
   -1.7862   -0.8250    0.0000 C   0  0  0  0  0  0  0  2  0  0  0  0
   -2.5006   -0.4125    0.0000 C   0  0  0  0  0  0  0  2  0  0  0  0
   -2.5006    0.4125    0.0000 C   0  0  0  0  0  0  0  2  0  0  0  0
   -1.7862    0.8250    0.0000 C   0  0  0  0  0  0  0  2  0  0  0  0
   -1.0717    0.4125    0.0000 C   0  0  0  0  0  0  0  2  0  0  0  0
   -0.3572    0.8250    0.0000 C   0  0  0  0  0  0  0  2  0  0  0  0
   -0.3572    1.6500    0.0000 O   0  0  0  0  0  0  0  2  0  0  0  0
  1  2  4  0        0
  2  3  1  0        0
  2  4  4  0        0
  4  5  1  0        0
  4  6  4  0        0
  6  7  1  0        0
  6  8  4  0        0
  8  9  1  0        0
  8 10  4  0        0
  1 10  4  0        0
 10 11  1  0        0
 11 12  2  0        0
 11 13  1  0        0
 13 14  4  0        0
 14 15  4  0        0
 15 16  4  0        0
 16 17  4  0        0
 17 18  4  0        0
 13 18  4  0        0
 18 19  1  0        0
  1 19  1  0        0
 19 20  2  0        0
M  END
$$$$

CDXL12

 19 21  0  0  0  0  0  0  0  0999 V2000
    2.5006    0.8250    0.0000 O   0  0  0  0  0  0  0  2  0  0  0  0
    1.7862    0.4125    0.0000 C   0  0  0  0  0  0  0  2  0  0  0  0
    1.7862   -0.4125    0.0000 C   0  0  0  0  0  0  0  2  0  0  0  0
    1.0717   -0.8250    0.0000 C   0  0  0  0  0  0  0  2  0  0  0  0
    1.0717   -1.6500    0.0000 O   0  0  0  0  0  0  0  2  0  0  0  0
    0.3572   -0.4125    0.0000 C   0  0  0  0  0  0  0  2  0  0  0  0
   -0.3572   -0.8250    0.0000 C   0  0  0  0  0  0  0  2  0  0  0  0
   -0.3572   -1.6500    0.0000 O   0  0  0  0  0  0  0  2  0  0  0  0
   -1.0717   -0.4125    0.0000 C   0  0  0  0  0  0  0  2  0  0  0  0
   -1.7862   -0.8250    0.0000 C   0  0  0  0  0  0  0  2  0  0  0  0
   -2.5006   -0.4125    0.0000 C   0  0  0  0  0  0  0  2  0  0  0  0
   -2.5006    0.4125    0.0000 C   0  0  0  0  0  0  0  2  0  0  0  0
   -1.7862    0.8250    0.0000 C   0  0  0  0  0  0  0  2  0  0  0  0
   -1.0717    0.4125    0.0000 C   0  0  0  0  0  0  0  2  0  0  0  0
   -0.3572    0.8250    0.0000 C   0  0  0  0  0  0  0  2  0  0  0  0
   -0.3572    1.6500    0.0000 O   0  0  0  0  0  0  0  2  0  0  0  0
    0.3572    0.4125    0.0000 C   0  0  0  0  0  0  0  2  0  0  0  0
    1.0717    0.8250    0.0000 C   0  0  0  0  0  0  0  2  0  0  0  0
    1.0717    1.6500    0.0000 O   0  0  0  0  0  0  0  2  0  0  0  0
  1  2  1  0        0
  2  3  4  0        0
  3  4  4  0        0
  4  5  1  0        0
  4  6  4  0        0
  6  7  1  0        0
  7  8  2  0        0
  7  9  1  0        0
  9 10  4  0        0
 10 11  4  0        0
 11 12  4  0        0
 12 13  4  0        0
 13 14  4  0        0
  9 14  4  0        0
 14 15  1  0        0
 15 16  2  0        0
 15 17  1  0        0
  6 17  4  0        0
 17 18  4  0        0
  2 18  4  0        0
 18 19  1  0        0
M  END
$$$$

CDXL12

 20 22  0  0  0  0  0  0  0  0999 V2000
   -0.3572   -1.6500    0.0000 O   0  0  0  0  0  0  0  2  0  0  0  0
   -0.3572   -0.8250    0.0000 C   0  0  0  0  0  0  0  2  0  0  0  0
    0.3572   -0.4125    0.0000 C   0  0  0  0  0  0  0  2  0  0  0  0
    0.3572    0.4125    0.0000 C   0  0  0  0  0  0  0  2  0  0  0  0
    1.0717    0.8250    0.0000 C   0  0  0  0  0  0  0  2  0  0  0  0
    1.0717    1.6500    0.0000 O   0  0  0  0  0  0  0  2  0  0  0  0
    1.7862    0.4125    0.0000 C   0  0  0  0  0  0  0  2  0  0  0  0
    2.5006    0.8250    0.0000 O   0  0  0  0  0  0  0  2  0  0  0  0
    1.7862   -0.4125    0.0000 C   0  0  0  0  0  0  0  2  0  0  0  0
    1.0717   -0.8250    0.0000 C   0  0  0  0  0  0  0  2  0  0  0  0
   -0.3572    0.8250    0.0000 C   0  0  0  0  0  0  0  2  0  0  0  0
   -0.3572    1.6500    0.0000 O   0  0  0  0  0  0  0  2  0  0  0  0
   -1.0717    0.4125    0.0000 C   0  0  0  0  0  0  0  2  0  0  0  0
   -1.7862    0.8250    0.0000 C   0  0  0  0  0  0  0  2  0  0  0  0
   -1.7862    1.6500    0.0000 O   0  0  0  0  0  0  0  2  0  0  0  0
   -2.5006    0.4125    0.0000 C   0  0  0  0  0  0  0  2  0  0  0  0
   -2.5006   -0.4125    0.0000 C   0  0  0  0  0  0  0  2  0  0  0  0
   -1.7862   -0.8250    0.0000 C   0  0  0  0  0  0  0  2  0  0  0  0
   -1.7862   -1.6500    0.0000 O   0  0  0  0  0  0  0  2  0  0  0  0
   -1.0717   -0.4125    0.0000 C   0  0  0  0  0  0  0  2  0  0  0  0
  1  2  2  0        0
  2  3  1  0        0
  3  4  4  0        0
  4  5  4  0        0
  5  6  1  0        0
  5  7  4  0        0
  7  8  1  0        0
  7  9  4  0        0
  9 10  4  0        0
  3 10  4  0        0
  4 11  1  0        0
 11 12  2  0        0
 11 13  1  0        0
 13 14  4  0        0
 14 15  1  0        0
 14 16  4  0        0
 16 17  4  0        0
 17 18  4  0        0
 18 19  1  0        0
 18 20  4  0        0
  2 20  1  0        0
 13 20  4  0        0
M  END
$$$$

CDXL12

 18 20  0  0  0  0  0  0  0  0999 V2000
    0.0000   -1.6500    0.0000 O   0  0  0  0  0  0  0  2  0  0  0  0
    0.0000   -0.8250    0.0000 C   0  0  0  0  0  0  0  2  0  0  0  0
   -0.7145   -0.4125    0.0000 C   0  0  0  0  0  0  0  2  0  0  0  0
   -0.7145    0.4125    0.0000 C   0  0  0  0  0  0  0  2  0  0  0  0
    0.0000    0.8250    0.0000 C   0  0  0  0  0  0  0  2  0  0  0  0
    0.0000    1.6500    0.0000 O   0  0  0  0  0  0  0  2  0  0  0  0
    0.7145    0.4125    0.0000 C   0  0  0  0  0  0  0  2  0  0  0  0
    1.4289    0.8250    0.0000 C   0  0  0  0  0  0  0  2  0  0  0  0
    1.4289    1.6500    0.0000 O   0  0  0  0  0  0  0  2  0  0  0  0
    2.1434    0.4125    0.0000 C   0  0  0  0  0  0  0  2  0  0  0  0
    2.1434   -0.4125    0.0000 C   0  0  0  0  0  0  0  2  0  0  0  0
    1.4289   -0.8250    0.0000 C   0  0  0  0  0  0  0  2  0  0  0  0
    1.4289   -1.6500    0.0000 O   0  0  0  0  0  0  0  2  0  0  0  0
    0.7145   -0.4125    0.0000 C   0  0  0  0  0  0  0  2  0  0  0  0
   -1.4289    0.8250    0.0000 C   0  0  0  0  0  0  0  2  0  0  0  0
   -2.1434    0.4125    0.0000 C   0  0  0  0  0  0  0  2  0  0  0  0
   -2.1434   -0.4125    0.0000 C   0  0  0  0  0  0  0  2  0  0  0  0
   -1.4289   -0.8250    0.0000 C   0  0  0  0  0  0  0  2  0  0  0  0
  1  2  2  0        0
  2  3  1  0        0
  3  4  4  0        0
  4  5  1  0        0
  5  6  2  0        0
  5  7  1  0        0
  7  8  4  0        0
  8  9  1  0        0
  8 10  4  0        0
 10 11  4  0        0
 11 12  4  0        0
 12 13  1  0        0
 12 14  4  0        0
  2 14  1  0        0
  7 14  4  0        0
  4 15  4  0        0
 15 16  4  0        0
 16 17  4  0        0
 17 18  4  0        0
  3 18  4  0        0
M  END
$$$$

CDXL12

 24 26  0  0  0  0  0  0  0  0999 V2000
    2.8579    1.2375    0.0000 C   0  0  0  0  0  0  0  2  0  0  0  0
    2.1434    0.8250    0.0000 C   0  0  0  0  0  0  0  2  0  0  0  0
    2.1434    0.0000    0.0000 O   0  0  0  0  0  0  0  2  0  0  0  0
    1.4289    1.2375    0.0000 C   0  0  0  0  0  0  0  2  0  0  0  0
    0.7145    0.8250    0.0000 C   0  0  0  0  0  0  0  2  0  0  0  0
    0.7145    0.0000    0.0000 C   0  0  0  0  0  0  0  2  0  0  0  0
    1.4289   -0.4125    0.0000 C   0  0  0  0  0  0  0  2  0  0  0  0
    1.4289   -1.2375    0.0000 C   0  0  0  0  0  0  0  2  0  0  0  0
    0.7145   -1.6500    0.0000 C   0  0  0  0  0  0  0  2  0  0  0  0
    0.7145   -2.4750    0.0000 Cl  0  0  0  0  0  0  0  2  0  0  0  0
   -0.0000   -1.2375    0.0000 C   0  0  0  0  0  0  0  2  0  0  0  0
   -0.0000   -0.4125    0.0000 C   0  0  0  0  0  0  0  2  0  0  0  0
   -0.0000    1.2375    0.0000 C   0  0  0  0  0  0  0  2  0  0  0  0
   -0.7145    0.8250    0.0000 C   0  0  0  0  0  0  0  2  0  0  0  0
   -0.7145    0.0000    0.0000 O   0  0  0  0  0  0  0  2  0  0  0  0
   -1.4289    1.2375    0.0000 C   0  0  0  0  0  0  0  2  0  0  0  0
   -2.1434    0.8250    0.0000 C   0  0  0  0  0  0  0  2  0  0  0  0
   -2.8579    1.2375    0.0000 C   0  0  0  0  0  0  0  2  0  0  0  0
   -2.8579    2.0625    0.0000 C   0  0  0  0  0  0  0  2  0  0  0  0
   -2.1434    2.4750    0.0000 C   0  0  0  0  0  0  0  2  0  0  0  0
   -1.4289    2.0625    0.0000 C   0  0  0  0  0  0  0  2  0  0  0  0
   -0.7145    2.4750    0.0000 O   0  0  0  0  0  0  0  2  0  0  0  0
   -0.0000    2.0625    0.0000 C   0  0  0  0  0  0  0  2  0  0  0  0
    0.7145    2.4750    0.0000 O   0  0  0  0  0  0  0  2  0  0  0  0
  1  2  1  0        0
  2  3  2  0        0
  2  4  1  0        0
  4  5  1  0        0
  5  6  1  0        0
  6  7  4  0        0
  7  8  4  0        0
  8  9  4  0        0
  9 10  1  0        0
  9 11  4  0        0
 11 12  4  0        0
  6 12  4  0        0
  5 13  1  0        0
 13 14  2  0        0
 14 15  1  0        0
 14 16  1  0        0
 16 17  4  0        0
 17 18  4  0        0
 18 19  4  0        0
 19 20  4  0        0
 20 21  4  0        0
 16 21  4  0        0
 21 22  1  0        0
 22 23  1  0        0
 13 23  1  0        0
 23 24  2  0        0
M  END
$$$$

CDXL12

 34 37  0  0  0  0  0  0  0  0999 V2000
   -2.5006   -2.9288    0.0000 C   0  0  0  0  0  0  0  2  0  0  0  0
   -3.2151   -2.5162    0.0000 C   0  0  0  0  0  0  0  2  0  0  0  0
   -3.2151   -1.6912    0.0000 N   0  0  0  0  0  0  0  2  0  0  0  0
   -3.9296   -1.2788    0.0000 C   0  0  0  0  0  0  0  2  0  0  0  0
   -3.9296   -0.4538    0.0000 C   0  0  0  0  0  0  0  2  0  0  0  0
   -2.5006   -1.2788    0.0000 C   0  0  0  0  0  0  0  2  0  0  0  0
   -2.5006   -0.4538    0.0000 C   0  0  0  0  0  0  0  2  0  0  0  0
   -1.7862   -0.0413    0.0000 C   0  0  0  0  0  0  0  2  0  0  0  0
   -1.0717   -0.4538    0.0000 C   0  0  0  0  0  0  0  2  0  0  0  0
   -0.3572   -0.0413    0.0000 C   0  0  0  0  0  0  0  2  0  0  0  0
   -0.3572    1.2788    0.0000 C   0  0  0  0  0  0  0  2  0  0  0  0
   -1.0717    1.6912    0.0000 C   0  0  0  0  0  0  0  2  0  0  0  0
   -1.0717    2.5162    0.0000 C   0  0  0  0  0  0  0  2  0  0  0  0
   -0.3572    2.9288    0.0000 C   0  0  0  0  0  0  0  2  0  0  0  0
    0.3572    2.5162    0.0000 C   0  0  0  0  0  0  0  2  0  0  0  0
    0.3572    1.6912    0.0000 C   0  0  0  0  0  0  0  2  0  0  0  0
    1.0717    1.2788    0.0000 C   0  0  0  0  0  0  0  2  0  0  0  0
    1.7862    1.6912    0.0000 O   0  0  0  0  0  0  0  2  0  0  0  0
    1.0717    0.4537    0.0000 O   0  0  0  0  0  0  0  2  0  0  0  0
    0.3572   -0.4537    0.0000 C   0  0  0  0  0  0  0  2  0  0  0  0
    1.0717   -0.0413    0.0000 C   0  0  0  0  0  0  0  2  0  0  0  0
    1.7862   -0.4538    0.0000 C   0  0  0  0  0  0  0  2  0  0  0  0
    1.7862   -1.2788    0.0000 C   0  0  0  0  0  0  0  2  0  0  0  0
    1.0717   -1.6912    0.0000 C   0  0  0  0  0  0  0  2  0  0  0  0
    0.3572   -1.2787    0.0000 C   0  0  0  0  0  0  0  2  0  0  0  0
   -0.3572   -1.6912    0.0000 O   0  0  0  0  0  0  0  2  0  0  0  0
   -1.0717   -1.2788    0.0000 C   0  0  0  0  0  0  0  2  0  0  0  0
   -1.7862   -1.6912    0.0000 C   0  0  0  0  0  0  0  2  0  0  0  0
    2.5006   -1.6912    0.0000 N   0  0  0  0  0  0  0  2  0  0  0  0
    3.2151   -1.2788    0.0000 Cl  0  0  0  0  0  0  0  2  0  0  0  0
    3.2151   -2.1038    0.0000 C   0  0  0  0  0  0  0  2  0  0  0  0
    3.9296   -1.6912    0.0000 C   0  0  0  0  0  0  0  2  0  0  0  0
    2.5006   -2.5162    0.0000 C   0  0  0  0  0  0  0  2  0  0  0  0
    1.7862   -2.9288    0.0000 C   0  0  0  0  0  0  0  2  0  0  0  0
  1  2  1  0        0
  2  3  1  0        0
  3  4  1  0        0
  4  5  1  0        0
  3  6  1  0        0
  6  7  4  0        0
  7  8  4  0        0
  8  9  4  0        0
  9 10  1  0        0
 10 11  1  0        0
 11 12  4  0        0
 12 13  4  0        0
 13 14  4  0        0
 14 15  4  0        0
 15 16  4  0        0
 11 16  4  0        0
 16 17  1  0        0
 17 18  1  0        0
 17 19  2  0        0
 10 20  1  0        0
 20 21  1  0        0
 21 22  1  0        0
 22 23  1  0        0
 23 24  1  0        0
 24 25  1  0        0
 20 25  1  0        0
 25 26  1  0        0
 26 27  1  0        0
  9 27  4  0        0
 27 28  4  0        0
  6 28  4  0        0
 23 29  2  0        0
 29 30  1  0        0
 29 31  1  0        0
 31 32  1  0        0
 29 33  1  0        0
 33 34  1  0        0
M  END
$$$$

CDXL12

 18 20  0  0  0  0  0  0  0  0999 V2000
   -0.3572   -1.6500    0.0000 O   0  0  0  0  0  0  0  2  0  0  0  0
   -0.3572   -0.8250    0.0000 C   0  0  0  0  0  0  0  2  0  0  0  0
   -1.0717   -0.4125    0.0000 C   0  0  0  0  0  0  0  2  0  0  0  0
   -1.0717    0.4125    0.0000 C   0  0  0  0  0  0  0  2  0  0  0  0
   -0.3572    0.8250    0.0000 C   0  0  0  0  0  0  0  2  0  0  0  0
   -0.3572    1.6500    0.0000 O   0  0  0  0  0  0  0  2  0  0  0  0
    0.3572    0.4125    0.0000 C   0  0  0  0  0  0  0  2  0  0  0  0
    1.0717    0.8250    0.0000 C   0  0  0  0  0  0  0  2  0  0  0  0
    1.0717    1.6500    0.0000 N   0  0  0  0  0  0  0  2  0  0  0  0
    1.7862    0.4125    0.0000 C   0  0  0  0  0  0  0  2  0  0  0  0
    1.7862   -0.4125    0.0000 C   0  0  0  0  0  0  0  2  0  0  0  0
    1.0717   -0.8250    0.0000 C   0  0  0  0  0  0  0  2  0  0  0  0
    0.3572   -0.4125    0.0000 C   0  0  0  0  0  0  0  2  0  0  0  0
    2.5006    0.8250    0.0000 C   0  0  0  0  0  0  0  2  0  0  0  0
   -1.7862    0.8250    0.0000 C   0  0  0  0  0  0  0  2  0  0  0  0
   -2.5006    0.4125    0.0000 C   0  0  0  0  0  0  0  2  0  0  0  0
   -2.5006   -0.4125    0.0000 C   0  0  0  0  0  0  0  2  0  0  0  0
   -1.7862   -0.8250    0.0000 C   0  0  0  0  0  0  0  2  0  0  0  0
  1  2  2  0        0
  2  3  1  0        0
  3  4  4  0        0
  4  5  1  0        0
  5  6  2  0        0
  5  7  1  0        0
  7  8  4  0        0
  8  9  1  0        0
  8 10  4  0        0
 10 11  4  0        0
 11 12  4  0        0
 12 13  4  0        0
  2 13  1  0        0
  7 13  4  0        0
 10 14  1  0        0
  4 15  4  0        0
 15 16  4  0        0
 16 17  4  0        0
 17 18  4  0        0
  3 18  4  0        0
M  END
$$$$

CDXL12

 18 20  0  0  0  0  0  0  0  0999 V2000
    0.0000   -1.8563    0.0000 O   0  0  0  0  0  0  0  2  0  0  0  0
    0.0000   -1.0313    0.0000 C   0  0  0  0  0  0  0  2  0  0  0  0
    0.7145   -0.6188    0.0000 C   0  0  0  0  0  0  0  2  0  0  0  0
    0.7145    0.2062    0.0000 C   0  0  0  0  0  0  0  2  0  0  0  0
    1.4289    0.6188    0.0000 C   0  0  0  0  0  0  0  2  0  0  0  0
    1.4289    1.4438    0.0000 N   0  0  0  0  0  0  0  2  0  0  0  0
    2.1434    1.8563    0.0000 C   0  0  0  0  0  0  0  2  0  0  0  0
    2.1434    0.2062    0.0000 C   0  0  0  0  0  0  0  2  0  0  0  0
    2.1434   -0.6187    0.0000 C   0  0  0  0  0  0  0  2  0  0  0  0
    1.4289   -1.0313    0.0000 C   0  0  0  0  0  0  0  2  0  0  0  0
    0.0000    0.6188    0.0000 C   0  0  0  0  0  0  0  2  0  0  0  0
    0.0000    1.4438    0.0000 O   0  0  0  0  0  0  0  2  0  0  0  0
   -0.7145    0.2062    0.0000 C   0  0  0  0  0  0  0  2  0  0  0  0
   -1.4289    0.6188    0.0000 C   0  0  0  0  0  0  0  2  0  0  0  0
   -2.1434    0.2062    0.0000 C   0  0  0  0  0  0  0  2  0  0  0  0
   -2.1434   -0.6187    0.0000 C   0  0  0  0  0  0  0  2  0  0  0  0
   -1.4289   -1.0312    0.0000 C   0  0  0  0  0  0  0  2  0  0  0  0
   -0.7145   -0.6187    0.0000 C   0  0  0  0  0  0  0  2  0  0  0  0
  1  2  2  0        0
  2  3  1  0        0
  3  4  4  0        0
  4  5  4  0        0
  5  6  1  0        0
  6  7  1  0        0
  5  8  4  0        0
  8  9  4  0        0
  9 10  4  0        0
  3 10  4  0        0
  4 11  1  0        0
 11 12  2  0        0
 11 13  1  0        0
 13 14  4  0        0
 14 15  4  0        0
 15 16  4  0        0
 16 17  4  0        0
 17 18  4  0        0
  2 18  1  0        0
 13 18  4  0        0
M  END
$$$$

CDXL12

 17 19  0  0  0  0  0  0  0  0999 V2000
    0.0000   -1.6500    0.0000 O   0  0  0  0  0  0  0  2  0  0  0  0
    0.0000   -0.8250    0.0000 C   0  0  0  0  0  0  0  2  0  0  0  0
    0.7145   -0.4125    0.0000 C   0  0  0  0  0  0  0  2  0  0  0  0
    0.7145    0.4125    0.0000 C   0  0  0  0  0  0  0  2  0  0  0  0
    1.4289    0.8250    0.0000 C   0  0  0  0  0  0  0  2  0  0  0  0
    1.4289    1.6500    0.0000 N   0  0  0  0  0  0  0  2  0  0  0  0
    2.1434    0.4125    0.0000 C   0  0  0  0  0  0  0  2  0  0  0  0
    2.1434   -0.4125    0.0000 C   0  0  0  0  0  0  0  2  0  0  0  0
    1.4289   -0.8250    0.0000 C   0  0  0  0  0  0  0  2  0  0  0  0
    0.0000    0.8250    0.0000 C   0  0  0  0  0  0  0  2  0  0  0  0
    0.0000    1.6500    0.0000 O   0  0  0  0  0  0  0  2  0  0  0  0
   -0.7145    0.4125    0.0000 C   0  0  0  0  0  0  0  2  0  0  0  0
   -1.4289    0.8250    0.0000 C   0  0  0  0  0  0  0  2  0  0  0  0
   -2.1434    0.4125    0.0000 C   0  0  0  0  0  0  0  2  0  0  0  0
   -2.1434   -0.4125    0.0000 C   0  0  0  0  0  0  0  2  0  0  0  0
   -1.4289   -0.8250    0.0000 C   0  0  0  0  0  0  0  2  0  0  0  0
   -0.7145   -0.4125    0.0000 C   0  0  0  0  0  0  0  2  0  0  0  0
  1  2  2  0        0
  2  3  1  0        0
  3  4  4  0        0
  4  5  4  0        0
  5  6  1  0        0
  5  7  4  0        0
  7  8  4  0        0
  8  9  4  0        0
  3  9  4  0        0
  4 10  1  0        0
 10 11  2  0        0
 10 12  1  0        0
 12 13  4  0        0
 13 14  4  0        0
 14 15  4  0        0
 15 16  4  0        0
 16 17  4  0        0
  2 17  1  0        0
 12 17  4  0        0
M  END
$$$$

CDXL12

 24 26  0  0  0  0  0  0  0  0999 V2000
    0.0000   -2.0625    0.0000 O   0  0  0  0  0  0  0  2  0  0  0  0
    0.0000   -1.2375    0.0000 C   0  0  0  0  0  0  0  2  0  0  0  0
    0.7145   -0.8250    0.0000 C   0  0  0  0  0  0  0  2  0  0  0  0
    0.7145   -0.0000    0.0000 C   0  0  0  0  0  0  0  2  0  0  0  0
    1.4289    0.4125    0.0000 C   0  0  0  0  0  0  0  2  0  0  0  0
    1.4289    1.2375    0.0000 S   0  0  0  0  0  0  0  2  0  0  0  0
    2.2539    1.2375    0.0000 O   0  0  0  0  0  0  0  2  0  0  0  0
    0.6039    1.2375    0.0000 O   0  0  0  0  0  0  0  2  0  0  0  0
    1.4289    2.0625    0.0000 O   0  0  0  0  0  0  0  2  0  0  0  0
    2.1434    0.0000    0.0000 C   0  0  0  0  0  0  0  2  0  0  0  0
    2.1434   -0.8250    0.0000 C   0  0  0  0  0  0  0  2  0  0  0  0
    1.4289   -1.2375    0.0000 C   0  0  0  0  0  0  0  2  0  0  0  0
    0.0000    0.4125    0.0000 C   0  0  0  0  0  0  0  2  0  0  0  0
    0.0000    1.2375    0.0000 O   0  0  0  0  0  0  0  2  0  0  0  0
   -0.7145    0.0000    0.0000 C   0  0  0  0  0  0  0  2  0  0  0  0
   -1.4289    0.4125    0.0000 C   0  0  0  0  0  0  0  2  0  0  0  0
   -1.4289    1.2375    0.0000 S   0  0  0  0  0  0  0  2  0  0  0  0
   -0.6039    1.2375    0.0000 O   0  0  0  0  0  0  0  2  0  0  0  0
   -2.2539    1.2375    0.0000 O   0  0  0  0  0  0  0  2  0  0  0  0
   -1.4289    2.0625    0.0000 O   0  0  0  0  0  0  0  2  0  0  0  0
   -2.1434    0.0000    0.0000 C   0  0  0  0  0  0  0  2  0  0  0  0
   -2.1434   -0.8250    0.0000 C   0  0  0  0  0  0  0  2  0  0  0  0
   -1.4289   -1.2375    0.0000 C   0  0  0  0  0  0  0  2  0  0  0  0
   -0.7145   -0.8250    0.0000 C   0  0  0  0  0  0  0  2  0  0  0  0
  1  2  2  0        0
  2  3  1  0        0
  3  4  4  0        0
  4  5  4  0        0
  5  6  1  0        0
  6  7  2  0        0
  6  8  2  0        0
  6  9  1  0        0
  5 10  4  0        0
 10 11  4  0        0
 11 12  4  0        0
  3 12  4  0        0
  4 13  1  0        0
 13 14  2  0        0
 13 15  1  0        0
 15 16  4  0        0
 16 17  1  0        0
 17 18  2  0        0
 17 19  2  0        0
 17 20  1  0        0
 16 21  4  0        0
 21 22  4  0        0
 22 23  4  0        0
 23 24  4  0        0
  2 24  1  0        0
 15 24  4  0        0
M  END
$$$$

CDXL12

 26 29  0  0  0  0  0  0  0  0999 V2000
   -0.8626    0.4458    0.0000 O   0  0  0  0  0  0  0  2  0  0  0  0
   -1.0538   -0.1426    0.0000 C   0  0  0  0  0  0  0  2  0  0  0  0
   -1.8384   -0.3976    0.0000 C   0  0  0  0  0  0  0  2  0  0  0  0
   -2.5529    0.0149    0.0000 C   0  0  0  0  0  0  0  2  0  0  0  0
   -3.2674   -0.3976    0.0000 C   0  0  0  0  0  0  0  2  0  0  0  0
   -3.2674   -1.2226    0.0000 C   0  0  0  0  0  0  0  2  0  0  0  0
   -2.5529   -1.6351    0.0000 C   0  0  0  0  0  0  0  2  0  0  0  0
   -1.8384   -1.2226    0.0000 C   0  0  0  0  0  0  0  2  0  0  0  0
   -1.0538   -1.4775    0.0000 C   0  0  0  0  0  0  0  2  0  0  0  0
   -0.7989   -2.2621    0.0000 O   0  0  0  0  0  0  0  2  0  0  0  0
   -0.5689   -0.8101    0.0000 C   0  0  0  0  0  0  0  2  0  0  0  0
    0.2561   -0.8101    0.0000 C   0  0  0  0  0  0  0  2  0  0  0  0
    0.6686   -1.5246    0.0000 O   0  0  0  0  0  0  0  2  0  0  0  0
    0.7924    0.1187    0.0000 C   0  0  0  0  0  0  0  2  0  0  0  0
    0.3799    0.8332    0.0000 C   0  0  0  0  0  0  0  2  0  0  0  0
   -0.4451    0.8332    0.0000 C   0  0  0  0  0  0  0  2  0  0  0  0
   -0.8576    1.5477    0.0000 C   0  0  0  0  0  0  0  2  0  0  0  0
   -0.4451    2.2621    0.0000 C   0  0  0  0  0  0  0  2  0  0  0  0
    0.3799    2.2621    0.0000 C   0  0  0  0  0  0  0  2  0  0  0  0
    0.7924    1.5477    0.0000 C   0  0  0  0  0  0  0  2  0  0  0  0
    1.6174    0.1187    0.0000 C   0  0  0  0  0  0  0  2  0  0  0  0
    2.0299    0.8332    0.0000 C   0  0  0  0  0  0  0  2  0  0  0  0
    2.8549    0.8332    0.0000 C   0  0  0  0  0  0  0  2  0  0  0  0
    3.2674    0.1187    0.0000 C   0  0  0  0  0  0  0  2  0  0  0  0
    2.8549   -0.5957    0.0000 C   0  0  0  0  0  0  0  2  0  0  0  0
    2.0299   -0.5957    0.0000 C   0  0  0  0  0  0  0  2  0  0  0  0
  1  2  2  0        0
  2  3  1  0        0
  3  4  4  0        0
  4  5  4  0        0
  5  6  4  0        0
  6  7  4  0        0
  7  8  4  0        0
  3  8  4  0        0
  8  9  1  0        0
  9 10  2  0        0
  9 11  1  0        0
  2 11  1  0        0
 11 12  1  0        0
 12 13  2  0        0
 12 14  1  0        0
 14 15  1  0        0
 15 16  4  0        0
 16 17  4  0        0
 17 18  4  0        0
 18 19  4  0        0
 19 20  4  0        0
 15 20  4  0        0
 14 21  1  0        0
 21 22  4  0        0
 22 23  4  0        0
 23 24  4  0        0
 24 25  4  0        0
 25 26  4  0        0
 21 26  4  0        0
M  END
$$$$

CDXL12

 14 14  0  0  0  0  0  0  0  0999 V2000
   -1.0717    1.6500    0.0000 O   0  0  0  0  0  0  0  2  0  0  0  0
   -1.0717    0.8250    0.0000 N   0  0  0  0  0  0  0  2  0  0  0  0
   -1.7862    0.4125    0.0000 O   0  0  0  0  0  0  0  2  0  0  0  0
   -0.3572    0.4125    0.0000 C   0  0  0  0  0  0  0  2  0  0  0  0
    0.3572    0.8250    0.0000 C   0  0  0  0  0  0  0  2  0  0  0  0
    1.0717    0.4125    0.0000 C   0  0  0  0  0  0  0  2  0  0  0  0
    1.0717   -0.4125    0.0000 C   0  0  0  0  0  0  0  2  0  0  0  0
    0.3572   -0.8250    0.0000 C   0  0  0  0  0  0  0  2  0  0  0  0
    0.3572   -1.6500    0.0000 Cl  0  0  0  0  0  0  0  2  0  0  0  0
   -0.3572   -0.4125    0.0000 C   0  0  0  0  0  0  0  2  0  0  0  0
   -1.0717   -0.8250    0.0000 Cl  0  0  0  0  0  0  0  2  0  0  0  0
    1.7862   -0.8250    0.0000 Cl  0  0  0  0  0  0  0  2  0  0  0  0
    1.7862    0.8250    0.0000 Cl  0  0  0  0  0  0  0  2  0  0  0  0
    0.3572    1.6500    0.0000 Cl  0  0  0  0  0  0  0  2  0  0  0  0
  1  2  2  0        0
  2  3  2  0        0
  2  4  1  0        0
  4  5  4  0        0
  5  6  4  0        0
  6  7  4  0        0
  7  8  4  0        0
  8  9  1  0        0
  8 10  4  0        0
  4 10  4  0        0
 10 11  1  0        0
  7 12  1  0        0
  6 13  1  0        0
  5 14  1  0        0
M  END
$$$$

CDXL12

 17 17  0  0  0  0  0  0  0  0999 V2000
   -1.4289    1.8562    0.0000 O   0  0  0  0  0  0  0  2  0  0  0  0
   -1.4289    1.0312    0.0000 N   0  0  0  0  0  0  0  2  0  0  0  0
   -2.1434    0.6187    0.0000 O   0  0  0  0  0  0  0  2  0  0  0  0
   -0.7145    0.6187    0.0000 C   0  0  0  0  0  0  0  2  0  0  0  0
   -0.7145   -0.2063    0.0000 C   0  0  0  0  0  0  0  2  0  0  0  0
   -1.4289   -0.6188    0.0000 O   0  0  0  0  0  0  0  2  0  0  0  0
    0.0000   -0.6188    0.0000 C   0  0  0  0  0  0  0  2  0  0  0  0
    0.0000   -1.4437    0.0000 N   0  0  0  0  0  0  0  2  0  0  0  0
   -0.7145   -1.8562    0.0000 O   0  0  0  0  0  0  0  2  0  0  0  0
    0.7145   -1.8562    0.0000 O   0  0  0  0  0  0  0  2  0  0  0  0
    0.7145   -0.2063    0.0000 C   0  0  0  0  0  0  0  2  0  0  0  0
    1.4289   -0.6188    0.0000 O   0  0  0  0  0  0  0  2  0  0  0  0
    0.7145    0.6187    0.0000 C   0  0  0  0  0  0  0  2  0  0  0  0
    1.4289    1.0312    0.0000 N   0  0  0  0  0  0  0  2  0  0  0  0
    1.4289    1.8562    0.0000 O   0  0  0  0  0  0  0  2  0  0  0  0
    2.1434    0.6187    0.0000 O   0  0  0  0  0  0  0  2  0  0  0  0
    0.0000    1.0312    0.0000 C   0  0  0  0  0  0  0  2  0  0  0  0
  1  2  2  0        0
  2  3  2  0        0
  2  4  1  0        0
  4  5  4  0        0
  5  6  1  0        0
  5  7  4  0        0
  7  8  1  0        0
  8  9  2  0        0
  8 10  2  0        0
  7 11  4  0        0
 11 12  1  0        0
 11 13  4  0        0
 13 14  1  0        0
 14 15  2  0        0
 14 16  2  0        0
 13 17  4  0        0
  4 17  4  0        0
M  END
$$$$

CDXL12

 17 18  0  0  0  0  0  0  0  0999 V2000
    1.5555   -0.7145    0.0000 O   0  0  0  0  0  0  0  2  0  0  0  0
    1.1430   -0.0000    0.0000 C   0  0  0  0  0  0  0  2  0  0  0  0
    0.3180   -0.0000    0.0000 C   0  0  0  0  0  0  0  2  0  0  0  0
   -0.1669    0.6674    0.0000 C   0  0  0  0  0  0  0  2  0  0  0  0
    0.0880    1.4521    0.0000 O   0  0  0  0  0  0  0  2  0  0  0  0
   -0.9516    0.4125    0.0000 C   0  0  0  0  0  0  0  2  0  0  0  0
   -0.9516   -0.4125    0.0000 C   0  0  0  0  0  0  0  2  0  0  0  0
   -1.6660   -0.8250    0.0000 C   0  0  0  0  0  0  0  2  0  0  0  0
   -2.3805   -0.4125    0.0000 C   0  0  0  0  0  0  0  2  0  0  0  0
   -2.3805    0.4125    0.0000 C   0  0  0  0  0  0  0  2  0  0  0  0
   -1.6660    0.8250    0.0000 C   0  0  0  0  0  0  0  2  0  0  0  0
   -0.1669   -0.6674    0.0000 C   0  0  0  0  0  0  0  2  0  0  0  0
    0.0880   -1.4521    0.0000 O   0  0  0  0  0  0  0  2  0  0  0  0
    1.5555    0.7145    0.0000 C   0  0  0  0  0  0  0  2  0  0  0  0
    1.1430    1.4289    0.0000 C   0  0  0  0  0  0  0  2  0  0  0  0
    1.9680    1.4289    0.0000 C   0  0  0  0  0  0  0  2  0  0  0  0
    2.3805    0.7145    0.0000 C   0  0  0  0  0  0  0  2  0  0  0  0
  1  2  2  0        0
  2  3  1  0        0
  3  4  1  0        0
  4  5  2  0        0
  4  6  1  0        0
  6  7  4  0        0
  7  8  4  0        0
  8  9  4  0        0
  9 10  4  0        0
 10 11  4  0        0
  6 11  4  0        0
  7 12  1  0        0
  3 12  1  0        0
 12 13  2  0        0
  2 14  1  0        0
 14 15  1  0        0
 14 16  1  0        0
 14 17  1  0        0
M  END
$$$$

CDXL12

 12 14  0  0  0  0  0  0  0  0999 V2000
    0.0000    0.0286    0.0000 C   0  0  0  0  0  0  0  2  0  0  0  0
    0.0000   -0.7964    0.0000 C   0  0  0  0  0  0  0  2  0  0  0  0
   -0.7145   -1.2089    0.0000 C   0  0  0  0  0  0  0  2  0  0  0  0
   -1.4289   -0.7964    0.0000 C   0  0  0  0  0  0  0  2  0  0  0  0
   -1.4289    0.0286    0.0000 C   0  0  0  0  0  0  0  2  0  0  0  0
   -0.7145    0.4411    0.0000 C   0  0  0  0  0  0  0  2  0  0  0  0
   -0.4125    1.2089    0.0000 C   0  0  0  0  0  0  0  2  0  0  0  0
    0.4125    1.2089    0.0000 C   0  0  0  0  0  0  0  2  0  0  0  0
    0.7145    0.4411    0.0000 C   0  0  0  0  0  0  0  2  0  0  0  0
    1.4289    0.0286    0.0000 C   0  0  0  0  0  0  0  2  0  0  0  0
    1.4289   -0.7964    0.0000 C   0  0  0  0  0  0  0  2  0  0  0  0
    0.7145   -1.2089    0.0000 C   0  0  0  0  0  0  0  2  0  0  0  0
  1  2  4  0        0
  2  3  4  0        0
  3  4  4  0        0
  4  5  4  0        0
  5  6  4  0        0
  1  6  4  0        0
  6  7  1  0        0
  7  8  1  0        0
  8  9  1  0        0
  1  9  4  0        0
  9 10  4  0        0
 10 11  4  0        0
 11 12  4  0        0
  2 12  4  0        0
M  END
$$$$

CDXL12

 10 11  0  0  0  0  0  0  0  0999 V2000
   -1.3492    0.7260    0.0000 C   0  0  0  0  0  0  0  2  0  0  0  0
   -1.3492   -0.0990    0.0000 C   0  0  0  0  0  0  0  2  0  0  0  0
   -0.6348   -0.5115    0.0000 C   0  0  0  0  0  0  0  2  0  0  0  0
    0.0797   -0.0990    0.0000 C   0  0  0  0  0  0  0  2  0  0  0  0
    0.8643   -0.3539    0.0000 C   0  0  0  0  0  0  0  2  0  0  0  0
    1.1193   -1.1385    0.0000 C   0  0  0  0  0  0  0  2  0  0  0  0
    1.3492    0.3135    0.0000 C   0  0  0  0  0  0  0  2  0  0  0  0
    0.8643    0.9810    0.0000 N   0  0  0  0  0  0  0  2  0  0  0  0
    0.0797    0.7260    0.0000 C   0  0  0  0  0  0  0  2  0  0  0  0
   -0.6348    1.1385    0.0000 C   0  0  0  0  0  0  0  2  0  0  0  0
  1  2  4  0        0
  2  3  4  0        0
  3  4  4  0        0
  4  5  4  0        0
  5  6  1  0        0
  5  7  4  0        0
  7  8  4  0        0
  8  9  4  0        0
  4  9  4  0        0
  9 10  4  0        0
  1 10  4  0        0
M  END
$$$$

CDXL12

 11 11  0  0  0  0  0  0  0  0999 V2000
   -0.3572    0.4125    0.0000 C   0  0  0  0  0  0  0  2  0  0  0  0
   -1.0717    0.0000    0.0000 C   0  0  0  0  0  0  0  2  0  0  0  0
   -1.0717   -0.8250    0.0000 C   0  0  0  0  0  0  0  2  0  0  0  0
   -1.7862   -1.2375    0.0000 C   0  0  0  0  0  0  0  2  0  0  0  0
   -0.3572   -1.2375    0.0000 C   0  0  0  0  0  0  0  2  0  0  0  0
    0.3572   -0.8250    0.0000 C   0  0  0  0  0  0  0  2  0  0  0  0
    1.0717   -1.2375    0.0000 O   0  0  0  0  0  0  0  2  0  0  0  0
    0.3572   -0.0000    0.0000 C   0  0  0  0  0  0  0  2  0  0  0  0
    1.0717    0.4125    0.0000 C   0  0  0  0  0  0  0  2  0  0  0  0
    1.0717    1.2375    0.0000 O   0  0  0  0  0  0  0  2  0  0  0  0
    1.7862   -0.0000    0.0000 O   0  0  0  0  0  0  0  2  0  0  0  0
  1  2  4  0        0
  2  3  4  0        0
  3  4  1  0        0
  3  5  4  0        0
  5  6  4  0        0
  6  7  1  0        0
  6  8  4  0        0
  1  8  4  0        0
  8  9  1  0        0
  9 10  2  0        0
  9 11  1  0        0
M  END
$$$$

CDXL12

 28 31  0  0  0  0  0  0  0  0999 V2000
    3.5195    2.7196    0.0000 O   0  0  0  0  0  0  0  2  0  0  0  0
    3.3060    1.9227    0.0000 C   0  0  0  0  0  0  0  2  0  0  0  0
    3.8893    1.3393    0.0000 O   0  0  0  0  0  0  0  2  0  0  0  0
    2.4990    1.7511    0.0000 C   0  0  0  0  0  0  0  2  0  0  0  0
    2.2440    0.9665    0.0000 C   0  0  0  0  0  0  0  2  0  0  0  0
    1.4371    0.7950    0.0000 C   0  0  0  0  0  0  0  2  0  0  0  0
    1.1821    0.0104    0.0000 C   0  0  0  0  0  0  0  2  0  0  0  0
    0.3975   -0.2446    0.0000 C   0  0  0  0  0  0  0  2  0  0  0  0
    0.3975   -1.0696    0.0000 C   0  0  0  0  0  0  0  2  0  0  0  0
   -0.3170   -1.4821    0.0000 C   0  0  0  0  0  0  0  2  0  0  0  0
   -1.0314   -1.0696    0.0000 C   0  0  0  0  0  0  0  2  0  0  0  0
   -1.7459   -1.4821    0.0000 C   0  0  0  0  0  0  0  2  0  0  0  0
   -1.7459   -2.3071    0.0000 C   0  0  0  0  0  0  0  2  0  0  0  0
   -1.0314   -2.7196    0.0000 C   0  0  0  0  0  0  0  2  0  0  0  0
   -0.3170   -2.3071    0.0000 C   0  0  0  0  0  0  0  2  0  0  0  0
   -2.4604   -2.7196    0.0000 C   0  0  0  0  0  0  0  2  0  0  0  0
   -3.1748   -2.3071    0.0000 C   0  0  0  0  0  0  0  2  0  0  0  0
   -3.8893   -2.7196    0.0000 O   0  0  0  0  0  0  0  2  0  0  0  0
   -3.1748   -1.4821    0.0000 C   0  0  0  0  0  0  0  2  0  0  0  0
   -2.4604   -1.0696    0.0000 C   0  0  0  0  0  0  0  2  0  0  0  0
   -1.7459   -0.6571    0.0000 C   0  0  0  0  0  0  0  2  0  0  0  0
   -1.0314   -0.2446    0.0000 C   0  0  0  0  0  0  0  2  0  0  0  0
   -0.3170    0.1679    0.0000 C   0  0  0  0  0  0  0  2  0  0  0  0
   -0.3170    0.9929    0.0000 O   0  0  0  0  0  0  0  2  0  0  0  0
    1.1821   -1.3245    0.0000 C   0  0  0  0  0  0  0  2  0  0  0  0
    1.6671   -0.6571    0.0000 C   0  0  0  0  0  0  0  2  0  0  0  0
    0.4837    0.5759    0.0000 C   0  0  0  0  0  0  0  2  0  0  0  0
    0.8537    1.3784    0.0000 C   0  0  0  0  0  0  0  2  0  0  0  0
  1  2  2  0        0
  2  3  1  0        0
  2  4  1  0        0
  4  5  1  0        0
  5  6  1  0        0
  6  7  1  0        0
  7  8  1  0        0
  8  9  1  0        0
  9 10  1  0        0
 10 11  1  0        0
 11 12  1  0        0
 12 13  1  0        0
 13 14  1  0        0
 14 15  1  0        0
 10 15  1  0        0
 13 16  1  0        0
 16 17  1  0        0
 17 18  1  0        0
 17 19  1  0        0
 19 20  1  0        0
 12 20  1  0        0
 12 21  1  0        0
 11 22  1  0        0
 22 23  1  0        0
  8 23  1  0        0
 23 24  1  0        0
  9 25  1  0        0
 25 26  1  0        0
  7 26  1  0        0
  8 27  1  0        0
  6 28  1  0        0
M  END
$$$$

CDXL12

 12 13  0  0  0  0  0  0  0  0999 V2000
    0.7145    1.6500    0.0000 O   0  0  0  0  0  0  0  2  0  0  0  0
    0.7145    0.8250    0.0000 C   0  0  0  0  0  0  0  2  0  0  0  0
    0.0000    0.4125    0.0000 C   0  0  0  0  0  0  0  2  0  0  0  0
    0.0000   -0.4125    0.0000 C   0  0  0  0  0  0  0  2  0  0  0  0
   -0.7145   -0.8250    0.0000 C   0  0  0  0  0  0  0  2  0  0  0  0
   -0.7145   -1.6500    0.0000 O   0  0  0  0  0  0  0  2  0  0  0  0
   -1.4289   -0.4125    0.0000 C   0  0  0  0  0  0  0  2  0  0  0  0
   -1.4289    0.4125    0.0000 C   0  0  0  0  0  0  0  2  0  0  0  0
   -0.7145    0.8250    0.0000 C   0  0  0  0  0  0  0  2  0  0  0  0
    0.7145   -0.8250    0.0000 C   0  0  0  0  0  0  0  2  0  0  0  0
    1.4289   -0.4125    0.0000 C   0  0  0  0  0  0  0  2  0  0  0  0
    1.4289    0.4125    0.0000 C   0  0  0  0  0  0  0  2  0  0  0  0
  1  2  1  0        0
  2  3  4  0        0
  3  4  4  0        0
  4  5  4  0        0
  5  6  1  0        0
  5  7  4  0        0
  7  8  4  0        0
  8  9  4  0        0
  3  9  4  0        0
  4 10  4  0        0
 10 11  4  0        0
 11 12  4  0        0
  2 12  4  0        0
M  END
$$$$

CDXL12

 19 19  0  0  0  0  0  0  0  0999 V2000
   -1.4289    1.8562    0.0000 O   0  0  0  0  0  0  0  2  0  0  0  0
   -1.4289    1.0312    0.0000 N   0  0  0  0  0  0  0  2  0  0  0  0
   -2.1434    0.6187    0.0000 O   0  0  0  0  0  0  0  2  0  0  0  0
   -0.7145    0.6187    0.0000 C   0  0  0  0  0  0  0  2  0  0  0  0
   -0.7145   -0.2063    0.0000 C   0  0  0  0  0  0  0  2  0  0  0  0
    0.0000   -0.6188    0.0000 C   0  0  0  0  0  0  0  2  0  0  0  0
    0.0000   -1.4437    0.0000 N   0  0  0  0  0  0  0  2  0  0  0  0
   -0.7145   -1.8562    0.0000 O   0  0  0  0  0  0  0  2  0  0  0  0
    0.7145   -1.8562    0.0000 O   0  0  0  0  0  0  0  2  0  0  0  0
    0.7145   -0.2063    0.0000 C   0  0  0  0  0  0  0  2  0  0  0  0
    1.4289   -0.6188    0.0000 O   0  0  0  0  0  0  0  2  0  0  0  0
    2.1434   -0.2063    0.0000 C   0  0  0  0  0  0  0  2  0  0  0  0
    0.7145    0.6187    0.0000 C   0  0  0  0  0  0  0  2  0  0  0  0
    1.4289    1.0312    0.0000 C   0  0  0  0  0  0  0  2  0  0  0  0
    1.4289    1.8562    0.0000 C   0  0  0  0  0  0  0  2  0  0  0  0
    2.1434    1.4437    0.0000 C   0  0  0  0  0  0  0  2  0  0  0  0
    2.1434    0.6187    0.0000 C   0  0  0  0  0  0  0  2  0  0  0  0
    0.0000    1.0312    0.0000 C   0  0  0  0  0  0  0  2  0  0  0  0
   -1.4289   -0.6188    0.0000 C   0  0  0  0  0  0  0  2  0  0  0  0
  1  2  2  0        0
  2  3  2  0        0
  2  4  1  0        0
  4  5  4  0        0
  5  6  4  0        0
  6  7  1  0        0
  7  8  2  0        0
  7  9  2  0        0
  6 10  4  0        0
 10 11  1  0        0
 11 12  1  0        0
 10 13  4  0        0
 13 14  1  0        0
 14 15  1  0        0
 14 16  1  0        0
 14 17  1  0        0
 13 18  4  0        0
  4 18  4  0        0
  5 19  1  0        0
M  END
$$$$

CDXL12

 13 14  0  0  0  0  0  0  0  0999 V2000
   -0.9920    0.4125    0.0000 N   0  0  0  0  0  0  0  2  0  0  0  0
   -0.9920   -0.4125    0.0000 C   0  0  0  0  0  0  0  2  0  0  0  0
   -1.7065   -0.8250    0.0000 O   0  0  0  0  0  0  0  2  0  0  0  0
   -0.2775   -0.8250    0.0000 N   0  0  0  0  0  0  0  2  0  0  0  0
   -0.2775   -1.6500    0.0000 C   0  0  0  0  0  0  0  2  0  0  0  0
    0.4369   -0.4125    0.0000 C   0  0  0  0  0  0  0  2  0  0  0  0
    1.2216   -0.6674    0.0000 N   0  0  0  0  0  0  0  2  0  0  0  0
    1.7065   -0.0000    0.0000 C   0  0  0  0  0  0  0  2  0  0  0  0
    1.2216    0.6674    0.0000 N   0  0  0  0  0  0  0  2  0  0  0  0
    1.4765    1.4521    0.0000 C   0  0  0  0  0  0  0  2  0  0  0  0
    0.4369    0.4125    0.0000 C   0  0  0  0  0  0  0  2  0  0  0  0
   -0.2775    0.8250    0.0000 C   0  0  0  0  0  0  0  2  0  0  0  0
   -0.2775    1.6500    0.0000 O   0  0  0  0  0  0  0  2  0  0  0  0
  1  2  1  0        0
  2  3  2  0        0
  2  4  1  0        0
  4  5  1  0        0
  4  6  1  0        0
  6  7  4  0        0
  7  8  4  0        0
  8  9  4  0        0
  9 10  1  0        0
  9 11  4  0        0
  6 11  4  0        0
 11 12  1  0        0
  1 12  1  0        0
 12 13  2  0        0
M  END
$$$$

CDXL12

 29 33  0  0  0  0  0  0  0  0999 V2000
   -3.9726   -1.5736    0.0000 C   0  0  0  0  0  0  0  2  0  0  0  0
   -3.2582   -1.9861    0.0000 O   0  0  0  0  0  0  0  2  0  0  0  0
   -2.5437   -1.5736    0.0000 C   0  0  0  0  0  0  0  2  0  0  0  0
   -2.5437   -0.7486    0.0000 C   0  0  0  0  0  0  0  2  0  0  0  0
   -1.8292   -0.3361    0.0000 C   0  0  0  0  0  0  0  2  0  0  0  0
   -1.8292    0.4889    0.0000 O   0  0  0  0  0  0  0  2  0  0  0  0
   -1.1148    0.9014    0.0000 C   0  0  0  0  0  0  0  2  0  0  0  0
   -0.4003    0.4889    0.0000 C   0  0  0  0  0  0  0  2  0  0  0  0
    0.3142    0.9014    0.0000 O   0  0  0  0  0  0  0  2  0  0  0  0
    1.0287    0.4889    0.0000 C   0  0  0  0  0  0  0  2  0  0  0  0
    1.7431    0.9014    0.0000 C   0  0  0  0  0  0  0  2  0  0  0  0
    1.9147    1.7084    0.0000 C   0  0  0  0  0  0  0  2  0  0  0  0
    2.7351    1.7946    0.0000 C   0  0  0  0  0  0  0  2  0  0  0  0
    3.0707    1.0410    0.0000 O   0  0  0  0  0  0  0  2  0  0  0  0
    2.4576    0.4889    0.0000 C   0  0  0  0  0  0  0  2  0  0  0  0
    2.4576   -0.3361    0.0000 C   0  0  0  0  0  0  0  2  0  0  0  0
    1.7431   -0.7486    0.0000 C   0  0  0  0  0  0  0  2  0  0  0  0
    1.0287   -0.3361    0.0000 C   0  0  0  0  0  0  0  2  0  0  0  0
    0.3142   -0.7486    0.0000 C   0  0  0  0  0  0  0  2  0  0  0  0
    0.3142   -1.5736    0.0000 O   0  0  0  0  0  0  0  2  0  0  0  0
   -0.4003   -0.3361    0.0000 C   0  0  0  0  0  0  0  2  0  0  0  0
   -1.1148   -0.7486    0.0000 C   0  0  0  0  0  0  0  2  0  0  0  0
   -1.1148   -1.5736    0.0000 C   0  0  0  0  0  0  0  2  0  0  0  0
   -1.8292   -1.9861    0.0000 C   0  0  0  0  0  0  0  2  0  0  0  0
   -1.8292   -2.8111    0.0000 O   0  0  0  0  0  0  0  2  0  0  0  0
   -2.5437   -3.2236    0.0000 C   0  0  0  0  0  0  0  2  0  0  0  0
    3.1476    2.5091    0.0000 C   0  0  0  0  0  0  0  2  0  0  0  0
    2.7351    3.2236    0.0000 C   0  0  0  0  0  0  0  2  0  0  0  0
    3.9726    2.5091    0.0000 C   0  0  0  0  0  0  0  2  0  0  0  0
  1  2  1  0        0
  2  3  1  0        0
  3  4  4  0        0
  4  5  4  0        0
  5  6  1  0        0
  6  7  1  0        0
  7  8  1  0        0
  8  9  1  0        0
  9 10  1  0        0
 10 11  4  0        0
 11 12  1  0        0
 12 13  1  0        0
 13 14  1  0        0
 14 15  1  0        0
 11 15  4  0        0
 15 16  4  0        0
 16 17  4  0        0
 17 18  4  0        0
 10 18  4  0        0
 18 19  1  0        0
 19 20  2  0        0
 19 21  1  0        0
  8 21  1  0        0
 21 22  1  0        0
  5 22  4  0        0
 22 23  4  0        0
 23 24  4  0        0
  3 24  4  0        0
 24 25  1  0        0
 25 26  1  0        0
 13 27  1  0        0
 27 28  1  0        0
 27 29  2  0        0
M  END
$$$$

CDXL12

 27 29  0  0  0  0  0  0  0  0999 V2000
   -2.8579   -0.6188    0.0000 C   0  0  0  0  0  0  0  2  0  0  0  0
   -2.1434   -1.0313    0.0000 C   0  0  0  0  0  0  0  2  0  0  0  0
   -2.1434   -1.8562    0.0000 C   0  0  0  0  0  0  0  2  0  0  0  0
   -2.8579   -2.2687    0.0000 C   0  0  0  0  0  0  0  2  0  0  0  0
   -1.4289   -2.2687    0.0000 C   0  0  0  0  0  0  0  2  0  0  0  0
   -0.7145   -1.8562    0.0000 C   0  0  0  0  0  0  0  2  0  0  0  0
    0.0000   -2.2687    0.0000 N   0  0  0  0  0  0  0  2  0  0  0  0
    0.7145   -1.8563    0.0000 C   0  0  0  0  0  0  0  2  0  0  0  0
    1.4289   -2.2687    0.0000 C   0  0  0  0  0  0  0  2  0  0  0  0
    1.4289   -3.0938    0.0000 O   0  0  0  0  0  0  0  2  0  0  0  0
    2.1434   -1.8562    0.0000 N   0  0  0  0  0  0  0  2  0  0  0  0
    2.1434   -1.0313    0.0000 C   0  0  0  0  0  0  0  2  0  0  0  0
    2.8579   -0.6188    0.0000 O   0  0  0  0  0  0  0  2  0  0  0  0
    1.4289   -0.6188    0.0000 N   0  0  0  0  0  0  0  2  0  0  0  0
    0.7145   -1.0313    0.0000 C   0  0  0  0  0  0  0  2  0  0  0  0
    0.0000   -0.6188    0.0000 N   0  0  0  0  0  0  0  2  0  0  0  0
    0.0000    0.2062    0.0000 C   0  0  0  0  0  0  0  2  0  0  0  0
    0.7145    0.6187    0.0000 C   0  0  0  0  0  0  0  2  0  0  0  0
    1.4289    0.2062    0.0000 O   0  0  0  0  0  0  0  2  0  0  0  0
    0.7145    1.4438    0.0000 C   0  0  0  0  0  0  0  2  0  0  0  0
    0.0000    1.8563    0.0000 O   0  0  0  0  0  0  0  2  0  0  0  0
    1.4289    1.8563    0.0000 C   0  0  0  0  0  0  0  2  0  0  0  0
    2.1434    1.4437    0.0000 O   0  0  0  0  0  0  0  2  0  0  0  0
    1.4289    2.6812    0.0000 C   0  0  0  0  0  0  0  2  0  0  0  0
    2.1434    3.0938    0.0000 O   0  0  0  0  0  0  0  2  0  0  0  0
   -0.7145   -1.0313    0.0000 C   0  0  0  0  0  0  0  2  0  0  0  0
   -1.4289   -0.6188    0.0000 C   0  0  0  0  0  0  0  2  0  0  0  0
  1  2  1  0        0
  2  3  4  0        0
  3  4  1  0        0
  3  5  4  0        0
  5  6  4  0        0
  6  7  1  0        0
  7  8  2  0        0
  8  9  1  0        0
  9 10  2  0        0
  9 11  1  0        0
 11 12  1  0        0
 12 13  2  0        0
 12 14  1  0        0
 14 15  2  0        0
  8 15  1  0        0
 15 16  1  0        0
 16 17  1  0        0
 17 18  1  0        0
 18 19  1  0        0
 18 20  1  0        0
 20 21  1  0        0
 20 22  1  0        0
 22 23  1  0        0
 22 24  1  0        0
 24 25  1  0        0
 16 26  1  0        0
  6 26  4  0        0
 26 27  4  0        0
  2 27  4  0        0
M  END
$$$$

CDXL12

 18 20  0  0  0  0  0  0  0  0999 V2000
   -0.3572    0.4125    0.0000 C   0  0  0  0  0  0  0  2  0  0  0  0
   -0.3572   -0.4125    0.0000 C   0  0  0  0  0  0  0  2  0  0  0  0
    0.3572   -0.8250    0.0000 C   0  0  0  0  0  0  0  2  0  0  0  0
    1.0717   -0.4125    0.0000 C   0  0  0  0  0  0  0  2  0  0  0  0
    1.7862   -0.8250    0.0000 C   0  0  0  0  0  0  0  2  0  0  0  0
    1.7862   -1.6500    0.0000 C   0  0  0  0  0  0  0  2  0  0  0  0
    1.0717   -2.0625    0.0000 C   0  0  0  0  0  0  0  2  0  0  0  0
    0.3572   -1.6500    0.0000 C   0  0  0  0  0  0  0  2  0  0  0  0
   -1.0717   -0.8250    0.0000 C   0  0  0  0  0  0  0  2  0  0  0  0
   -1.7862   -0.4125    0.0000 C   0  0  0  0  0  0  0  2  0  0  0  0
   -1.7862    0.4125    0.0000 C   0  0  0  0  0  0  0  2  0  0  0  0
   -1.0717    0.8250    0.0000 C   0  0  0  0  0  0  0  2  0  0  0  0
    0.3572    0.8250    0.0000 C   0  0  0  0  0  0  0  2  0  0  0  0
    0.3572    1.6500    0.0000 C   0  0  0  0  0  0  0  2  0  0  0  0
    1.0717    2.0625    0.0000 C   0  0  0  0  0  0  0  2  0  0  0  0
    1.7862    1.6500    0.0000 C   0  0  0  0  0  0  0  2  0  0  0  0
    1.7862    0.8250    0.0000 C   0  0  0  0  0  0  0  2  0  0  0  0
    1.0717    0.4125    0.0000 C   0  0  0  0  0  0  0  2  0  0  0  0
  1  2  4  0        0
  2  3  1  0        0
  3  4  4  0        0
  4  5  4  0        0
  5  6  4  0        0
  6  7  4  0        0
  7  8  4  0        0
  3  8  4  0        0
  2  9  4  0        0
  9 10  4  0        0
 10 11  4  0        0
 11 12  4  0        0
  1 12  4  0        0
  1 13  1  0        0
 13 14  4  0        0
 14 15  4  0        0
 15 16  4  0        0
 16 17  4  0        0
 17 18  4  0        0
 13 18  4  0        0
M  END
$$$$

CDXL12

 19 20  0  0  0  0  0  0  0  0999 V2000
   -0.1962   -1.8685    0.0000 O   0  0  0  0  0  0  0  2  0  0  0  0
   -0.8093   -1.3165    0.0000 C   0  0  0  0  0  0  0  2  0  0  0  0
   -0.7231   -0.4960    0.0000 N   0  0  0  0  0  0  0  2  0  0  0  0
   -1.4768   -0.1604    0.0000 N   0  0  0  0  0  0  0  2  0  0  0  0
   -2.0288   -0.7735    0.0000 C   0  0  0  0  0  0  0  2  0  0  0  0
   -2.8493   -0.6873    0.0000 C   0  0  0  0  0  0  0  2  0  0  0  0
   -1.6163   -1.4880    0.0000 C   0  0  0  0  0  0  0  2  0  0  0  0
   -0.0086   -0.0835    0.0000 C   0  0  0  0  0  0  0  2  0  0  0  0
   -0.0086    0.7415    0.0000 C   0  0  0  0  0  0  0  2  0  0  0  0
    0.7059    1.1540    0.0000 C   0  0  0  0  0  0  0  2  0  0  0  0
    1.4203    0.7415    0.0000 C   0  0  0  0  0  0  0  2  0  0  0  0
    2.1348    1.1540    0.0000 S   0  0  0  0  0  0  0  2  0  0  0  0
    2.5473    0.4395    0.0000 O   0  0  0  0  0  0  0  2  0  0  0  0
    1.7223    1.8685    0.0000 O   0  0  0  0  0  0  0  2  0  0  0  0
    2.8493    1.5665    0.0000 O   0  0  0  0  0  0  0  2  0  0  0  0
    1.4203   -0.0835    0.0000 C   0  0  0  0  0  0  0  2  0  0  0  0
    2.1348   -0.4960    0.0000 Cl  0  0  0  0  0  0  0  2  0  0  0  0
    0.7059   -0.4960    0.0000 C   0  0  0  0  0  0  0  2  0  0  0  0
   -0.7231    1.1540    0.0000 Cl  0  0  0  0  0  0  0  2  0  0  0  0
  1  2  1  0        0
  2  3  4  0        0
  3  4  4  0        0
  4  5  4  0        0
  5  6  1  0        0
  5  7  4  0        0
  2  7  4  0        0
  3  8  1  0        0
  8  9  4  0        0
  9 10  4  0        0
 10 11  4  0        0
 11 12  1  0        0
 12 13  2  0        0
 12 14  2  0        0
 12 15  1  0        0
 11 16  4  0        0
 16 17  1  0        0
 16 18  4  0        0
  8 18  4  0        0
  9 19  1  0        0
M  END
$$$$

CDXL12

 18 20  0  0  0  0  0  0  0  0999 V2000
    0.0000   -1.6500    0.0000 O   0  0  0  0  0  0  0  2  0  0  0  0
    0.0000   -0.8250    0.0000 C   0  0  0  0  0  0  0  2  0  0  0  0
   -0.7145   -0.4125    0.0000 C   0  0  0  0  0  0  0  2  0  0  0  0
   -0.7145    0.4125    0.0000 C   0  0  0  0  0  0  0  2  0  0  0  0
    0.0000    0.8250    0.0000 C   0  0  0  0  0  0  0  2  0  0  0  0
    0.0000    1.6500    0.0000 O   0  0  0  0  0  0  0  2  0  0  0  0
    0.7145    0.4125    0.0000 C   0  0  0  0  0  0  0  2  0  0  0  0
    1.4289    0.8250    0.0000 C   0  0  0  0  0  0  0  2  0  0  0  0
    2.1434    0.4125    0.0000 C   0  0  0  0  0  0  0  2  0  0  0  0
    2.8579    0.8250    0.0000 O   0  0  0  0  0  0  0  2  0  0  0  0
    2.1434   -0.4125    0.0000 C   0  0  0  0  0  0  0  2  0  0  0  0
    1.4289   -0.8250    0.0000 C   0  0  0  0  0  0  0  2  0  0  0  0
    0.7145   -0.4125    0.0000 C   0  0  0  0  0  0  0  2  0  0  0  0
   -1.4289    0.8250    0.0000 C   0  0  0  0  0  0  0  2  0  0  0  0
   -2.1434    0.4125    0.0000 C   0  0  0  0  0  0  0  2  0  0  0  0
   -2.1434   -0.4125    0.0000 C   0  0  0  0  0  0  0  2  0  0  0  0
   -2.8579   -0.8250    0.0000 O   0  0  0  0  0  0  0  2  0  0  0  0
   -1.4289   -0.8250    0.0000 C   0  0  0  0  0  0  0  2  0  0  0  0
  1  2  2  0        0
  2  3  1  0        0
  3  4  4  0        0
  4  5  1  0        0
  5  6  2  0        0
  5  7  1  0        0
  7  8  4  0        0
  8  9  4  0        0
  9 10  1  0        0
  9 11  4  0        0
 11 12  4  0        0
 12 13  4  0        0
  2 13  1  0        0
  7 13  4  0        0
  4 14  4  0        0
 14 15  4  0        0
 15 16  4  0        0
 16 17  1  0        0
 16 18  4  0        0
  3 18  4  0        0
M  END
$$$$

CDXL12

 24 26  0  0  0  0  0  0  0  0999 V2000
   -0.3572    1.6500    0.0000 O   0  0  0  0  0  0  0  2  0  0  0  0
   -0.3572    0.8250    0.0000 C   0  0  0  0  0  0  0  2  0  0  0  0
    0.3572    0.4125    0.0000 O   0  0  0  0  0  0  0  2  0  0  0  0
    1.0717    0.8250    0.0000 C   0  0  0  0  0  0  0  2  0  0  0  0
    1.0717    1.6500    0.0000 C   0  0  0  0  0  0  0  2  0  0  0  0
    1.7862    2.0625    0.0000 C   0  0  0  0  0  0  0  2  0  0  0  0
    2.5006    1.6500    0.0000 C   0  0  0  0  0  0  0  2  0  0  0  0
    2.5006    0.8250    0.0000 C   0  0  0  0  0  0  0  2  0  0  0  0
    1.7862    0.4125    0.0000 C   0  0  0  0  0  0  0  2  0  0  0  0
   -1.0717    0.4125    0.0000 C   0  0  0  0  0  0  0  2  0  0  0  0
   -1.0717   -0.4125    0.0000 C   0  0  0  0  0  0  0  2  0  0  0  0
   -1.7862   -0.8250    0.0000 C   0  0  0  0  0  0  0  2  0  0  0  0
   -2.5006   -0.4125    0.0000 C   0  0  0  0  0  0  0  2  0  0  0  0
   -2.5006    0.4125    0.0000 C   0  0  0  0  0  0  0  2  0  0  0  0
   -1.7862    0.8250    0.0000 C   0  0  0  0  0  0  0  2  0  0  0  0
   -0.3572   -0.8250    0.0000 C   0  0  0  0  0  0  0  2  0  0  0  0
   -0.3572   -1.6500    0.0000 O   0  0  0  0  0  0  0  2  0  0  0  0
    0.3572   -0.4125    0.0000 O   0  0  0  0  0  0  0  2  0  0  0  0
    1.0717   -0.8250    0.0000 C   0  0  0  0  0  0  0  2  0  0  0  0
    1.7862   -0.4125    0.0000 C   0  0  0  0  0  0  0  2  0  0  0  0
    2.5006   -0.8250    0.0000 C   0  0  0  0  0  0  0  2  0  0  0  0
    2.5006   -1.6500    0.0000 C   0  0  0  0  0  0  0  2  0  0  0  0
    1.7862   -2.0625    0.0000 C   0  0  0  0  0  0  0  2  0  0  0  0
    1.0717   -1.6500    0.0000 C   0  0  0  0  0  0  0  2  0  0  0  0
  1  2  2  0        0
  2  3  1  0        0
  3  4  1  0        0
  4  5  4  0        0
  5  6  4  0        0
  6  7  4  0        0
  7  8  4  0        0
  8  9  4  0        0
  4  9  4  0        0
  2 10  1  0        0
 10 11  4  0        0
 11 12  4  0        0
 12 13  4  0        0
 13 14  4  0        0
 14 15  4  0        0
 10 15  4  0        0
 11 16  1  0        0
 16 17  2  0        0
 16 18  1  0        0
 18 19  1  0        0
 19 20  4  0        0
 20 21  4  0        0
 21 22  4  0        0
 22 23  4  0        0
 23 24  4  0        0
 19 24  4  0        0
M  END
$$$$

CDXL12

 16 18  0  0  0  0  0  0  0  0999 V2000
    0.0000   -1.6500    0.0000 O   0  0  0  0  0  0  0  2  0  0  0  0
    0.0000   -0.8250    0.0000 C   0  0  0  0  0  0  0  2  0  0  0  0
   -0.7145   -0.4125    0.0000 C   0  0  0  0  0  0  0  2  0  0  0  0
   -0.7145    0.4125    0.0000 C   0  0  0  0  0  0  0  2  0  0  0  0
    0.0000    0.8250    0.0000 C   0  0  0  0  0  0  0  2  0  0  0  0
    0.0000    1.6500    0.0000 O   0  0  0  0  0  0  0  2  0  0  0  0
    0.7145    0.4125    0.0000 C   0  0  0  0  0  0  0  2  0  0  0  0
    1.4289    0.8250    0.0000 C   0  0  0  0  0  0  0  2  0  0  0  0
    2.1434    0.4125    0.0000 C   0  0  0  0  0  0  0  2  0  0  0  0
    2.1434   -0.4125    0.0000 C   0  0  0  0  0  0  0  2  0  0  0  0
    1.4289   -0.8250    0.0000 C   0  0  0  0  0  0  0  2  0  0  0  0
    0.7145   -0.4125    0.0000 C   0  0  0  0  0  0  0  2  0  0  0  0
   -1.4289    0.8250    0.0000 C   0  0  0  0  0  0  0  2  0  0  0  0
   -2.1434    0.4125    0.0000 C   0  0  0  0  0  0  0  2  0  0  0  0
   -2.1434   -0.4125    0.0000 C   0  0  0  0  0  0  0  2  0  0  0  0
   -1.4289   -0.8250    0.0000 C   0  0  0  0  0  0  0  2  0  0  0  0
  1  2  2  0        0
  2  3  1  0        0
  3  4  4  0        0
  4  5  1  0        0
  5  6  2  0        0
  5  7  1  0        0
  7  8  4  0        0
  8  9  4  0        0
  9 10  4  0        0
 10 11  4  0        0
 11 12  4  0        0
  2 12  1  0        0
  7 12  4  0        0
  4 13  4  0        0
 13 14  4  0        0
 14 15  4  0        0
 15 16  4  0        0
  3 16  4  0        0
M  END
$$$$

CDXL12

 16 16  0  0  0  0  0  0  0  0999 V2000
    0.0000   -1.6500    0.0000 O   0  0  0  0  0  0  0  2  0  0  0  0
    0.0000   -0.8250    0.0000 C   0  0  0  0  0  0  0  2  0  0  0  0
    0.7145   -0.4125    0.0000 O   0  0  0  0  0  0  0  2  0  0  0  0
    1.4289   -0.8250    0.0000 C   0  0  0  0  0  0  0  2  0  0  0  0
    2.1434   -0.4125    0.0000 C   0  0  0  0  0  0  0  2  0  0  0  0
   -0.7145   -0.4125    0.0000 C   0  0  0  0  0  0  0  2  0  0  0  0
   -0.7145    0.4125    0.0000 C   0  0  0  0  0  0  0  2  0  0  0  0
   -1.4289    0.8250    0.0000 C   0  0  0  0  0  0  0  2  0  0  0  0
   -2.1434    0.4125    0.0000 C   0  0  0  0  0  0  0  2  0  0  0  0
   -2.1434   -0.4125    0.0000 C   0  0  0  0  0  0  0  2  0  0  0  0
   -1.4289   -0.8250    0.0000 C   0  0  0  0  0  0  0  2  0  0  0  0
    0.0000    0.8250    0.0000 C   0  0  0  0  0  0  0  2  0  0  0  0
    0.0000    1.6500    0.0000 O   0  0  0  0  0  0  0  2  0  0  0  0
    0.7145    0.4125    0.0000 O   0  0  0  0  0  0  0  2  0  0  0  0
    1.4289    0.8250    0.0000 C   0  0  0  0  0  0  0  2  0  0  0  0
    2.1434    0.4125    0.0000 C   0  0  0  0  0  0  0  2  0  0  0  0
  1  2  2  0        0
  2  3  1  0        0
  3  4  1  0        0
  4  5  1  0        0
  2  6  1  0        0
  6  7  4  0        0
  7  8  4  0        0
  8  9  4  0        0
  9 10  4  0        0
 10 11  4  0        0
  6 11  4  0        0
  7 12  1  0        0
 12 13  2  0        0
 12 14  1  0        0
 14 15  1  0        0
 15 16  1  0        0
M  END
$$$$

CDXL12

 20 20  0  0  0  0  0  0  0  0999 V2000
   -0.3572   -2.4750    0.0000 O   0  0  0  0  0  0  0  2  0  0  0  0
   -0.3572   -1.6500    0.0000 C   0  0  0  0  0  0  0  2  0  0  0  0
    0.3572   -1.2375    0.0000 O   0  0  0  0  0  0  0  2  0  0  0  0
    1.0717   -1.6500    0.0000 C   0  0  0  0  0  0  0  2  0  0  0  0
    1.7862   -1.2375    0.0000 C   0  0  0  0  0  0  0  2  0  0  0  0
    2.5006   -1.6500    0.0000 C   0  0  0  0  0  0  0  2  0  0  0  0
    1.7862   -0.4125    0.0000 C   0  0  0  0  0  0  0  2  0  0  0  0
   -1.0717   -1.2375    0.0000 C   0  0  0  0  0  0  0  2  0  0  0  0
   -1.0717   -0.4125    0.0000 C   0  0  0  0  0  0  0  2  0  0  0  0
   -1.7862    0.0000    0.0000 C   0  0  0  0  0  0  0  2  0  0  0  0
   -2.5006   -0.4125    0.0000 C   0  0  0  0  0  0  0  2  0  0  0  0
   -2.5006   -1.2375    0.0000 C   0  0  0  0  0  0  0  2  0  0  0  0
   -1.7862   -1.6500    0.0000 C   0  0  0  0  0  0  0  2  0  0  0  0
   -0.3572   -0.0000    0.0000 C   0  0  0  0  0  0  0  2  0  0  0  0
    0.3572   -0.4125    0.0000 O   0  0  0  0  0  0  0  2  0  0  0  0
   -0.3572    0.8250    0.0000 O   0  0  0  0  0  0  0  2  0  0  0  0
    0.3572    1.2375    0.0000 C   0  0  0  0  0  0  0  2  0  0  0  0
    0.3572    2.0625    0.0000 C   0  0  0  0  0  0  0  2  0  0  0  0
    1.0717    2.4750    0.0000 C   0  0  0  0  0  0  0  2  0  0  0  0
   -0.3572    2.4750    0.0000 C   0  0  0  0  0  0  0  2  0  0  0  0
  1  2  2  0        0
  2  3  1  0        0
  3  4  1  0        0
  4  5  1  0        0
  5  6  1  0        0
  5  7  1  0        0
  2  8  1  0        0
  8  9  4  0        0
  9 10  4  0        0
 10 11  4  0        0
 11 12  4  0        0
 12 13  4  0        0
  8 13  4  0        0
  9 14  1  0        0
 14 15  2  0        0
 14 16  1  0        0
 16 17  1  0        0
 17 18  1  0        0
 18 19  1  0        0
 18 20  1  0        0
M  END
$$$$

CDXL12

 20 20  0  0  0  0  0  0  0  0999 V2000
   -0.7145   -1.6500    0.0000 O   0  0  0  0  0  0  0  2  0  0  0  0
   -0.7145   -0.8250    0.0000 C   0  0  0  0  0  0  0  2  0  0  0  0
   -0.0000   -0.4125    0.0000 O   0  0  0  0  0  0  0  2  0  0  0  0
    0.7145   -0.8250    0.0000 C   0  0  0  0  0  0  0  2  0  0  0  0
    1.4289   -0.4125    0.0000 C   0  0  0  0  0  0  0  2  0  0  0  0
    2.1434   -0.8250    0.0000 C   0  0  0  0  0  0  0  2  0  0  0  0
    2.8579   -0.4125    0.0000 C   0  0  0  0  0  0  0  2  0  0  0  0
   -1.4289   -0.4125    0.0000 C   0  0  0  0  0  0  0  2  0  0  0  0
   -1.4289    0.4125    0.0000 C   0  0  0  0  0  0  0  2  0  0  0  0
   -2.1434    0.8250    0.0000 C   0  0  0  0  0  0  0  2  0  0  0  0
   -2.8579    0.4125    0.0000 C   0  0  0  0  0  0  0  2  0  0  0  0
   -2.8579   -0.4125    0.0000 C   0  0  0  0  0  0  0  2  0  0  0  0
   -2.1434   -0.8250    0.0000 C   0  0  0  0  0  0  0  2  0  0  0  0
   -0.7145    0.8250    0.0000 C   0  0  0  0  0  0  0  2  0  0  0  0
   -0.7145    1.6500    0.0000 O   0  0  0  0  0  0  0  2  0  0  0  0
   -0.0000    0.4125    0.0000 O   0  0  0  0  0  0  0  2  0  0  0  0
    0.7145    0.8250    0.0000 C   0  0  0  0  0  0  0  2  0  0  0  0
    1.4289    0.4125    0.0000 C   0  0  0  0  0  0  0  2  0  0  0  0
    2.1434    0.8250    0.0000 C   0  0  0  0  0  0  0  2  0  0  0  0
    2.8579    0.4125    0.0000 C   0  0  0  0  0  0  0  2  0  0  0  0
  1  2  2  0        0
  2  3  1  0        0
  3  4  1  0        0
  4  5  1  0        0
  5  6  1  0        0
  6  7  1  0        0
  2  8  1  0        0
  8  9  4  0        0
  9 10  4  0        0
 10 11  4  0        0
 11 12  4  0        0
 12 13  4  0        0
  8 13  4  0        0
  9 14  1  0        0
 14 15  2  0        0
 14 16  1  0        0
 16 17  1  0        0
 17 18  1  0        0
 18 19  1  0        0
 19 20  1  0        0
M  END
$$$$

CDXL12

 24 24  0  0  0  0  0  0  0  0999 V2000
   -1.4289   -1.6500    0.0000 O   0  0  0  0  0  0  0  2  0  0  0  0
   -1.4289   -0.8250    0.0000 C   0  0  0  0  0  0  0  2  0  0  0  0
   -0.7145   -0.4125    0.0000 O   0  0  0  0  0  0  0  2  0  0  0  0
   -0.0000   -0.8250    0.0000 C   0  0  0  0  0  0  0  2  0  0  0  0
    0.7145   -0.4125    0.0000 C   0  0  0  0  0  0  0  2  0  0  0  0
    1.4289   -0.8250    0.0000 C   0  0  0  0  0  0  0  2  0  0  0  0
    2.1434   -0.4125    0.0000 C   0  0  0  0  0  0  0  2  0  0  0  0
    2.8579   -0.8250    0.0000 C   0  0  0  0  0  0  0  2  0  0  0  0
    3.5724   -0.4125    0.0000 C   0  0  0  0  0  0  0  2  0  0  0  0
   -2.1434   -0.4125    0.0000 C   0  0  0  0  0  0  0  2  0  0  0  0
   -2.1434    0.4125    0.0000 C   0  0  0  0  0  0  0  2  0  0  0  0
   -2.8579    0.8250    0.0000 C   0  0  0  0  0  0  0  2  0  0  0  0
   -3.5724    0.4125    0.0000 C   0  0  0  0  0  0  0  2  0  0  0  0
   -3.5724   -0.4125    0.0000 C   0  0  0  0  0  0  0  2  0  0  0  0
   -2.8579   -0.8250    0.0000 C   0  0  0  0  0  0  0  2  0  0  0  0
   -1.4289    0.8250    0.0000 C   0  0  0  0  0  0  0  2  0  0  0  0
   -1.4289    1.6500    0.0000 O   0  0  0  0  0  0  0  2  0  0  0  0
   -0.7145    0.4125    0.0000 O   0  0  0  0  0  0  0  2  0  0  0  0
   -0.0000    0.8250    0.0000 C   0  0  0  0  0  0  0  2  0  0  0  0
    0.7145    0.4125    0.0000 C   0  0  0  0  0  0  0  2  0  0  0  0
    1.4289    0.8250    0.0000 C   0  0  0  0  0  0  0  2  0  0  0  0
    2.1434    0.4125    0.0000 C   0  0  0  0  0  0  0  2  0  0  0  0
    2.8579    0.8250    0.0000 C   0  0  0  0  0  0  0  2  0  0  0  0
    3.5724    0.4125    0.0000 C   0  0  0  0  0  0  0  2  0  0  0  0
  1  2  2  0        0
  2  3  1  0        0
  3  4  1  0        0
  4  5  1  0        0
  5  6  1  0        0
  6  7  1  0        0
  7  8  1  0        0
  8  9  1  0        0
  2 10  1  0        0
 10 11  4  0        0
 11 12  4  0        0
 12 13  4  0        0
 13 14  4  0        0
 14 15  4  0        0
 10 15  4  0        0
 11 16  1  0        0
 16 17  2  0        0
 16 18  1  0        0
 18 19  1  0        0
 19 20  1  0        0
 20 21  1  0        0
 21 22  1  0        0
 22 23  1  0        0
 23 24  1  0        0
M  END
$$$$

CDXL12

 30 30  0  0  0  0  0  0  0  0999 V2000
   -2.5006   -1.6500    0.0000 O   0  0  0  0  0  0  0  2  0  0  0  0
   -2.5006   -0.8250    0.0000 C   0  0  0  0  0  0  0  2  0  0  0  0
   -1.7862   -0.4125    0.0000 O   0  0  0  0  0  0  0  2  0  0  0  0
   -1.0717   -0.8250    0.0000 C   0  0  0  0  0  0  0  2  0  0  0  0
   -0.3572   -0.4125    0.0000 C   0  0  0  0  0  0  0  2  0  0  0  0
    0.3572   -0.8250    0.0000 C   0  0  0  0  0  0  0  2  0  0  0  0
    1.0717   -0.4125    0.0000 C   0  0  0  0  0  0  0  2  0  0  0  0
    1.7862   -0.8250    0.0000 C   0  0  0  0  0  0  0  2  0  0  0  0
    2.5006   -0.4125    0.0000 C   0  0  0  0  0  0  0  2  0  0  0  0
    3.2151   -0.8250    0.0000 C   0  0  0  0  0  0  0  2  0  0  0  0
    3.9296   -0.4125    0.0000 C   0  0  0  0  0  0  0  2  0  0  0  0
    4.6441   -0.8250    0.0000 C   0  0  0  0  0  0  0  2  0  0  0  0
   -3.2151   -0.4125    0.0000 C   0  0  0  0  0  0  0  2  0  0  0  0
   -3.2151    0.4125    0.0000 C   0  0  0  0  0  0  0  2  0  0  0  0
   -3.9296    0.8250    0.0000 C   0  0  0  0  0  0  0  2  0  0  0  0
   -4.6441    0.4125    0.0000 C   0  0  0  0  0  0  0  2  0  0  0  0
   -4.6441   -0.4125    0.0000 C   0  0  0  0  0  0  0  2  0  0  0  0
   -3.9296   -0.8250    0.0000 C   0  0  0  0  0  0  0  2  0  0  0  0
   -2.5006    0.8250    0.0000 C   0  0  0  0  0  0  0  2  0  0  0  0
   -2.5006    1.6500    0.0000 O   0  0  0  0  0  0  0  2  0  0  0  0
   -1.7862    0.4125    0.0000 O   0  0  0  0  0  0  0  2  0  0  0  0
   -1.0717    0.8250    0.0000 C   0  0  0  0  0  0  0  2  0  0  0  0
   -0.3572    0.4125    0.0000 C   0  0  0  0  0  0  0  2  0  0  0  0
    0.3572    0.8250    0.0000 C   0  0  0  0  0  0  0  2  0  0  0  0
    1.0717    0.4125    0.0000 C   0  0  0  0  0  0  0  2  0  0  0  0
    1.7862    0.8250    0.0000 C   0  0  0  0  0  0  0  2  0  0  0  0
    2.5006    0.4125    0.0000 C   0  0  0  0  0  0  0  2  0  0  0  0
    3.2151    0.8250    0.0000 C   0  0  0  0  0  0  0  2  0  0  0  0
    3.9296    0.4125    0.0000 C   0  0  0  0  0  0  0  2  0  0  0  0
    4.6441    0.8250    0.0000 C   0  0  0  0  0  0  0  2  0  0  0  0
  1  2  2  0        0
  2  3  1  0        0
  3  4  1  0        0
  4  5  1  0        0
  5  6  1  0        0
  6  7  1  0        0
  7  8  1  0        0
  8  9  1  0        0
  9 10  1  0        0
 10 11  1  0        0
 11 12  1  0        0
  2 13  1  0        0
 13 14  4  0        0
 14 15  4  0        0
 15 16  4  0        0
 16 17  4  0        0
 17 18  4  0        0
 13 18  4  0        0
 14 19  1  0        0
 19 20  2  0        0
 19 21  1  0        0
 21 22  1  0        0
 22 23  1  0        0
 23 24  1  0        0
 24 25  1  0        0
 25 26  1  0        0
 26 27  1  0        0
 27 28  1  0        0
 28 29  1  0        0
 29 30  1  0        0
M  END
$$$$

CDXL12

 32 32  0  0  0  0  0  0  0  0999 V2000
   -2.8579   -1.6500    0.0000 O   0  0  0  0  0  0  0  2  0  0  0  0
   -2.8579   -0.8250    0.0000 C   0  0  0  0  0  0  0  2  0  0  0  0
   -2.1434   -0.4125    0.0000 O   0  0  0  0  0  0  0  2  0  0  0  0
   -1.4289   -0.8250    0.0000 C   0  0  0  0  0  0  0  2  0  0  0  0
   -0.7145   -0.4125    0.0000 C   0  0  0  0  0  0  0  2  0  0  0  0
   -0.0000   -0.8250    0.0000 C   0  0  0  0  0  0  0  2  0  0  0  0
    0.7145   -0.4125    0.0000 C   0  0  0  0  0  0  0  2  0  0  0  0
    1.4289   -0.8250    0.0000 C   0  0  0  0  0  0  0  2  0  0  0  0
    2.1434   -0.4125    0.0000 C   0  0  0  0  0  0  0  2  0  0  0  0
    2.8579   -0.8250    0.0000 C   0  0  0  0  0  0  0  2  0  0  0  0
    3.5724   -0.4125    0.0000 C   0  0  0  0  0  0  0  2  0  0  0  0
    4.2868   -0.8250    0.0000 C   0  0  0  0  0  0  0  2  0  0  0  0
    5.0013   -0.4125    0.0000 C   0  0  0  0  0  0  0  2  0  0  0  0
   -3.5724   -0.4125    0.0000 C   0  0  0  0  0  0  0  2  0  0  0  0
   -3.5724    0.4125    0.0000 C   0  0  0  0  0  0  0  2  0  0  0  0
   -4.2868    0.8250    0.0000 C   0  0  0  0  0  0  0  2  0  0  0  0
   -5.0013    0.4125    0.0000 C   0  0  0  0  0  0  0  2  0  0  0  0
   -5.0013   -0.4125    0.0000 C   0  0  0  0  0  0  0  2  0  0  0  0
   -4.2868   -0.8250    0.0000 C   0  0  0  0  0  0  0  2  0  0  0  0
   -2.8579    0.8250    0.0000 C   0  0  0  0  0  0  0  2  0  0  0  0
   -2.8579    1.6500    0.0000 O   0  0  0  0  0  0  0  2  0  0  0  0
   -2.1434    0.4125    0.0000 O   0  0  0  0  0  0  0  2  0  0  0  0
   -1.4289    0.8250    0.0000 C   0  0  0  0  0  0  0  2  0  0  0  0
   -0.7145    0.4125    0.0000 C   0  0  0  0  0  0  0  2  0  0  0  0
   -0.0000    0.8250    0.0000 C   0  0  0  0  0  0  0  2  0  0  0  0
    0.7145    0.4125    0.0000 C   0  0  0  0  0  0  0  2  0  0  0  0
    1.4289    0.8250    0.0000 C   0  0  0  0  0  0  0  2  0  0  0  0
    2.1434    0.4125    0.0000 C   0  0  0  0  0  0  0  2  0  0  0  0
    2.8579    0.8250    0.0000 C   0  0  0  0  0  0  0  2  0  0  0  0
    3.5724    0.4125    0.0000 C   0  0  0  0  0  0  0  2  0  0  0  0
    4.2868    0.8250    0.0000 C   0  0  0  0  0  0  0  2  0  0  0  0
    5.0013    0.4125    0.0000 C   0  0  0  0  0  0  0  2  0  0  0  0
  1  2  2  0        0
  2  3  1  0        0
  3  4  1  0        0
  4  5  1  0        0
  5  6  1  0        0
  6  7  1  0        0
  7  8  1  0        0
  8  9  1  0        0
  9 10  1  0        0
 10 11  1  0        0
 11 12  1  0        0
 12 13  1  0        0
  2 14  1  0        0
 14 15  4  0        0
 15 16  4  0        0
 16 17  4  0        0
 17 18  4  0        0
 18 19  4  0        0
 14 19  4  0        0
 15 20  1  0        0
 20 21  2  0        0
 20 22  1  0        0
 22 23  1  0        0
 23 24  1  0        0
 24 25  1  0        0
 25 26  1  0        0
 26 27  1  0        0
 27 28  1  0        0
 28 29  1  0        0
 29 30  1  0        0
 30 31  1  0        0
 31 32  1  0        0
M  END
$$$$

CDXL12

 15 16  0  0  0  0  0  0  0  0999 V2000
    1.4842    1.2375    0.0000 O   0  0  0  0  0  0  0  2  0  0  0  0
    0.6592    1.2375    0.0000 S   0  0  0  0  0  0  0  2  0  0  0  0
   -0.1658    1.2375    0.0000 O   0  0  0  0  0  0  0  2  0  0  0  0
    0.6592    2.0625    0.0000 O   0  0  0  0  0  0  0  2  0  0  0  0
    0.6592    0.4125    0.0000 C   0  0  0  0  0  0  0  2  0  0  0  0
   -0.0553    0.0000    0.0000 C   0  0  0  0  0  0  0  2  0  0  0  0
   -0.0553   -0.8250    0.0000 C   0  0  0  0  0  0  0  2  0  0  0  0
    0.6592   -1.2375    0.0000 C   0  0  0  0  0  0  0  2  0  0  0  0
    0.6592   -2.0625    0.0000 N   0  0  0  0  0  0  0  2  0  0  0  0
    1.3737   -0.8250    0.0000 C   0  0  0  0  0  0  0  2  0  0  0  0
    1.3737   -0.0000    0.0000 C   0  0  0  0  0  0  0  2  0  0  0  0
   -0.7697   -1.2375    0.0000 C   0  0  0  0  0  0  0  2  0  0  0  0
   -1.4842   -0.8250    0.0000 C   0  0  0  0  0  0  0  2  0  0  0  0
   -1.4842    0.0000    0.0000 C   0  0  0  0  0  0  0  2  0  0  0  0
   -0.7697    0.4125    0.0000 C   0  0  0  0  0  0  0  2  0  0  0  0
  1  2  2  0        0
  2  3  2  0        0
  2  4  1  0        0
  2  5  1  0        0
  5  6  4  0        0
  6  7  4  0        0
  7  8  4  0        0
  8  9  1  0        0
  8 10  4  0        0
 10 11  4  0        0
  5 11  4  0        0
  7 12  4  0        0
 12 13  4  0        0
 13 14  4  0        0
 14 15  4  0        0
  6 15  4  0        0
M  END
$$$$

CDXL12

 16 18  0  0  0  0  0  0  0  0999 V2000
    0.3572   -1.2375    0.0000 C   0  0  0  0  0  0  0  2  0  0  0  0
    1.0717   -0.8250    0.0000 C   0  0  0  0  0  0  0  2  0  0  0  0
    1.0717    0.0000    0.0000 N   0  0  0  0  0  0  0  2  0  0  0  0
    1.7862   -0.4125    0.0000 Br  0  0  0  0  0  0  0  2  0  0  0  0
    1.7862    0.4125    0.0000 C   0  0  0  0  0  0  0  2  0  0  0  0
    1.7862    1.2375    0.0000 C   0  0  0  0  0  0  0  2  0  0  0  0
    1.0717    1.6500    0.0000 C   0  0  0  0  0  0  0  2  0  0  0  0
    0.3572    1.2375    0.0000 C   0  0  0  0  0  0  0  2  0  0  0  0
    0.3572    0.4125    0.0000 C   0  0  0  0  0  0  0  2  0  0  0  0
   -0.3572    0.0000    0.0000 C   0  0  0  0  0  0  0  2  0  0  0  0
   -1.0717    0.4125    0.0000 C   0  0  0  0  0  0  0  2  0  0  0  0
   -1.7862   -0.0000    0.0000 C   0  0  0  0  0  0  0  2  0  0  0  0
   -1.7862   -0.8250    0.0000 C   0  0  0  0  0  0  0  2  0  0  0  0
   -1.0717   -1.2375    0.0000 C   0  0  0  0  0  0  0  2  0  0  0  0
   -0.3572   -0.8250    0.0000 N   0  0  0  0  0  0  0  2  0  0  0  0
   -0.3572   -1.6500    0.0000 Br  0  0  0  0  0  0  0  2  0  0  0  0
  1  2  1  0        0
  2  3  1  0        0
  3  4  1  0        0
  3  5  1  0        0
  5  6  1  0        0
  6  7  1  0        0
  7  8  1  0        0
  8  9  1  0        0
  3  9  1  0        0
  9 10  1  0        0
 10 11  1  0        0
 11 12  1  0        0
 12 13  1  0        0
 13 14  1  0        0
 14 15  1  0        0
  1 15  1  0        0
 10 15  1  0        0
 15 16  1  0        0
M  END
$$$$

CDXL12

 14 16  0  0  0  0  0  0  0  0999 V2000
   -0.3572   -1.0313    0.0000 C   0  0  0  0  0  0  0  2  0  0  0  0
   -0.3572   -0.2063    0.0000 C   0  0  0  0  0  0  0  2  0  0  0  0
    0.3572    0.2062    0.0000 C   0  0  0  0  0  0  0  2  0  0  0  0
    1.0717   -0.2062    0.0000 C   0  0  0  0  0  0  0  2  0  0  0  0
    1.0717   -1.0312    0.0000 C   0  0  0  0  0  0  0  2  0  0  0  0
    0.3572   -1.4437    0.0000 C   0  0  0  0  0  0  0  2  0  0  0  0
    1.7862    0.2062    0.0000 C   0  0  0  0  0  0  0  2  0  0  0  0
    1.7862    1.0313    0.0000 C   0  0  0  0  0  0  0  2  0  0  0  0
    1.0717    1.4438    0.0000 C   0  0  0  0  0  0  0  2  0  0  0  0
    0.3572    1.0313    0.0000 C   0  0  0  0  0  0  0  2  0  0  0  0
   -1.0717    0.2062    0.0000 C   0  0  0  0  0  0  0  2  0  0  0  0
   -1.7862   -0.2063    0.0000 C   0  0  0  0  0  0  0  2  0  0  0  0
   -1.7862   -1.0313    0.0000 C   0  0  0  0  0  0  0  2  0  0  0  0
   -1.0717   -1.4438    0.0000 C   0  0  0  0  0  0  0  2  0  0  0  0
  1  2  4  0        0
  2  3  4  0        0
  3  4  4  0        0
  4  5  4  0        0
  5  6  4  0        0
  1  6  4  0        0
  4  7  4  0        0
  7  8  4  0        0
  8  9  4  0        0
  9 10  4  0        0
  3 10  4  0        0
  2 11  4  0        0
 11 12  4  0        0
 12 13  4  0        0
 13 14  4  0        0
  1 14  4  0        0
M  END
$$$$

CDXL12

 14 16  0  0  0  0  0  0  0  0999 V2000
   -1.7862   -1.0312    0.0000 C   0  0  0  0  0  0  0  2  0  0  0  0
   -1.7862   -0.2063    0.0000 C   0  0  0  0  0  0  0  2  0  0  0  0
   -1.0717    0.2062    0.0000 C   0  0  0  0  0  0  0  2  0  0  0  0
   -0.3572   -0.2063    0.0000 C   0  0  0  0  0  0  0  2  0  0  0  0
   -0.3572   -1.0312    0.0000 C   0  0  0  0  0  0  0  2  0  0  0  0
   -1.0717   -1.4437    0.0000 C   0  0  0  0  0  0  0  2  0  0  0  0
    0.3572   -1.4437    0.0000 C   0  0  0  0  0  0  0  2  0  0  0  0
    1.0717   -1.0312    0.0000 C   0  0  0  0  0  0  0  2  0  0  0  0
    1.0717   -0.2063    0.0000 C   0  0  0  0  0  0  0  2  0  0  0  0
    1.7862    0.2062    0.0000 N   0  0  0  0  0  0  0  2  0  0  0  0
    1.7862    1.0312    0.0000 C   0  0  0  0  0  0  0  2  0  0  0  0
    1.0717    1.4437    0.0000 C   0  0  0  0  0  0  0  2  0  0  0  0
    0.3572    1.0313    0.0000 C   0  0  0  0  0  0  0  2  0  0  0  0
    0.3572    0.2063    0.0000 C   0  0  0  0  0  0  0  2  0  0  0  0
  1  2  4  0        0
  2  3  4  0        0
  3  4  4  0        0
  4  5  4  0        0
  5  6  4  0        0
  1  6  4  0        0
  5  7  4  0        0
  7  8  4  0        0
  8  9  4  0        0
  9 10  4  0        0
 10 11  4  0        0
 11 12  4  0        0
 12 13  4  0        0
 13 14  4  0        0
  4 14  4  0        0
  9 14  4  0        0
M  END
$$$$

CDXL12

 13 13  0  0  0  0  0  0  0  0999 V2000
    1.4289    0.8250    0.0000 O   0  0  0  0  0  0  0  2  0  0  0  0
    1.4289    0.0000    0.0000 C   0  0  0  0  0  0  0  2  0  0  0  0
    2.1434   -0.4125    0.0000 O   0  0  0  0  0  0  0  2  0  0  0  0
    0.7145   -0.4125    0.0000 C   0  0  0  0  0  0  0  2  0  0  0  0
    0.0000   -0.0000    0.0000 C   0  0  0  0  0  0  0  2  0  0  0  0
    0.0000    0.8250    0.0000 C   0  0  0  0  0  0  0  2  0  0  0  0
   -0.7145    1.2375    0.0000 C   0  0  0  0  0  0  0  2  0  0  0  0
   -1.4289    0.8250    0.0000 C   0  0  0  0  0  0  0  2  0  0  0  0
   -1.4289   -0.0000    0.0000 C   0  0  0  0  0  0  0  2  0  0  0  0
   -2.1434   -0.4125    0.0000 Cl  0  0  0  0  0  0  0  2  0  0  0  0
   -0.7145   -0.4125    0.0000 C   0  0  0  0  0  0  0  2  0  0  0  0
   -0.7145   -1.2375    0.0000 Cl  0  0  0  0  0  0  0  2  0  0  0  0
    0.7145    1.2375    0.0000 Cl  0  0  0  0  0  0  0  2  0  0  0  0
  1  2  2  0        0
  2  3  1  0        0
  2  4  1  0        0
  4  5  1  0        0
  5  6  4  0        0
  6  7  4  0        0
  7  8  4  0        0
  8  9  4  0        0
  9 10  1  0        0
  9 11  4  0        0
  5 11  4  0        0
 11 12  1  0        0
  6 13  1  0        0
M  END
$$$$

CDXL12

 13 13  0  0  0  0  0  0  0  0999 V2000
    2.1434    0.0000    0.0000 O   0  0  0  0  0  0  0  2  0  0  0  0
    1.4289    0.4125    0.0000 C   0  0  0  0  0  0  0  2  0  0  0  0
    1.4289    1.2375    0.0000 O   0  0  0  0  0  0  0  2  0  0  0  0
    0.7145    0.0000    0.0000 C   0  0  0  0  0  0  0  2  0  0  0  0
    0.0000    0.4125    0.0000 C   0  0  0  0  0  0  0  2  0  0  0  0
    0.0000    1.2375    0.0000 O   0  0  0  0  0  0  0  2  0  0  0  0
   -0.7145   -0.0000    0.0000 C   0  0  0  0  0  0  0  2  0  0  0  0
   -1.4289    0.4125    0.0000 N   0  0  0  0  0  0  0  2  0  0  0  0
   -1.4289    1.2375    0.0000 O   0  0  0  0  0  0  0  2  0  0  0  0
   -2.1434   -0.0000    0.0000 O   0  0  0  0  0  0  0  2  0  0  0  0
   -0.7145   -0.8250    0.0000 C   0  0  0  0  0  0  0  2  0  0  0  0
    0.0000   -1.2375    0.0000 C   0  0  0  0  0  0  0  2  0  0  0  0
    0.7145   -0.8250    0.0000 C   0  0  0  0  0  0  0  2  0  0  0  0
  1  2  1  0        0
  2  3  2  0        0
  2  4  1  0        0
  4  5  4  0        0
  5  6  1  0        0
  5  7  4  0        0
  7  8  1  0        0
  8  9  2  0        0
  8 10  2  0        0
  7 11  4  0        0
 11 12  4  0        0
 12 13  4  0        0
  4 13  4  0        0
M  END
$$$$

CDXL12

 11 12  0  0  0  0  0  0  0  0999 V2000
    1.1193    1.4521    0.0000 O   0  0  0  0  0  0  0  2  0  0  0  0
    0.8643    0.6674    0.0000 C   0  0  0  0  0  0  0  2  0  0  0  0
    1.3492   -0.0000    0.0000 N   0  0  0  0  0  0  0  2  0  0  0  0
    0.8643   -0.6674    0.0000 C   0  0  0  0  0  0  0  2  0  0  0  0
    1.1193   -1.4521    0.0000 O   0  0  0  0  0  0  0  2  0  0  0  0
    0.0797   -0.4125    0.0000 C   0  0  0  0  0  0  0  2  0  0  0  0
   -0.6348   -0.8250    0.0000 C   0  0  0  0  0  0  0  2  0  0  0  0
   -1.3492   -0.4125    0.0000 C   0  0  0  0  0  0  0  2  0  0  0  0
   -1.3492    0.4125    0.0000 C   0  0  0  0  0  0  0  2  0  0  0  0
   -0.6348    0.8250    0.0000 C   0  0  0  0  0  0  0  2  0  0  0  0
    0.0797    0.4125    0.0000 C   0  0  0  0  0  0  0  2  0  0  0  0
  1  2  2  0        0
  2  3  1  0        0
  3  4  1  0        0
  4  5  2  0        0
  4  6  1  0        0
  6  7  4  0        0
  7  8  4  0        0
  8  9  4  0        0
  9 10  4  0        0
 10 11  4  0        0
  2 11  1  0        0
  6 11  4  0        0
M  END
$$$$

CDXL12

 23 24  0  0  0  0  0  0  0  0999 V2000
    0.0000   -1.0313    0.0000 O   0  0  0  0  0  0  0  2  0  0  0  0
   -0.7145   -0.6188    0.0000 C   0  0  0  0  0  0  0  2  0  0  0  0
   -0.7145    0.2062    0.0000 O   0  0  0  0  0  0  0  2  0  0  0  0
    0.0000    0.6188    0.0000 C   0  0  0  0  0  0  0  2  0  0  0  0
    0.0000    1.4438    0.0000 C   0  0  0  0  0  0  0  2  0  0  0  0
   -0.7145    1.8563    0.0000 C   0  0  0  0  0  0  0  2  0  0  0  0
   -0.7145    2.6812    0.0000 C   0  0  0  0  0  0  0  2  0  0  0  0
    0.0000    3.0938    0.0000 C   0  0  0  0  0  0  0  2  0  0  0  0
    0.7145    2.6812    0.0000 C   0  0  0  0  0  0  0  2  0  0  0  0
    0.7145    1.8563    0.0000 C   0  0  0  0  0  0  0  2  0  0  0  0
   -1.4289   -1.0313    0.0000 C   0  0  0  0  0  0  0  2  0  0  0  0
   -1.4289   -1.8563    0.0000 C   0  0  0  0  0  0  0  2  0  0  0  0
   -2.1434   -2.2687    0.0000 C   0  0  0  0  0  0  0  2  0  0  0  0
   -2.8579   -1.8563    0.0000 C   0  0  0  0  0  0  0  2  0  0  0  0
   -2.8579   -1.0313    0.0000 C   0  0  0  0  0  0  0  2  0  0  0  0
   -2.1434   -0.6188    0.0000 C   0  0  0  0  0  0  0  2  0  0  0  0
   -0.7145   -2.2687    0.0000 C   0  0  0  0  0  0  0  2  0  0  0  0
   -0.7145   -3.0938    0.0000 O   0  0  0  0  0  0  0  2  0  0  0  0
    0.0000   -1.8563    0.0000 O   0  0  0  0  0  0  0  2  0  0  0  0
    0.7145   -2.2687    0.0000 C   0  0  0  0  0  0  0  2  0  0  0  0
    1.4289   -1.8563    0.0000 C   0  0  0  0  0  0  0  2  0  0  0  0
    2.1434   -2.2687    0.0000 C   0  0  0  0  0  0  0  2  0  0  0  0
    2.8579   -1.8563    0.0000 C   0  0  0  0  0  0  0  2  0  0  0  0
  1  2  2  0        0
  2  3  1  0        0
  3  4  1  0        0
  4  5  1  0        0
  5  6  4  0        0
  6  7  4  0        0
  7  8  4  0        0
  8  9  4  0        0
  9 10  4  0        0
  5 10  4  0        0
  2 11  1  0        0
 11 12  4  0        0
 12 13  4  0        0
 13 14  4  0        0
 14 15  4  0        0
 15 16  4  0        0
 11 16  4  0        0
 12 17  1  0        0
 17 18  2  0        0
 17 19  1  0        0
 19 20  1  0        0
 20 21  1  0        0
 21 22  1  0        0
 22 23  1  0        0
M  END
$$$$

CDXL12

 24 24  0  0  0  0  0  0  0  0999 V2000
   -1.4289   -2.8875    0.0000 O   0  0  0  0  0  0  0  2  0  0  0  0
   -1.4289   -2.0625    0.0000 C   0  0  0  0  0  0  0  2  0  0  0  0
   -0.7145   -1.6500    0.0000 O   0  0  0  0  0  0  0  2  0  0  0  0
   -0.0000   -2.0625    0.0000 C   0  0  0  0  0  0  0  2  0  0  0  0
    0.7145   -1.6500    0.0000 C   0  0  0  0  0  0  0  2  0  0  0  0
    1.4289   -2.0625    0.0000 C   0  0  0  0  0  0  0  2  0  0  0  0
    2.1434   -1.6500    0.0000 C   0  0  0  0  0  0  0  2  0  0  0  0
    2.8579   -2.0625    0.0000 C   0  0  0  0  0  0  0  2  0  0  0  0
    3.5724   -1.6500    0.0000 C   0  0  0  0  0  0  0  2  0  0  0  0
    0.7145   -0.8250    0.0000 C   0  0  0  0  0  0  0  2  0  0  0  0
    1.4289   -0.4125    0.0000 C   0  0  0  0  0  0  0  2  0  0  0  0
   -2.1434   -1.6500    0.0000 C   0  0  0  0  0  0  0  2  0  0  0  0
   -2.1434   -0.8250    0.0000 C   0  0  0  0  0  0  0  2  0  0  0  0
   -2.8579   -0.4125    0.0000 C   0  0  0  0  0  0  0  2  0  0  0  0
   -3.5724   -0.8250    0.0000 C   0  0  0  0  0  0  0  2  0  0  0  0
   -3.5724   -1.6500    0.0000 C   0  0  0  0  0  0  0  2  0  0  0  0
   -2.8579   -2.0625    0.0000 C   0  0  0  0  0  0  0  2  0  0  0  0
   -1.4289   -0.4125    0.0000 C   0  0  0  0  0  0  0  2  0  0  0  0
   -0.7145   -0.8250    0.0000 O   0  0  0  0  0  0  0  2  0  0  0  0
   -1.4289    0.4125    0.0000 O   0  0  0  0  0  0  0  2  0  0  0  0
   -0.7145    0.8250    0.0000 C   0  0  0  0  0  0  0  2  0  0  0  0
   -0.7145    1.6500    0.0000 C   0  0  0  0  0  0  0  2  0  0  0  0
   -0.0000    2.0625    0.0000 C   0  0  0  0  0  0  0  2  0  0  0  0
   -0.0000    2.8875    0.0000 C   0  0  0  0  0  0  0  2  0  0  0  0
  1  2  2  0        0
  2  3  1  0        0
  3  4  1  0        0
  4  5  1  0        0
  5  6  1  0        0
  6  7  1  0        0
  7  8  1  0        0
  8  9  1  0        0
  5 10  1  0        0
 10 11  1  0        0
  2 12  1  0        0
 12 13  4  0        0
 13 14  4  0        0
 14 15  4  0        0
 15 16  4  0        0
 16 17  4  0        0
 12 17  4  0        0
 13 18  1  0        0
 18 19  2  0        0
 18 20  1  0        0
 20 21  1  0        0
 21 22  1  0        0
 22 23  1  0        0
 23 24  1  0        0
M  END
$$$$

CDXL12

 24 24  0  0  0  0  0  0  0  0999 V2000
   -1.7862   -2.8875    0.0000 O   0  0  0  0  0  0  0  2  0  0  0  0
   -1.7862   -2.0625    0.0000 C   0  0  0  0  0  0  0  2  0  0  0  0
   -1.0717   -1.6500    0.0000 O   0  0  0  0  0  0  0  2  0  0  0  0
   -0.3572   -2.0625    0.0000 C   0  0  0  0  0  0  0  2  0  0  0  0
    0.3572   -1.6500    0.0000 C   0  0  0  0  0  0  0  2  0  0  0  0
    0.3572   -0.8250    0.0000 O   0  0  0  0  0  0  0  2  0  0  0  0
    1.0717   -2.0625    0.0000 O   0  0  0  0  0  0  0  2  0  0  0  0
    1.7862   -1.6500    0.0000 C   0  0  0  0  0  0  0  2  0  0  0  0
    2.5006   -2.0625    0.0000 C   0  0  0  0  0  0  0  2  0  0  0  0
    3.2151   -1.6500    0.0000 C   0  0  0  0  0  0  0  2  0  0  0  0
    3.9296   -2.0625    0.0000 C   0  0  0  0  0  0  0  2  0  0  0  0
   -2.5006   -1.6500    0.0000 C   0  0  0  0  0  0  0  2  0  0  0  0
   -2.5006   -0.8250    0.0000 C   0  0  0  0  0  0  0  2  0  0  0  0
   -3.2151   -0.4125    0.0000 C   0  0  0  0  0  0  0  2  0  0  0  0
   -3.9296   -0.8250    0.0000 C   0  0  0  0  0  0  0  2  0  0  0  0
   -3.9296   -1.6500    0.0000 C   0  0  0  0  0  0  0  2  0  0  0  0
   -3.2151   -2.0625    0.0000 C   0  0  0  0  0  0  0  2  0  0  0  0
   -1.7862   -0.4125    0.0000 C   0  0  0  0  0  0  0  2  0  0  0  0
   -1.0717   -0.8250    0.0000 O   0  0  0  0  0  0  0  2  0  0  0  0
   -1.7862    0.4125    0.0000 O   0  0  0  0  0  0  0  2  0  0  0  0
   -1.0717    0.8250    0.0000 C   0  0  0  0  0  0  0  2  0  0  0  0
   -1.0717    1.6500    0.0000 C   0  0  0  0  0  0  0  2  0  0  0  0
   -0.3572    2.0625    0.0000 C   0  0  0  0  0  0  0  2  0  0  0  0
   -0.3572    2.8875    0.0000 C   0  0  0  0  0  0  0  2  0  0  0  0
  1  2  2  0        0
  2  3  1  0        0
  3  4  1  0        0
  4  5  1  0        0
  5  6  2  0        0
  5  7  1  0        0
  7  8  1  0        0
  8  9  1  0        0
  9 10  1  0        0
 10 11  1  0        0
  2 12  1  0        0
 12 13  4  0        0
 13 14  4  0        0
 14 15  4  0        0
 15 16  4  0        0
 16 17  4  0        0
 12 17  4  0        0
 13 18  1  0        0
 18 19  2  0        0
 18 20  1  0        0
 20 21  1  0        0
 21 22  1  0        0
 22 23  1  0        0
 23 24  1  0        0
M  END
$$$$

CDXL12

 19 19  0  0  0  0  0  0  0  0999 V2000
   -3.2151    0.4125    0.0000 C   0  0  0  0  0  0  0  2  0  0  0  0
   -3.2151   -0.4125    0.0000 C   0  0  0  0  0  0  0  2  0  0  0  0
   -2.5006   -0.8250    0.0000 C   0  0  0  0  0  0  0  2  0  0  0  0
   -1.7862   -0.4125    0.0000 C   0  0  0  0  0  0  0  2  0  0  0  0
   -1.0717   -0.8250    0.0000 C   0  0  0  0  0  0  0  2  0  0  0  0
   -1.0717   -1.6500    0.0000 O   0  0  0  0  0  0  0  2  0  0  0  0
   -0.3572   -0.4125    0.0000 O   0  0  0  0  0  0  0  2  0  0  0  0
    0.3572   -0.8250    0.0000 C   0  0  0  0  0  0  0  2  0  0  0  0
    1.0717   -0.4125    0.0000 C   0  0  0  0  0  0  0  2  0  0  0  0
    1.0717    0.4125    0.0000 O   0  0  0  0  0  0  0  2  0  0  0  0
    1.7862   -0.8250    0.0000 O   0  0  0  0  0  0  0  2  0  0  0  0
    2.5006   -0.4125    0.0000 C   0  0  0  0  0  0  0  2  0  0  0  0
    3.2151   -0.8250    0.0000 C   0  0  0  0  0  0  0  2  0  0  0  0
   -1.7862    0.4125    0.0000 C   0  0  0  0  0  0  0  2  0  0  0  0
   -2.5006    0.8250    0.0000 C   0  0  0  0  0  0  0  2  0  0  0  0
   -1.0717    0.8250    0.0000 C   0  0  0  0  0  0  0  2  0  0  0  0
   -1.0717    1.6500    0.0000 O   0  0  0  0  0  0  0  2  0  0  0  0
   -0.3572    0.4125    0.0000 O   0  0  0  0  0  0  0  2  0  0  0  0
    0.3572    0.8250    0.0000 C   0  0  0  0  0  0  0  2  0  0  0  0
  1  2  4  0        0
  2  3  4  0        0
  3  4  4  0        0
  4  5  1  0        0
  5  6  2  0        0
  5  7  1  0        0
  7  8  1  0        0
  8  9  1  0        0
  9 10  2  0        0
  9 11  1  0        0
 11 12  1  0        0
 12 13  1  0        0
  4 14  4  0        0
 14 15  4  0        0
  1 15  4  0        0
 14 16  1  0        0
 16 17  2  0        0
 16 18  1  0        0
 18 19  1  0        0
M  END
$$$$

CDXL12

 15 16  0  0  0  0  0  0  0  0999 V2000
    1.7862   -1.2375    0.0000 N   0  0  0  0  0  0  0  2  0  0  0  0
    1.0717   -0.8250    0.0000 C   0  0  0  0  0  0  0  2  0  0  0  0
    0.3572   -0.4125    0.0000 C   0  0  0  0  0  0  0  2  0  0  0  0
   -0.3572   -0.8250    0.0000 C   0  0  0  0  0  0  0  2  0  0  0  0
   -0.3572   -1.6500    0.0000 C   0  0  0  0  0  0  0  2  0  0  0  0
   -1.0717   -2.0625    0.0000 C   0  0  0  0  0  0  0  2  0  0  0  0
   -1.7862   -1.6500    0.0000 C   0  0  0  0  0  0  0  2  0  0  0  0
   -1.7862   -0.8250    0.0000 C   0  0  0  0  0  0  0  2  0  0  0  0
   -1.0717   -0.4125    0.0000 C   0  0  0  0  0  0  0  2  0  0  0  0
    0.3572    0.4125    0.0000 C   0  0  0  0  0  0  0  2  0  0  0  0
   -0.3572    0.8250    0.0000 C   0  0  0  0  0  0  0  2  0  0  0  0
   -0.3572    1.6500    0.0000 C   0  0  0  0  0  0  0  2  0  0  0  0
    0.3572    2.0625    0.0000 C   0  0  0  0  0  0  0  2  0  0  0  0
    1.0717    1.6500    0.0000 C   0  0  0  0  0  0  0  2  0  0  0  0
    1.0717    0.8250    0.0000 C   0  0  0  0  0  0  0  2  0  0  0  0
  1  2  3  0        0
  2  3  1  0        0
  3  4  1  0        0
  4  5  4  0        0
  5  6  4  0        0
  6  7  4  0        0
  7  8  4  0        0
  8  9  4  0        0
  4  9  4  0        0
  3 10  1  0        0
 10 11  4  0        0
 11 12  4  0        0
 12 13  4  0        0
 13 14  4  0        0
 14 15  4  0        0
 10 15  4  0        0
M  END
$$$$

CDXL12

 15 16  0  0  0  0  0  0  0  0999 V2000
    1.4289   -1.6500    0.0000 O   0  0  0  0  0  0  0  2  0  0  0  0
    1.4289   -0.8250    0.0000 N   0  0  0  0  0  0  0  2  0  0  0  0
    0.7145   -0.4125    0.0000 N   0  0  0  0  0  0  0  2  0  0  0  0
    0.0000   -0.8250    0.0000 C   0  0  0  0  0  0  0  2  0  0  0  0
    0.0000   -1.6500    0.0000 C   0  0  0  0  0  0  0  2  0  0  0  0
   -0.7145   -2.0625    0.0000 C   0  0  0  0  0  0  0  2  0  0  0  0
   -1.4289   -1.6500    0.0000 C   0  0  0  0  0  0  0  2  0  0  0  0
   -1.4289   -0.8250    0.0000 C   0  0  0  0  0  0  0  2  0  0  0  0
   -0.7145   -0.4125    0.0000 C   0  0  0  0  0  0  0  2  0  0  0  0
    0.7145    0.4125    0.0000 C   0  0  0  0  0  0  0  2  0  0  0  0
    0.0000    0.8250    0.0000 C   0  0  0  0  0  0  0  2  0  0  0  0
    0.0000    1.6500    0.0000 C   0  0  0  0  0  0  0  2  0  0  0  0
    0.7145    2.0625    0.0000 C   0  0  0  0  0  0  0  2  0  0  0  0
    1.4289    1.6500    0.0000 C   0  0  0  0  0  0  0  2  0  0  0  0
    1.4289    0.8250    0.0000 C   0  0  0  0  0  0  0  2  0  0  0  0
  1  2  2  0        0
  2  3  1  0        0
  3  4  1  0        0
  4  5  4  0        0
  5  6  4  0        0
  6  7  4  0        0
  7  8  4  0        0
  8  9  4  0        0
  4  9  4  0        0
  3 10  1  0        0
 10 11  4  0        0
 11 12  4  0        0
 12 13  4  0        0
 13 14  4  0        0
 14 15  4  0        0
 10 15  4  0        0
M  END
$$$$

CDXL12

 13 14  0  0  0  0  0  0  0  0999 V2000
   -0.7145   -1.4438    0.0000 C   0  0  0  0  0  0  0  2  0  0  0  0
   -1.4289   -1.0313    0.0000 C   0  0  0  0  0  0  0  2  0  0  0  0
   -1.4289   -0.2063    0.0000 C   0  0  0  0  0  0  0  2  0  0  0  0
   -0.7145    0.2062    0.0000 C   0  0  0  0  0  0  0  2  0  0  0  0
    0.0000   -0.2062    0.0000 C   0  0  0  0  0  0  0  2  0  0  0  0
    0.0000   -1.0313    0.0000 C   0  0  0  0  0  0  0  2  0  0  0  0
    0.7145   -1.4438    0.0000 C   0  0  0  0  0  0  0  2  0  0  0  0
    1.4289   -1.0312    0.0000 C   0  0  0  0  0  0  0  2  0  0  0  0
    1.4289   -0.2062    0.0000 C   0  0  0  0  0  0  0  2  0  0  0  0
    0.7145    0.2062    0.0000 C   0  0  0  0  0  0  0  2  0  0  0  0
    0.7145    1.0313    0.0000 N   0  0  0  0  0  0  0  2  0  0  0  0
    0.0000    1.4438    0.0000 O   0  0  0  0  0  0  0  2  0  0  0  0
    1.4289    1.4438    0.0000 O   0  0  0  0  0  0  0  2  0  0  0  0
  1  2  4  0        0
  2  3  4  0        0
  3  4  4  0        0
  4  5  4  0        0
  5  6  4  0        0
  1  6  4  0        0
  6  7  4  0        0
  7  8  4  0        0
  8  9  4  0        0
  9 10  4  0        0
  5 10  4  0        0
 10 11  1  0        0
 11 12  2  0        0
 11 13  2  0        0
M  END
$$$$

CDXL12

 13 15  0  0  0  0  0  0  0  0999 V2000
   -0.6674    0.4564    0.0000 C   0  0  0  0  0  0  0  2  0  0  0  0
   -0.4125   -0.3282    0.0000 C   0  0  0  0  0  0  0  2  0  0  0  0
    0.4125   -0.3282    0.0000 C   0  0  0  0  0  0  0  2  0  0  0  0
    0.6674    0.4564    0.0000 C   0  0  0  0  0  0  0  2  0  0  0  0
    1.4744    0.6279    0.0000 C   0  0  0  0  0  0  0  2  0  0  0  0
    2.0264    0.0148    0.0000 C   0  0  0  0  0  0  0  2  0  0  0  0
    1.7715   -0.7698    0.0000 C   0  0  0  0  0  0  0  2  0  0  0  0
    0.9645   -0.9413    0.0000 C   0  0  0  0  0  0  0  2  0  0  0  0
    0.0000    0.9413    0.0000 C   0  0  0  0  0  0  0  2  0  0  0  0
   -0.9645   -0.9413    0.0000 C   0  0  0  0  0  0  0  2  0  0  0  0
   -1.7715   -0.7698    0.0000 C   0  0  0  0  0  0  0  2  0  0  0  0
   -2.0264    0.0148    0.0000 C   0  0  0  0  0  0  0  2  0  0  0  0
   -1.4744    0.6279    0.0000 C   0  0  0  0  0  0  0  2  0  0  0  0
  1  2  4  0        0
  2  3  1  0        0
  3  4  4  0        0
  4  5  4  0        0
  5  6  4  0        0
  6  7  4  0        0
  7  8  4  0        0
  3  8  4  0        0
  4  9  1  0        0
  1  9  1  0        0
  2 10  4  0        0
 10 11  4  0        0
 11 12  4  0        0
 12 13  4  0        0
  1 13  4  0        0
M  END
$$$$

CDXL12

 14 15  0  0  0  0  0  0  0  0999 V2000
    1.0717    1.8563    0.0000 O   0  0  0  0  0  0  0  2  0  0  0  0
    1.0717    1.0313    0.0000 C   0  0  0  0  0  0  0  2  0  0  0  0
    1.7862    0.6187    0.0000 O   0  0  0  0  0  0  0  2  0  0  0  0
    0.3572    0.6188    0.0000 C   0  0  0  0  0  0  0  2  0  0  0  0
    0.3572   -0.2063    0.0000 C   0  0  0  0  0  0  0  2  0  0  0  0
   -0.3572   -0.6188    0.0000 C   0  0  0  0  0  0  0  2  0  0  0  0
   -0.3572   -1.4438    0.0000 C   0  0  0  0  0  0  0  2  0  0  0  0
   -1.0717   -1.8563    0.0000 C   0  0  0  0  0  0  0  2  0  0  0  0
   -1.7862   -1.4437    0.0000 C   0  0  0  0  0  0  0  2  0  0  0  0
   -1.7862   -0.6188    0.0000 C   0  0  0  0  0  0  0  2  0  0  0  0
   -1.0717   -0.2062    0.0000 C   0  0  0  0  0  0  0  2  0  0  0  0
    0.3572   -1.8563    0.0000 C   0  0  0  0  0  0  0  2  0  0  0  0
    1.0717   -1.4438    0.0000 C   0  0  0  0  0  0  0  2  0  0  0  0
    1.0717   -0.6188    0.0000 C   0  0  0  0  0  0  0  2  0  0  0  0
  1  2  2  0        0
  2  3  1  0        0
  2  4  1  0        0
  4  5  1  0        0
  5  6  4  0        0
  6  7  4  0        0
  7  8  4  0        0
  8  9  4  0        0
  9 10  4  0        0
 10 11  4  0        0
  6 11  4  0        0
  7 12  4  0        0
 12 13  4  0        0
 13 14  4  0        0
  5 14  4  0        0
M  END
$$$$

CDXL12

 14 15  0  0  0  0  0  0  0  0999 V2000
    1.7862    0.6187    0.0000 N   0  0  0  0  0  0  0  2  0  0  0  0
    1.0717    1.0313    0.0000 C   0  0  0  0  0  0  0  2  0  0  0  0
    1.0717    1.8563    0.0000 S   0  0  0  0  0  0  0  2  0  0  0  0
    0.3572    0.6188    0.0000 N   0  0  0  0  0  0  0  2  0  0  0  0
    0.3572   -0.2063    0.0000 C   0  0  0  0  0  0  0  2  0  0  0  0
   -0.3572   -0.6188    0.0000 C   0  0  0  0  0  0  0  2  0  0  0  0
   -0.3572   -1.4438    0.0000 C   0  0  0  0  0  0  0  2  0  0  0  0
   -1.0717   -1.8563    0.0000 C   0  0  0  0  0  0  0  2  0  0  0  0
   -1.7862   -1.4437    0.0000 C   0  0  0  0  0  0  0  2  0  0  0  0
   -1.7862   -0.6188    0.0000 C   0  0  0  0  0  0  0  2  0  0  0  0
   -1.0717   -0.2062    0.0000 C   0  0  0  0  0  0  0  2  0  0  0  0
    0.3572   -1.8563    0.0000 C   0  0  0  0  0  0  0  2  0  0  0  0
    1.0717   -1.4438    0.0000 C   0  0  0  0  0  0  0  2  0  0  0  0
    1.0717   -0.6188    0.0000 C   0  0  0  0  0  0  0  2  0  0  0  0
  1  2  1  0        0
  2  3  2  0        0
  2  4  1  0        0
  4  5  1  0        0
  5  6  4  0        0
  6  7  4  0        0
  7  8  4  0        0
  8  9  4  0        0
  9 10  4  0        0
 10 11  4  0        0
  6 11  4  0        0
  7 12  4  0        0
 12 13  4  0        0
 13 14  4  0        0
  5 14  4  0        0
M  END
$$$$

CDXL12

 16 17  0  0  0  0  0  0  0  0999 V2000
   -0.3572    1.0313    0.0000 O   0  0  0  0  0  0  0  2  0  0  0  0
   -0.3572    0.2062    0.0000 C   0  0  0  0  0  0  0  2  0  0  0  0
    0.3572   -0.2063    0.0000 N   0  0  0  0  0  0  0  2  0  0  0  0
    1.0717    0.2062    0.0000 C   0  0  0  0  0  0  0  2  0  0  0  0
    1.0717    1.0313    0.0000 C   0  0  0  0  0  0  0  2  0  0  0  0
    1.7862    1.4438    0.0000 C   0  0  0  0  0  0  0  2  0  0  0  0
    2.5006    1.0313    0.0000 C   0  0  0  0  0  0  0  2  0  0  0  0
    2.5006    0.2062    0.0000 C   0  0  0  0  0  0  0  2  0  0  0  0
    1.7862   -0.2062    0.0000 C   0  0  0  0  0  0  0  2  0  0  0  0
   -1.0717   -0.2062    0.0000 C   0  0  0  0  0  0  0  2  0  0  0  0
   -1.0717   -1.0313    0.0000 C   0  0  0  0  0  0  0  2  0  0  0  0
   -0.3572   -1.4438    0.0000 O   0  0  0  0  0  0  0  2  0  0  0  0
   -1.7862   -1.4437    0.0000 C   0  0  0  0  0  0  0  2  0  0  0  0
   -2.5006   -1.0313    0.0000 C   0  0  0  0  0  0  0  2  0  0  0  0
   -2.5006   -0.2062    0.0000 C   0  0  0  0  0  0  0  2  0  0  0  0
   -1.7862    0.2062    0.0000 C   0  0  0  0  0  0  0  2  0  0  0  0
  1  2  2  0        0
  2  3  1  0        0
  3  4  1  0        0
  4  5  4  0        0
  5  6  4  0        0
  6  7  4  0        0
  7  8  4  0        0
  8  9  4  0        0
  4  9  4  0        0
  2 10  1  0        0
 10 11  4  0        0
 11 12  1  0        0
 11 13  4  0        0
 13 14  4  0        0
 14 15  4  0        0
 15 16  4  0        0
 10 16  4  0        0
M  END
$$$$

CDXL12

 16 17  0  0  0  0  0  0  0  0999 V2000
   -2.4299    1.0402    0.0000 O   0  0  0  0  0  0  0  2  0  0  0  0
   -1.8465    1.6236    0.0000 N   0  0  0  0  0  0  0  2  0  0  0  0
   -2.1015    2.4082    0.0000 O   0  0  0  0  0  0  0  2  0  0  0  0
   -1.0396    1.4521    0.0000 O   0  0  0  0  0  0  0  2  0  0  0  0
   -0.7846    0.6674    0.0000 C   0  0  0  0  0  0  0  2  0  0  0  0
    0.0000    0.4125    0.0000 C   0  0  0  0  0  0  0  2  0  0  0  0
    0.7846    0.6674    0.0000 O   0  0  0  0  0  0  0  2  0  0  0  0
    1.2695   -0.0000    0.0000 C   0  0  0  0  0  0  0  2  0  0  0  0
    0.7846   -0.6674    0.0000 C   0  0  0  0  0  0  0  2  0  0  0  0
    1.0396   -1.4521    0.0000 O   0  0  0  0  0  0  0  2  0  0  0  0
    1.8465   -1.6236    0.0000 N   0  0  0  0  0  0  0  2  0  0  0  0
    2.1015   -2.4082    0.0000 O   0  0  0  0  0  0  0  2  0  0  0  0
    2.4299   -1.0402    0.0000 O   0  0  0  0  0  0  0  2  0  0  0  0
    0.0000   -0.4125    0.0000 C   0  0  0  0  0  0  0  2  0  0  0  0
   -0.7846   -0.6674    0.0000 O   0  0  0  0  0  0  0  2  0  0  0  0
   -1.2695   -0.0000    0.0000 C   0  0  0  0  0  0  0  2  0  0  0  0
  1  2  2  0        0
  2  3  2  0        0
  2  4  1  0        0
  4  5  1  0        0
  5  6  1  0        0
  6  7  1  0        0
  7  8  1  0        0
  8  9  1  0        0
  9 10  1  0        0
 10 11  1  0        0
 11 12  2  0        0
 11 13  2  0        0
  9 14  1  0        0
  6 14  1  0        0
 14 15  1  0        0
 15 16  1  0        0
  5 16  1  0        0
M  END
$$$$

CDXL12

 10 11  0  0  0  0  0  0  0  0999 V2000
    1.1193    1.1385    0.0000 O   0  0  0  0  0  0  0  2  0  0  0  0
    0.8643    0.3539    0.0000 C   0  0  0  0  0  0  0  2  0  0  0  0
    1.3492   -0.3135    0.0000 O   0  0  0  0  0  0  0  2  0  0  0  0
    0.8643   -0.9810    0.0000 C   0  0  0  0  0  0  0  2  0  0  0  0
    0.0797   -0.7260    0.0000 C   0  0  0  0  0  0  0  2  0  0  0  0
   -0.6348   -1.1385    0.0000 C   0  0  0  0  0  0  0  2  0  0  0  0
   -1.3492   -0.7260    0.0000 C   0  0  0  0  0  0  0  2  0  0  0  0
   -1.3492    0.0990    0.0000 C   0  0  0  0  0  0  0  2  0  0  0  0
   -0.6348    0.5115    0.0000 C   0  0  0  0  0  0  0  2  0  0  0  0
    0.0797    0.0990    0.0000 C   0  0  0  0  0  0  0  2  0  0  0  0
  1  2  2  0        0
  2  3  1  0        0
  3  4  1  0        0
  4  5  1  0        0
  5  6  4  0        0
  6  7  4  0        0
  7  8  4  0        0
  8  9  4  0        0
  9 10  4  0        0
  2 10  1  0        0
  5 10  4  0        0
M  END
$$$$

CDXL12

 18 19  0  0  0  0  0  0  0  0999 V2000
   -1.6551   -0.7321    0.0000 C   0  0  0  0  0  0  0  2  0  0  0  0
   -1.6551    0.0929    0.0000 N   0  0  0  0  0  0  0  2  0  0  0  0
   -2.3696    0.5054    0.0000 C   0  0  0  0  0  0  0  2  0  0  0  0
   -0.9407    0.5054    0.0000 C   0  0  0  0  0  0  0  2  0  0  0  0
   -0.9407    1.3304    0.0000 O   0  0  0  0  0  0  0  2  0  0  0  0
   -0.2262    0.0929    0.0000 O   0  0  0  0  0  0  0  2  0  0  0  0
    0.4883    0.5054    0.0000 C   0  0  0  0  0  0  0  2  0  0  0  0
    0.5745    1.3259    0.0000 C   0  0  0  0  0  0  0  2  0  0  0  0
    1.3815    1.4974    0.0000 C   0  0  0  0  0  0  0  2  0  0  0  0
    1.7170    2.2511    0.0000 C   0  0  0  0  0  0  0  2  0  0  0  0
    1.7940    0.7829    0.0000 N   0  0  0  0  0  0  0  2  0  0  0  0
    1.2419    0.1698    0.0000 N   0  0  0  0  0  0  0  2  0  0  0  0
    1.4135   -0.6371    0.0000 C   0  0  0  0  0  0  0  2  0  0  0  0
    0.8004   -1.1892    0.0000 C   0  0  0  0  0  0  0  2  0  0  0  0
    0.9719   -1.9961    0.0000 C   0  0  0  0  0  0  0  2  0  0  0  0
    1.7565   -2.2511    0.0000 C   0  0  0  0  0  0  0  2  0  0  0  0
    2.3696   -1.6990    0.0000 C   0  0  0  0  0  0  0  2  0  0  0  0
    2.1981   -0.8921    0.0000 C   0  0  0  0  0  0  0  2  0  0  0  0
  1  2  1  0        0
  2  3  1  0        0
  2  4  1  0        0
  4  5  2  0        0
  4  6  1  0        0
  6  7  1  0        0
  7  8  4  0        0
  8  9  4  0        0
  9 10  1  0        0
  9 11  4  0        0
 11 12  4  0        0
  7 12  4  0        0
 12 13  1  0        0
 13 14  4  0        0
 14 15  4  0        0
 15 16  4  0        0
 16 17  4  0        0
 17 18  4  0        0
 13 18  4  0        0
M  END
$$$$

CDXL12

 13 14  0  0  0  0  0  0  0  0999 V2000
    1.6167   -1.6166    0.0000 O   0  0  0  0  0  0  0  2  0  0  0  0
    1.3617   -0.8320    0.0000 C   0  0  0  0  0  0  0  2  0  0  0  0
    1.9138   -0.2189    0.0000 O   0  0  0  0  0  0  0  2  0  0  0  0
    0.5547   -0.6605    0.0000 C   0  0  0  0  0  0  0  2  0  0  0  0
    0.2998    0.1242    0.0000 C   0  0  0  0  0  0  0  2  0  0  0  0
   -0.4848    0.3791    0.0000 C   0  0  0  0  0  0  0  2  0  0  0  0
   -0.4848    1.2041    0.0000 C   0  0  0  0  0  0  0  2  0  0  0  0
    0.2998    1.4590    0.0000 N   0  0  0  0  0  0  0  2  0  0  0  0
    0.7847    0.7916    0.0000 C   0  0  0  0  0  0  0  2  0  0  0  0
   -1.1993    1.6166    0.0000 C   0  0  0  0  0  0  0  2  0  0  0  0
   -1.9138    1.2041    0.0000 C   0  0  0  0  0  0  0  2  0  0  0  0
   -1.9138    0.3791    0.0000 C   0  0  0  0  0  0  0  2  0  0  0  0
   -1.1993   -0.0334    0.0000 C   0  0  0  0  0  0  0  2  0  0  0  0
  1  2  2  0        0
  2  3  1  0        0
  2  4  1  0        0
  4  5  1  0        0
  5  6  4  0        0
  6  7  4  0        0
  7  8  4  0        0
  8  9  4  0        0
  5  9  4  0        0
  7 10  4  0        0
 10 11  4  0        0
 11 12  4  0        0
 12 13  4  0        0
  6 13  4  0        0
M  END
$$$$

CDXL12

  9  9  0  0  0  0  0  0  0  0999 V2000
   -0.3572    0.4125    0.0000 C   0  0  0  0  0  0  0  2  0  0  0  0
    0.3572    0.0000    0.0000 C   0  0  0  0  0  0  0  2  0  0  0  0
    0.3572   -0.8250    0.0000 C   0  0  0  0  0  0  0  2  0  0  0  0
   -0.3572   -1.2375    0.0000 C   0  0  0  0  0  0  0  2  0  0  0  0
   -1.0717   -0.8250    0.0000 C   0  0  0  0  0  0  0  2  0  0  0  0
   -1.0717    0.0000    0.0000 C   0  0  0  0  0  0  0  2  0  0  0  0
    1.0717   -1.2375    0.0000 Cl  0  0  0  0  0  0  0  2  0  0  0  0
    1.0717    0.4125    0.0000 Cl  0  0  0  0  0  0  0  2  0  0  0  0
   -0.3572    1.2375    0.0000 Cl  0  0  0  0  0  0  0  2  0  0  0  0
  1  2  4  0        0
  2  3  4  0        0
  3  4  4  0        0
  4  5  4  0        0
  5  6  4  0        0
  1  6  4  0        0
  3  7  1  0        0
  2  8  1  0        0
  1  9  1  0        0
M  END
$$$$

CDXL12

  9  9  0  0  0  0  0  0  0  0999 V2000
    1.0717    0.4125    0.0000 N   0  0  0  0  0  0  0  2  0  0  0  0
    0.3572    0.0000    0.0000 C   0  0  0  0  0  0  0  2  0  0  0  0
    0.3572   -0.8250    0.0000 C   0  0  0  0  0  0  0  2  0  0  0  0
   -0.3572   -1.2375    0.0000 C   0  0  0  0  0  0  0  2  0  0  0  0
   -1.0717   -0.8250    0.0000 C   0  0  0  0  0  0  0  2  0  0  0  0
   -1.0717    0.0000    0.0000 C   0  0  0  0  0  0  0  2  0  0  0  0
   -0.3572    0.4125    0.0000 C   0  0  0  0  0  0  0  2  0  0  0  0
   -0.3572    1.2375    0.0000 C   0  0  0  0  0  0  0  2  0  0  0  0
    1.0717   -1.2375    0.0000 C   0  0  0  0  0  0  0  2  0  0  0  0
  1  2  1  0        0
  2  3  4  0        0
  3  4  4  0        0
  4  5  4  0        0
  5  6  4  0        0
  6  7  4  0        0
  2  7  4  0        0
  7  8  1  0        0
  3  9  1  0        0
M  END
$$$$

CDXL12

  9  9  0  0  0  0  0  0  0  0999 V2000
    1.0717    0.4125    0.0000 O   0  0  0  0  0  0  0  2  0  0  0  0
    0.3572    0.0000    0.0000 C   0  0  0  0  0  0  0  2  0  0  0  0
    0.3572   -0.8250    0.0000 C   0  0  0  0  0  0  0  2  0  0  0  0
   -0.3572   -1.2375    0.0000 C   0  0  0  0  0  0  0  2  0  0  0  0
   -1.0717   -0.8250    0.0000 C   0  0  0  0  0  0  0  2  0  0  0  0
   -1.0717    0.0000    0.0000 C   0  0  0  0  0  0  0  2  0  0  0  0
   -0.3572    0.4125    0.0000 C   0  0  0  0  0  0  0  2  0  0  0  0
   -0.3572    1.2375    0.0000 Cl  0  0  0  0  0  0  0  2  0  0  0  0
    1.0717   -1.2375    0.0000 Cl  0  0  0  0  0  0  0  2  0  0  0  0
  1  2  1  0        0
  2  3  4  0        0
  3  4  4  0        0
  4  5  4  0        0
  5  6  4  0        0
  6  7  4  0        0
  2  7  4  0        0
  7  8  1  0        0
  3  9  1  0        0
M  END
$$$$

CDXL12

 10  9  0  0  0  0  0  0  0  0999 V2000
    1.0717    0.2062    0.0000 C   0  0  0  0  0  0  0  2  0  0  0  0
    0.3572   -0.2062    0.0000 C   0  0  0  0  0  0  0  2  0  0  0  0
   -0.3572    0.2062    0.0000 C   0  0  0  0  0  0  0  2  0  0  0  0
   -1.0717   -0.2062    0.0000 C   0  0  0  0  0  0  0  2  0  0  0  0
   -1.0717   -1.0313    0.0000 Cl  0  0  0  0  0  0  0  2  0  0  0  0
   -1.7862    0.2062    0.0000 Cl  0  0  0  0  0  0  0  2  0  0  0  0
   -0.3572    1.0313    0.0000 Cl  0  0  0  0  0  0  0  2  0  0  0  0
    0.3572   -1.0313    0.0000 Cl  0  0  0  0  0  0  0  2  0  0  0  0
    1.0717    1.0313    0.0000 Cl  0  0  0  0  0  0  0  2  0  0  0  0
    1.7862   -0.2062    0.0000 Cl  0  0  0  0  0  0  0  2  0  0  0  0
  1  2  2  0        0
  2  3  1  0        0
  3  4  2  0        0
  4  5  1  0        0
  4  6  1  0        0
  3  7  1  0        0
  2  8  1  0        0
  1  9  1  0        0
  1 10  1  0        0
M  END
$$$$

CDXL12

 10  9  0  0  0  0  0  0  0  0999 V2000
    1.0717    1.0313    0.0000 O   0  0  0  0  0  0  0  2  0  0  0  0
    1.0717    0.2062    0.0000 C   0  0  0  0  0  0  0  2  0  0  0  0
    1.7862   -0.2062    0.0000 O   0  0  0  0  0  0  0  2  0  0  0  0
    0.3572   -0.2062    0.0000 C   0  0  0  0  0  0  0  2  0  0  0  0
    0.3572   -1.0313    0.0000 O   0  0  0  0  0  0  0  2  0  0  0  0
   -0.3572    0.2062    0.0000 C   0  0  0  0  0  0  0  2  0  0  0  0
   -0.3572    1.0313    0.0000 O   0  0  0  0  0  0  0  2  0  0  0  0
   -1.0717   -0.2062    0.0000 C   0  0  0  0  0  0  0  2  0  0  0  0
   -1.0717   -1.0313    0.0000 O   0  0  0  0  0  0  0  2  0  0  0  0
   -1.7862    0.2062    0.0000 O   0  0  0  0  0  0  0  2  0  0  0  0
  1  2  2  0        0
  2  3  1  0        0
  2  4  1  0        0
  4  5  1  0        0
  4  6  1  0        0
  6  7  1  0        0
  6  8  1  0        0
  8  9  2  0        0
  8 10  1  0        0
M  END
$$$$

CDXL12

 12 12  0  0  0  0  0  0  0  0999 V2000
    0.7145   -0.4125    0.0000 C   0  0  0  0  0  0  0  2  0  0  0  0
    0.0000   -0.8250    0.0000 C   0  0  0  0  0  0  0  2  0  0  0  0
   -0.7145   -0.4125    0.0000 C   0  0  0  0  0  0  0  2  0  0  0  0
   -0.7145    0.4125    0.0000 C   0  0  0  0  0  0  0  2  0  0  0  0
    0.0000    0.8250    0.0000 C   0  0  0  0  0  0  0  2  0  0  0  0
    0.0000    1.6500    0.0000 Br  0  0  0  0  0  0  0  2  0  0  0  0
    0.7145    0.4125    0.0000 C   0  0  0  0  0  0  0  2  0  0  0  0
    1.4289    0.8250    0.0000 Br  0  0  0  0  0  0  0  2  0  0  0  0
   -1.4289    0.8250    0.0000 Br  0  0  0  0  0  0  0  2  0  0  0  0
   -1.4289   -0.8250    0.0000 Br  0  0  0  0  0  0  0  2  0  0  0  0
    0.0000   -1.6500    0.0000 Br  0  0  0  0  0  0  0  2  0  0  0  0
    1.4289   -0.8250    0.0000 Br  0  0  0  0  0  0  0  2  0  0  0  0
  1  2  4  0        0
  2  3  4  0        0
  3  4  4  0        0
  4  5  4  0        0
  5  6  1  0        0
  5  7  4  0        0
  1  7  4  0        0
  7  8  1  0        0
  4  9  1  0        0
  3 10  1  0        0
  2 11  1  0        0
  1 12  1  0        0
M  END
$$$$

CDXL12

 12 12  0  0  0  0  0  0  0  0999 V2000
    0.7145   -0.4125    0.0000 C   0  0  0  0  0  0  0  2  0  0  0  0
    0.0000   -0.8250    0.0000 C   0  0  0  0  0  0  0  2  0  0  0  0
   -0.7145   -0.4125    0.0000 C   0  0  0  0  0  0  0  2  0  0  0  0
   -0.7145    0.4125    0.0000 C   0  0  0  0  0  0  0  2  0  0  0  0
    0.0000    0.8250    0.0000 C   0  0  0  0  0  0  0  2  0  0  0  0
    0.0000    1.6500    0.0000 C   0  0  0  0  0  0  0  2  0  0  0  0
    0.7145    0.4125    0.0000 C   0  0  0  0  0  0  0  2  0  0  0  0
    1.4289    0.8250    0.0000 C   0  0  0  0  0  0  0  2  0  0  0  0
   -1.4289    0.8250    0.0000 C   0  0  0  0  0  0  0  2  0  0  0  0
   -1.4289   -0.8250    0.0000 C   0  0  0  0  0  0  0  2  0  0  0  0
    0.0000   -1.6500    0.0000 C   0  0  0  0  0  0  0  2  0  0  0  0
    1.4289   -0.8250    0.0000 C   0  0  0  0  0  0  0  2  0  0  0  0
  1  2  4  0        0
  2  3  4  0        0
  3  4  4  0        0
  4  5  4  0        0
  5  6  1  0        0
  5  7  4  0        0
  1  7  4  0        0
  7  8  1  0        0
  4  9  1  0        0
  3 10  1  0        0
  2 11  1  0        0
  1 12  1  0        0
M  END
$$$$

CDXL12

 12 12  0  0  0  0  0  0  0  0999 V2000
    1.4289   -0.8250    0.0000 O   0  0  0  0  0  0  0  2  0  0  0  0
    0.7145   -0.4125    0.0000 C   0  0  0  0  0  0  0  2  0  0  0  0
    0.0000   -0.8250    0.0000 C   0  0  0  0  0  0  0  2  0  0  0  0
   -0.7145   -0.4125    0.0000 C   0  0  0  0  0  0  0  2  0  0  0  0
   -0.7145    0.4125    0.0000 C   0  0  0  0  0  0  0  2  0  0  0  0
    0.0000    0.8250    0.0000 C   0  0  0  0  0  0  0  2  0  0  0  0
    0.0000    1.6500    0.0000 Cl  0  0  0  0  0  0  0  2  0  0  0  0
    0.7145    0.4125    0.0000 C   0  0  0  0  0  0  0  2  0  0  0  0
    1.4289    0.8250    0.0000 Cl  0  0  0  0  0  0  0  2  0  0  0  0
   -1.4289    0.8250    0.0000 Cl  0  0  0  0  0  0  0  2  0  0  0  0
   -1.4289   -0.8250    0.0000 Cl  0  0  0  0  0  0  0  2  0  0  0  0
    0.0000   -1.6500    0.0000 Cl  0  0  0  0  0  0  0  2  0  0  0  0
  1  2  1  0        0
  2  3  4  0        0
  3  4  4  0        0
  4  5  4  0        0
  5  6  4  0        0
  6  7  1  0        0
  6  8  4  0        0
  2  8  4  0        0
  8  9  1  0        0
  5 10  1  0        0
  4 11  1  0        0
  3 12  1  0        0
M  END
$$$$

CDXL12

 12 12  0  0  0  0  0  0  0  0999 V2000
    1.4289   -0.8250    0.0000 O   0  0  0  0  0  0  0  2  0  0  0  0
    0.7145   -0.4125    0.0000 C   0  0  0  0  0  0  0  2  0  0  0  0
    0.0000   -0.8250    0.0000 C   0  0  0  0  0  0  0  2  0  0  0  0
    0.0000   -1.6500    0.0000 O   0  0  0  0  0  0  0  2  0  0  0  0
   -0.7145   -0.4125    0.0000 C   0  0  0  0  0  0  0  2  0  0  0  0
   -1.4289   -0.8250    0.0000 O   0  0  0  0  0  0  0  2  0  0  0  0
   -0.7145    0.4125    0.0000 C   0  0  0  0  0  0  0  2  0  0  0  0
   -1.4289    0.8250    0.0000 O   0  0  0  0  0  0  0  2  0  0  0  0
    0.0000    0.8250    0.0000 C   0  0  0  0  0  0  0  2  0  0  0  0
    0.0000    1.6500    0.0000 O   0  0  0  0  0  0  0  2  0  0  0  0
    0.7145    0.4125    0.0000 C   0  0  0  0  0  0  0  2  0  0  0  0
    1.4289    0.8250    0.0000 O   0  0  0  0  0  0  0  2  0  0  0  0
  1  2  1  0        0
  2  3  1  0        0
  3  4  1  0        0
  3  5  1  0        0
  5  6  1  0        0
  5  7  1  0        0
  7  8  1  0        0
  7  9  1  0        0
  9 10  1  0        0
  9 11  1  0        0
  2 11  1  0        0
 11 12  1  0        0
M  END
$$$$

CDXL12

 12 12  0  0  0  0  0  0  0  0999 V2000
    1.4289   -0.8250    0.0000 O   0  0  0  0  0  0  0  2  0  0  0  0
    0.7145   -0.4125    0.0000 C   0  0  0  0  0  0  0  2  0  0  0  0
    0.0000   -0.8250    0.0000 N   0  0  0  0  0  0  0  2  0  0  0  0
   -0.7145   -0.4125    0.0000 C   0  0  0  0  0  0  0  2  0  0  0  0
   -1.4289   -0.8250    0.0000 O   0  0  0  0  0  0  0  2  0  0  0  0
   -0.7145    0.4125    0.0000 N   0  0  0  0  0  0  0  2  0  0  0  0
    0.0000    0.8250    0.0000 C   0  0  0  0  0  0  0  2  0  0  0  0
    0.0000    1.6500    0.0000 O   0  0  0  0  0  0  0  2  0  0  0  0
    0.7145    0.4125    0.0000 N   0  0  0  0  0  0  0  2  0  0  0  0
    1.4289    0.8250    0.0000 Cl  0  0  0  0  0  0  0  2  0  0  0  0
   -1.4289    0.8250    0.0000 Cl  0  0  0  0  0  0  0  2  0  0  0  0
    0.0000   -1.6500    0.0000 Cl  0  0  0  0  0  0  0  2  0  0  0  0
  1  2  2  0        0
  2  3  1  0        0
  3  4  1  0        0
  4  5  2  0        0
  4  6  1  0        0
  6  7  1  0        0
  7  8  2  0        0
  7  9  1  0        0
  2  9  1  0        0
  9 10  1  0        0
  6 11  1  0        0
  3 12  1  0        0
M  END
$$$$

CDXL12

 10 10  0  0  0  0  0  0  0  0999 V2000
   -1.4289   -1.2375    0.0000 O   0  0  0  0  0  0  0  2  0  0  0  0
   -0.7145   -0.8250    0.0000 C   0  0  0  0  0  0  0  2  0  0  0  0
   -0.7145    0.0000    0.0000 C   0  0  0  0  0  0  0  2  0  0  0  0
    0.0000    0.4125    0.0000 C   0  0  0  0  0  0  0  2  0  0  0  0
    0.7145   -0.0000    0.0000 C   0  0  0  0  0  0  0  2  0  0  0  0
    0.7145   -0.8250    0.0000 C   0  0  0  0  0  0  0  2  0  0  0  0
    1.4289   -1.2375    0.0000 C   0  0  0  0  0  0  0  2  0  0  0  0
    0.0000   -1.2375    0.0000 C   0  0  0  0  0  0  0  2  0  0  0  0
    1.4289    0.4125    0.0000 Cl  0  0  0  0  0  0  0  2  0  0  0  0
    0.0000    1.2375    0.0000 C   0  0  0  0  0  0  0  2  0  0  0  0
  1  2  1  0        0
  2  3  4  0        0
  3  4  4  0        0
  4  5  4  0        0
  5  6  4  0        0
  6  7  1  0        0
  6  8  4  0        0
  2  8  4  0        0
  5  9  1  0        0
  4 10  1  0        0
M  END
$$$$

CDXL12

 10 10  0  0  0  0  0  0  0  0999 V2000
    1.4289    0.4125    0.0000 O   0  0  0  0  0  0  0  2  0  0  0  0
    0.7145    0.0000    0.0000 C   0  0  0  0  0  0  0  2  0  0  0  0
    0.7145   -0.8250    0.0000 C   0  0  0  0  0  0  0  2  0  0  0  0
    0.0000   -1.2375    0.0000 C   0  0  0  0  0  0  0  2  0  0  0  0
   -0.7145   -0.8250    0.0000 C   0  0  0  0  0  0  0  2  0  0  0  0
   -0.7145    0.0000    0.0000 C   0  0  0  0  0  0  0  2  0  0  0  0
    0.0000    0.4125    0.0000 C   0  0  0  0  0  0  0  2  0  0  0  0
    0.0000    1.2375    0.0000 Cl  0  0  0  0  0  0  0  2  0  0  0  0
   -1.4289   -1.2375    0.0000 Cl  0  0  0  0  0  0  0  2  0  0  0  0
    1.4289   -1.2375    0.0000 Cl  0  0  0  0  0  0  0  2  0  0  0  0
  1  2  1  0        0
  2  3  4  0        0
  3  4  4  0        0
  4  5  4  0        0
  5  6  4  0        0
  6  7  4  0        0
  2  7  4  0        0
  7  8  1  0        0
  5  9  1  0        0
  3 10  1  0        0
M  END
$$$$

CDXL12

  8  7  0  0  0  0  0  0  0  0999 V2000
    0.7145    1.2375    0.0000 O   0  0  0  0  0  0  0  2  0  0  0  0
    0.7145    0.4125    0.0000 C   0  0  0  0  0  0  0  2  0  0  0  0
    1.4289   -0.0000    0.0000 O   0  0  0  0  0  0  0  2  0  0  0  0
    0.0000   -0.0000    0.0000 C   0  0  0  0  0  0  0  2  0  0  0  0
   -0.7145    0.4125    0.0000 C   0  0  0  0  0  0  0  2  0  0  0  0
   -1.4289   -0.0000    0.0000 C   0  0  0  0  0  0  0  2  0  0  0  0
    0.0000   -0.8250    0.0000 C   0  0  0  0  0  0  0  2  0  0  0  0
    0.7145   -1.2375    0.0000 C   0  0  0  0  0  0  0  2  0  0  0  0
  1  2  2  0        0
  2  3  1  0        0
  2  4  1  0        0
  4  5  1  0        0
  5  6  1  0        0
  4  7  1  0        0
  7  8  1  0        0
M  END
$$$$

CDXL12

  8  8  0  0  0  0  0  0  0  0999 V2000
    0.6529    1.1148    0.0000 O   0  0  0  0  0  0  0  2  0  0  0  0
    0.6529    0.2898    0.0000 C   0  0  0  0  0  0  0  2  0  0  0  0
    1.3673   -0.1227    0.0000 O   0  0  0  0  0  0  0  2  0  0  0  0
   -0.0616   -0.1227    0.0000 C   0  0  0  0  0  0  0  2  0  0  0  0
   -0.8153    0.2128    0.0000 O   0  0  0  0  0  0  0  2  0  0  0  0
   -1.3673   -0.4003    0.0000 C   0  0  0  0  0  0  0  2  0  0  0  0
   -0.9548   -1.1148    0.0000 C   0  0  0  0  0  0  0  2  0  0  0  0
   -0.1479   -0.9432    0.0000 C   0  0  0  0  0  0  0  2  0  0  0  0
  1  2  2  0        0
  2  3  1  0        0
  2  4  1  0        0
  4  5  4  0        0
  5  6  4  0        0
  6  7  4  0        0
  7  8  4  0        0
  4  8  4  0        0
M  END
$$$$

CDXL12

 11 11  0  0  0  0  0  0  0  0999 V2000
    1.1270   -0.2467    0.0000 O   0  0  0  0  0  0  0  2  0  0  0  0
    0.7145    0.4678    0.0000 S   0  0  0  0  0  0  0  2  0  0  0  0
    0.3020    1.1822    0.0000 O   0  0  0  0  0  0  0  2  0  0  0  0
    1.4289    0.8803    0.0000 N   0  0  0  0  0  0  0  2  0  0  0  0
    0.0000    0.0553    0.0000 C   0  0  0  0  0  0  0  2  0  0  0  0
    0.0000   -0.7697    0.0000 C   0  0  0  0  0  0  0  2  0  0  0  0
   -0.7145   -1.1822    0.0000 C   0  0  0  0  0  0  0  2  0  0  0  0
   -1.4289   -0.7697    0.0000 C   0  0  0  0  0  0  0  2  0  0  0  0
   -1.4289    0.0553    0.0000 C   0  0  0  0  0  0  0  2  0  0  0  0
   -0.7145    0.4678    0.0000 C   0  0  0  0  0  0  0  2  0  0  0  0
    0.7145   -1.1822    0.0000 C   0  0  0  0  0  0  0  2  0  0  0  0
  1  2  2  0        0
  2  3  2  0        0
  2  4  1  0        0
  2  5  1  0        0
  5  6  4  0        0
  6  7  4  0        0
  7  8  4  0        0
  8  9  4  0        0
  9 10  4  0        0
  5 10  4  0        0
  6 11  1  0        0
M  END
$$$$

CDXL12

 11 11  0  0  0  0  0  0  0  0999 V2000
    1.1270   -0.2467    0.0000 O   0  0  0  0  0  0  0  2  0  0  0  0
    0.7145    0.4678    0.0000 S   0  0  0  0  0  0  0  2  0  0  0  0
    0.3020    1.1822    0.0000 O   0  0  0  0  0  0  0  2  0  0  0  0
    1.4289    0.8803    0.0000 O   0  0  0  0  0  0  0  2  0  0  0  0
    0.0000    0.0553    0.0000 C   0  0  0  0  0  0  0  2  0  0  0  0
    0.0000   -0.7697    0.0000 C   0  0  0  0  0  0  0  2  0  0  0  0
    0.7145   -1.1822    0.0000 N   0  0  0  0  0  0  0  2  0  0  0  0
   -0.7145   -1.1822    0.0000 C   0  0  0  0  0  0  0  2  0  0  0  0
   -1.4289   -0.7697    0.0000 C   0  0  0  0  0  0  0  2  0  0  0  0
   -1.4289    0.0553    0.0000 C   0  0  0  0  0  0  0  2  0  0  0  0
   -0.7145    0.4678    0.0000 C   0  0  0  0  0  0  0  2  0  0  0  0
  1  2  2  0        0
  2  3  2  0        0
  2  4  1  0        0
  2  5  1  0        0
  5  6  4  0        0
  6  7  1  0        0
  6  8  4  0        0
  8  9  4  0        0
  9 10  4  0        0
 10 11  4  0        0
  5 11  4  0        0
M  END
$$$$

CDXL12

 14 14  0  0  0  0  0  0  0  0999 V2000
    1.7862   -0.8250    0.0000 O   0  0  0  0  0  0  0  2  0  0  0  0
    1.0717   -0.4125    0.0000 C   0  0  0  0  0  0  0  2  0  0  0  0
    1.0717    0.4125    0.0000 C   0  0  0  0  0  0  0  2  0  0  0  0
    0.3572    0.8250    0.0000 C   0  0  0  0  0  0  0  2  0  0  0  0
   -0.3572    0.4125    0.0000 C   0  0  0  0  0  0  0  2  0  0  0  0
   -1.0717    0.8250    0.0000 N   0  0  0  0  0  0  0  2  0  0  0  0
   -1.0717    1.6500    0.0000 O   0  0  0  0  0  0  0  2  0  0  0  0
   -1.7862    0.4125    0.0000 O   0  0  0  0  0  0  0  2  0  0  0  0
   -0.3572   -0.4125    0.0000 C   0  0  0  0  0  0  0  2  0  0  0  0
    0.3572   -0.8250    0.0000 C   0  0  0  0  0  0  0  2  0  0  0  0
   -1.0717   -0.8250    0.0000 C   0  0  0  0  0  0  0  2  0  0  0  0
   -1.7862   -1.2375    0.0000 F   0  0  0  0  0  0  0  2  0  0  0  0
   -1.0717   -1.6500    0.0000 F   0  0  0  0  0  0  0  2  0  0  0  0
   -1.7862   -0.4125    0.0000 F   0  0  0  0  0  0  0  2  0  0  0  0
  1  2  1  0        0
  2  3  4  0        0
  3  4  4  0        0
  4  5  4  0        0
  5  6  1  0        0
  6  7  2  0        0
  6  8  2  0        0
  5  9  4  0        0
  9 10  4  0        0
  2 10  4  0        0
  9 11  1  0        0
 11 12  1  0        0
 11 13  1  0        0
 11 14  1  0        0
M  END
$$$$

CDXL12

 12 12  0  0  0  0  0  0  0  0999 V2000
    1.7862    0.8803    0.0000 O   0  0  0  0  0  0  0  2  0  0  0  0
    1.0717    0.4678    0.0000 S   0  0  0  0  0  0  0  2  0  0  0  0
    1.4842   -0.2467    0.0000 O   0  0  0  0  0  0  0  2  0  0  0  0
    0.6592    1.1822    0.0000 O   0  0  0  0  0  0  0  2  0  0  0  0
    0.3572    0.0553    0.0000 C   0  0  0  0  0  0  0  2  0  0  0  0
   -0.3572    0.4678    0.0000 C   0  0  0  0  0  0  0  2  0  0  0  0
   -1.0717    0.0553    0.0000 C   0  0  0  0  0  0  0  2  0  0  0  0
   -1.7862    0.4678    0.0000 N   0  0  0  0  0  0  0  2  0  0  0  0
   -1.0717   -0.7697    0.0000 C   0  0  0  0  0  0  0  2  0  0  0  0
   -0.3572   -1.1822    0.0000 C   0  0  0  0  0  0  0  2  0  0  0  0
    0.3572   -0.7697    0.0000 C   0  0  0  0  0  0  0  2  0  0  0  0
    1.0717   -1.1822    0.0000 Cl  0  0  0  0  0  0  0  2  0  0  0  0
  1  2  1  0        0
  2  3  2  0        0
  2  4  2  0        0
  2  5  1  0        0
  5  6  4  0        0
  6  7  4  0        0
  7  8  1  0        0
  7  9  4  0        0
  9 10  4  0        0
 10 11  4  0        0
  5 11  4  0        0
 11 12  1  0        0
M  END
$$$$

CDXL12

 10 10  0  0  0  0  0  0  0  0999 V2000
    0.7145    1.2375    0.0000 O   0  0  0  0  0  0  0  2  0  0  0  0
    0.7145    0.4125    0.0000 C   0  0  0  0  0  0  0  2  0  0  0  0
    1.4289   -0.0000    0.0000 O   0  0  0  0  0  0  0  2  0  0  0  0
    0.0000   -0.0000    0.0000 C   0  0  0  0  0  0  0  2  0  0  0  0
    0.0000   -0.8250    0.0000 C   0  0  0  0  0  0  0  2  0  0  0  0
   -0.7145   -1.2375    0.0000 C   0  0  0  0  0  0  0  2  0  0  0  0
   -1.4289   -0.8250    0.0000 C   0  0  0  0  0  0  0  2  0  0  0  0
   -1.4289    0.0000    0.0000 C   0  0  0  0  0  0  0  2  0  0  0  0
   -0.7145    0.4125    0.0000 C   0  0  0  0  0  0  0  2  0  0  0  0
    0.7145   -1.2375    0.0000 Br  0  0  0  0  0  0  0  2  0  0  0  0
  1  2  2  0        0
  2  3  1  0        0
  2  4  1  0        0
  4  5  4  0        0
  5  6  4  0        0
  6  7  4  0        0
  7  8  4  0        0
  8  9  4  0        0
  4  9  4  0        0
  5 10  1  0        0
M  END
$$$$

CDXL12

 10 10  0  0  0  0  0  0  0  0999 V2000
    0.7145    1.2375    0.0000 O   0  0  0  0  0  0  0  2  0  0  0  0
    0.7145    0.4125    0.0000 C   0  0  0  0  0  0  0  2  0  0  0  0
    1.4289   -0.0000    0.0000 O   0  0  0  0  0  0  0  2  0  0  0  0
    0.0000   -0.0000    0.0000 C   0  0  0  0  0  0  0  2  0  0  0  0
    0.0000   -0.8250    0.0000 C   0  0  0  0  0  0  0  2  0  0  0  0
   -0.7145   -1.2375    0.0000 C   0  0  0  0  0  0  0  2  0  0  0  0
   -1.4289   -0.8250    0.0000 C   0  0  0  0  0  0  0  2  0  0  0  0
   -1.4289    0.0000    0.0000 C   0  0  0  0  0  0  0  2  0  0  0  0
   -0.7145    0.4125    0.0000 C   0  0  0  0  0  0  0  2  0  0  0  0
    0.7145   -1.2375    0.0000 I   0  0  0  0  0  0  0  2  0  0  0  0
  1  2  2  0        0
  2  3  1  0        0
  2  4  1  0        0
  4  5  4  0        0
  5  6  4  0        0
  6  7  4  0        0
  7  8  4  0        0
  8  9  4  0        0
  4  9  4  0        0
  5 10  1  0        0
M  END
$$$$

CDXL12

 10 10  0  0  0  0  0  0  0  0999 V2000
    0.7145    1.2375    0.0000 O   0  0  0  0  0  0  0  2  0  0  0  0
    0.7145    0.4125    0.0000 C   0  0  0  0  0  0  0  2  0  0  0  0
    1.4289   -0.0000    0.0000 N   0  0  0  0  0  0  0  2  0  0  0  0
    0.0000   -0.0000    0.0000 C   0  0  0  0  0  0  0  2  0  0  0  0
    0.0000   -0.8250    0.0000 C   0  0  0  0  0  0  0  2  0  0  0  0
    0.7145   -1.2375    0.0000 N   0  0  0  0  0  0  0  2  0  0  0  0
   -0.7145   -1.2375    0.0000 C   0  0  0  0  0  0  0  2  0  0  0  0
   -1.4289   -0.8250    0.0000 C   0  0  0  0  0  0  0  2  0  0  0  0
   -1.4289    0.0000    0.0000 C   0  0  0  0  0  0  0  2  0  0  0  0
   -0.7145    0.4125    0.0000 C   0  0  0  0  0  0  0  2  0  0  0  0
  1  2  2  0        0
  2  3  1  0        0
  2  4  1  0        0
  4  5  4  0        0
  5  6  1  0        0
  5  7  4  0        0
  7  8  4  0        0
  8  9  4  0        0
  9 10  4  0        0
  4 10  4  0        0
M  END
$$$$

CDXL12

 10 10  0  0  0  0  0  0  0  0999 V2000
   -0.7145    1.2375    0.0000 O   0  0  0  0  0  0  0  2  0  0  0  0
   -0.7145    0.4125    0.0000 N   0  0  0  0  0  0  0  2  0  0  0  0
   -1.4289   -0.0000    0.0000 O   0  0  0  0  0  0  0  2  0  0  0  0
    0.0000   -0.0000    0.0000 C   0  0  0  0  0  0  0  2  0  0  0  0
    0.0000   -0.8250    0.0000 C   0  0  0  0  0  0  0  2  0  0  0  0
    0.7145   -1.2375    0.0000 C   0  0  0  0  0  0  0  2  0  0  0  0
    1.4289   -0.8250    0.0000 C   0  0  0  0  0  0  0  2  0  0  0  0
    1.4289    0.0000    0.0000 C   0  0  0  0  0  0  0  2  0  0  0  0
    0.7145    0.4125    0.0000 C   0  0  0  0  0  0  0  2  0  0  0  0
   -0.7145   -1.2375    0.0000 C   0  0  0  0  0  0  0  2  0  0  0  0
  1  2  2  0        0
  2  3  2  0        0
  2  4  1  0        0
  4  5  4  0        0
  5  6  4  0        0
  6  7  4  0        0
  7  8  4  0        0
  8  9  4  0        0
  4  9  4  0        0
  5 10  1  0        0
M  END
$$$$

CDXL12

 10 10  0  0  0  0  0  0  0  0999 V2000
   -0.7145    1.2375    0.0000 O   0  0  0  0  0  0  0  2  0  0  0  0
   -0.7145    0.4125    0.0000 N   0  0  0  0  0  0  0  2  0  0  0  0
   -1.4289   -0.0000    0.0000 O   0  0  0  0  0  0  0  2  0  0  0  0
    0.0000   -0.0000    0.0000 C   0  0  0  0  0  0  0  2  0  0  0  0
    0.0000   -0.8250    0.0000 C   0  0  0  0  0  0  0  2  0  0  0  0
    0.7145   -1.2375    0.0000 C   0  0  0  0  0  0  0  2  0  0  0  0
    1.4289   -0.8250    0.0000 C   0  0  0  0  0  0  0  2  0  0  0  0
    1.4289    0.0000    0.0000 C   0  0  0  0  0  0  0  2  0  0  0  0
    0.7145    0.4125    0.0000 C   0  0  0  0  0  0  0  2  0  0  0  0
   -0.7145   -1.2375    0.0000 Cl  0  0  0  0  0  0  0  2  0  0  0  0
  1  2  2  0        0
  2  3  2  0        0
  2  4  1  0        0
  4  5  4  0        0
  5  6  4  0        0
  6  7  4  0        0
  7  8  4  0        0
  8  9  4  0        0
  4  9  4  0        0
  5 10  1  0        0
M  END
$$$$

CDXL12

 10 10  0  0  0  0  0  0  0  0999 V2000
   -0.7145    1.2375    0.0000 O   0  0  0  0  0  0  0  2  0  0  0  0
   -0.7145    0.4125    0.0000 N   0  0  0  0  0  0  0  2  0  0  0  0
   -1.4289   -0.0000    0.0000 O   0  0  0  0  0  0  0  2  0  0  0  0
    0.0000   -0.0000    0.0000 C   0  0  0  0  0  0  0  2  0  0  0  0
    0.0000   -0.8250    0.0000 C   0  0  0  0  0  0  0  2  0  0  0  0
   -0.7145   -1.2375    0.0000 N   0  0  0  0  0  0  0  2  0  0  0  0
    0.7145   -1.2375    0.0000 C   0  0  0  0  0  0  0  2  0  0  0  0
    1.4289   -0.8250    0.0000 C   0  0  0  0  0  0  0  2  0  0  0  0
    1.4289    0.0000    0.0000 C   0  0  0  0  0  0  0  2  0  0  0  0
    0.7145    0.4125    0.0000 C   0  0  0  0  0  0  0  2  0  0  0  0
  1  2  2  0        0
  2  3  2  0        0
  2  4  1  0        0
  4  5  4  0        0
  5  6  1  0        0
  5  7  4  0        0
  7  8  4  0        0
  8  9  4  0        0
  9 10  4  0        0
  4 10  4  0        0
M  END
$$$$

CDXL12

 10 10  0  0  0  0  0  0  0  0999 V2000
   -0.7145    1.2375    0.0000 O   0  0  0  0  0  0  0  2  0  0  0  0
   -0.7145    0.4125    0.0000 N   0  0  0  0  0  0  0  2  0  0  0  0
   -1.4289   -0.0000    0.0000 O   0  0  0  0  0  0  0  2  0  0  0  0
    0.0000   -0.0000    0.0000 C   0  0  0  0  0  0  0  2  0  0  0  0
    0.0000   -0.8250    0.0000 C   0  0  0  0  0  0  0  2  0  0  0  0
   -0.7145   -1.2375    0.0000 O   0  0  0  0  0  0  0  2  0  0  0  0
    0.7145   -1.2375    0.0000 C   0  0  0  0  0  0  0  2  0  0  0  0
    1.4289   -0.8250    0.0000 C   0  0  0  0  0  0  0  2  0  0  0  0
    1.4289    0.0000    0.0000 C   0  0  0  0  0  0  0  2  0  0  0  0
    0.7145    0.4125    0.0000 C   0  0  0  0  0  0  0  2  0  0  0  0
  1  2  2  0        0
  2  3  2  0        0
  2  4  1  0        0
  4  5  4  0        0
  5  6  1  0        0
  5  7  4  0        0
  7  8  4  0        0
  8  9  4  0        0
  9 10  4  0        0
  4 10  4  0        0
M  END
$$$$

CDXL12

 17 17  0  0  0  0  0  0  0  0999 V2000
    1.7862    1.8562    0.0000 O   0  0  0  0  0  0  0  2  0  0  0  0
    1.7862    1.0312    0.0000 N   0  0  0  0  0  0  0  2  0  0  0  0
    2.5006    0.6187    0.0000 O   0  0  0  0  0  0  0  2  0  0  0  0
    1.0717    0.6187    0.0000 C   0  0  0  0  0  0  0  2  0  0  0  0
    1.0717   -0.2063    0.0000 C   0  0  0  0  0  0  0  2  0  0  0  0
    0.3572   -0.6188    0.0000 C   0  0  0  0  0  0  0  2  0  0  0  0
    0.3572   -1.4437    0.0000 N   0  0  0  0  0  0  0  2  0  0  0  0
   -0.3572   -1.8562    0.0000 O   0  0  0  0  0  0  0  2  0  0  0  0
    1.0717   -1.8562    0.0000 O   0  0  0  0  0  0  0  2  0  0  0  0
   -0.3572   -0.2063    0.0000 C   0  0  0  0  0  0  0  2  0  0  0  0
   -1.0717   -0.6188    0.0000 O   0  0  0  0  0  0  0  2  0  0  0  0
   -0.3572    0.6187    0.0000 C   0  0  0  0  0  0  0  2  0  0  0  0
   -1.0717    1.0312    0.0000 C   0  0  0  0  0  0  0  2  0  0  0  0
   -1.7862    0.6187    0.0000 C   0  0  0  0  0  0  0  2  0  0  0  0
   -2.5006    1.0312    0.0000 C   0  0  0  0  0  0  0  2  0  0  0  0
   -1.0717    1.8562    0.0000 C   0  0  0  0  0  0  0  2  0  0  0  0
    0.3572    1.0312    0.0000 C   0  0  0  0  0  0  0  2  0  0  0  0
  1  2  2  0        0
  2  3  2  0        0
  2  4  1  0        0
  4  5  4  0        0
  5  6  4  0        0
  6  7  1  0        0
  7  8  2  0        0
  7  9  2  0        0
  6 10  4  0        0
 10 11  1  0        0
 10 12  4  0        0
 12 13  1  0        0
 13 14  1  0        0
 14 15  1  0        0
 13 16  1  0        0
 12 17  4  0        0
  4 17  4  0        0
M  END
$$$$

CDXL12

 16 16  0  0  0  0  0  0  0  0999 V2000
   -1.4289    1.8562    0.0000 O   0  0  0  0  0  0  0  2  0  0  0  0
   -1.4289    1.0312    0.0000 N   0  0  0  0  0  0  0  2  0  0  0  0
   -2.1434    0.6187    0.0000 O   0  0  0  0  0  0  0  2  0  0  0  0
   -0.7145    0.6187    0.0000 C   0  0  0  0  0  0  0  2  0  0  0  0
   -0.7145   -0.2063    0.0000 C   0  0  0  0  0  0  0  2  0  0  0  0
    0.0000   -0.6188    0.0000 C   0  0  0  0  0  0  0  2  0  0  0  0
    0.0000   -1.4437    0.0000 N   0  0  0  0  0  0  0  2  0  0  0  0
   -0.7145   -1.8562    0.0000 O   0  0  0  0  0  0  0  2  0  0  0  0
    0.7145   -1.8562    0.0000 O   0  0  0  0  0  0  0  2  0  0  0  0
    0.7145   -0.2063    0.0000 C   0  0  0  0  0  0  0  2  0  0  0  0
    0.7145    0.6187    0.0000 C   0  0  0  0  0  0  0  2  0  0  0  0
    1.4289    1.0312    0.0000 N   0  0  0  0  0  0  0  2  0  0  0  0
    1.4289    1.8562    0.0000 O   0  0  0  0  0  0  0  2  0  0  0  0
    2.1434    0.6187    0.0000 O   0  0  0  0  0  0  0  2  0  0  0  0
    0.0000    1.0312    0.0000 C   0  0  0  0  0  0  0  2  0  0  0  0
    1.4289   -0.6188    0.0000 Cl  0  0  0  0  0  0  0  2  0  0  0  0
  1  2  2  0        0
  2  3  2  0        0
  2  4  1  0        0
  4  5  4  0        0
  5  6  4  0        0
  6  7  1  0        0
  7  8  2  0        0
  7  9  2  0        0
  6 10  4  0        0
 10 11  4  0        0
 11 12  1  0        0
 12 13  2  0        0
 12 14  2  0        0
 11 15  4  0        0
  4 15  4  0        0
 10 16  1  0        0
M  END
$$$$

CDXL12

 16 16  0  0  0  0  0  0  0  0999 V2000
   -1.4289    1.8562    0.0000 O   0  0  0  0  0  0  0  2  0  0  0  0
   -1.4289    1.0312    0.0000 N   0  0  0  0  0  0  0  2  0  0  0  0
   -2.1434    0.6187    0.0000 O   0  0  0  0  0  0  0  2  0  0  0  0
   -0.7145    0.6187    0.0000 C   0  0  0  0  0  0  0  2  0  0  0  0
   -0.7145   -0.2063    0.0000 C   0  0  0  0  0  0  0  2  0  0  0  0
    0.0000   -0.6188    0.0000 C   0  0  0  0  0  0  0  2  0  0  0  0
    0.0000   -1.4437    0.0000 N   0  0  0  0  0  0  0  2  0  0  0  0
   -0.7145   -1.8562    0.0000 O   0  0  0  0  0  0  0  2  0  0  0  0
    0.7145   -1.8562    0.0000 O   0  0  0  0  0  0  0  2  0  0  0  0
    0.7145   -0.2063    0.0000 C   0  0  0  0  0  0  0  2  0  0  0  0
    1.4289   -0.6188    0.0000 O   0  0  0  0  0  0  0  2  0  0  0  0
    0.7145    0.6187    0.0000 C   0  0  0  0  0  0  0  2  0  0  0  0
    1.4289    1.0312    0.0000 N   0  0  0  0  0  0  0  2  0  0  0  0
    1.4289    1.8562    0.0000 O   0  0  0  0  0  0  0  2  0  0  0  0
    2.1434    0.6187    0.0000 O   0  0  0  0  0  0  0  2  0  0  0  0
    0.0000    1.0312    0.0000 C   0  0  0  0  0  0  0  2  0  0  0  0
  1  2  2  0        0
  2  3  2  0        0
  2  4  1  0        0
  4  5  4  0        0
  5  6  4  0        0
  6  7  1  0        0
  7  8  2  0        0
  7  9  2  0        0
  6 10  4  0        0
 10 11  1  0        0
 10 12  4  0        0
 12 13  1  0        0
 13 14  2  0        0
 13 15  2  0        0
 12 16  4  0        0
  4 16  4  0        0
M  END
$$$$

CDXL12

 12 12  0  0  0  0  0  0  0  0999 V2000
    0.7145   -1.6500    0.0000 O   0  0  0  0  0  0  0  2  0  0  0  0
    0.7145   -0.8250    0.0000 C   0  0  0  0  0  0  0  2  0  0  0  0
    1.4289   -0.4125    0.0000 N   0  0  0  0  0  0  0  2  0  0  0  0
    0.0000   -0.4125    0.0000 C   0  0  0  0  0  0  0  2  0  0  0  0
    0.0000    0.4125    0.0000 C   0  0  0  0  0  0  0  2  0  0  0  0
   -0.7145    0.8250    0.0000 C   0  0  0  0  0  0  0  2  0  0  0  0
   -1.4289    0.4125    0.0000 C   0  0  0  0  0  0  0  2  0  0  0  0
   -1.4289   -0.4125    0.0000 C   0  0  0  0  0  0  0  2  0  0  0  0
   -0.7145   -0.8250    0.0000 C   0  0  0  0  0  0  0  2  0  0  0  0
    0.7145    0.8250    0.0000 C   0  0  0  0  0  0  0  2  0  0  0  0
    0.7145    1.6500    0.0000 O   0  0  0  0  0  0  0  2  0  0  0  0
    1.4289    0.4125    0.0000 N   0  0  0  0  0  0  0  2  0  0  0  0
  1  2  2  0        0
  2  3  1  0        0
  2  4  1  0        0
  4  5  4  0        0
  5  6  4  0        0
  6  7  4  0        0
  7  8  4  0        0
  8  9  4  0        0
  4  9  4  0        0
  5 10  1  0        0
 10 11  2  0        0
 10 12  1  0        0
M  END
$$$$

CDXL12

 12 12  0  0  0  0  0  0  0  0999 V2000
    0.7145   -1.6500    0.0000 O   0  0  0  0  0  0  0  2  0  0  0  0
    0.7145   -0.8250    0.0000 C   0  0  0  0  0  0  0  2  0  0  0  0
    1.4289   -0.4125    0.0000 O   0  0  0  0  0  0  0  2  0  0  0  0
    0.0000   -0.4125    0.0000 C   0  0  0  0  0  0  0  2  0  0  0  0
    0.0000    0.4125    0.0000 C   0  0  0  0  0  0  0  2  0  0  0  0
    0.7145    0.8250    0.0000 C   0  0  0  0  0  0  0  2  0  0  0  0
    0.7145    1.6500    0.0000 O   0  0  0  0  0  0  0  2  0  0  0  0
    1.4289    0.4125    0.0000 O   0  0  0  0  0  0  0  2  0  0  0  0
   -0.7145    0.8250    0.0000 C   0  0  0  0  0  0  0  2  0  0  0  0
   -1.4289    0.4125    0.0000 C   0  0  0  0  0  0  0  2  0  0  0  0
   -1.4289   -0.4125    0.0000 C   0  0  0  0  0  0  0  2  0  0  0  0
   -0.7145   -0.8250    0.0000 C   0  0  0  0  0  0  0  2  0  0  0  0
  1  2  2  0        0
  2  3  1  0        0
  2  4  1  0        0
  4  5  1  0        0
  5  6  1  0        0
  6  7  2  0        0
  6  8  1  0        0
  5  9  1  0        0
  9 10  1  0        0
 10 11  2  0        0
 11 12  1  0        0
  4 12  1  0        0
M  END
$$$$

CDXL12

 12 12  0  0  0  0  0  0  0  0999 V2000
    0.7145   -1.6500    0.0000 O   0  0  0  0  0  0  0  2  0  0  0  0
    0.7145   -0.8250    0.0000 C   0  0  0  0  0  0  0  2  0  0  0  0
    1.4289   -0.4125    0.0000 O   0  0  0  0  0  0  0  2  0  0  0  0
    0.0000   -0.4125    0.0000 C   0  0  0  0  0  0  0  2  0  0  0  0
    0.0000    0.4125    0.0000 C   0  0  0  0  0  0  0  2  0  0  0  0
   -0.7145    0.8250    0.0000 C   0  0  0  0  0  0  0  2  0  0  0  0
   -1.4289    0.4125    0.0000 C   0  0  0  0  0  0  0  2  0  0  0  0
   -1.4289   -0.4125    0.0000 C   0  0  0  0  0  0  0  2  0  0  0  0
   -0.7145   -0.8250    0.0000 C   0  0  0  0  0  0  0  2  0  0  0  0
    0.7145    0.8250    0.0000 C   0  0  0  0  0  0  0  2  0  0  0  0
    0.7145    1.6500    0.0000 O   0  0  0  0  0  0  0  2  0  0  0  0
    1.4289    0.4125    0.0000 O   0  0  0  0  0  0  0  2  0  0  0  0
  1  2  2  0        0
  2  3  1  0        0
  2  4  1  0        0
  4  5  4  0        0
  5  6  4  0        0
  6  7  4  0        0
  7  8  4  0        0
  8  9  4  0        0
  4  9  4  0        0
  5 10  1  0        0
 10 11  2  0        0
 10 12  1  0        0
M  END
$$$$

CDXL12

 12 12  0  0  0  0  0  0  0  0999 V2000
    0.7145   -1.6500    0.0000 O   0  0  0  0  0  0  0  2  0  0  0  0
    0.7145   -0.8250    0.0000 C   0  0  0  0  0  0  0  2  0  0  0  0
    1.4289   -0.4125    0.0000 O   0  0  0  0  0  0  0  2  0  0  0  0
    0.0000   -0.4125    0.0000 C   0  0  0  0  0  0  0  2  0  0  0  0
   -0.7145   -0.8250    0.0000 C   0  0  0  0  0  0  0  2  0  0  0  0
   -1.4289   -0.4125    0.0000 C   0  0  0  0  0  0  0  2  0  0  0  0
   -1.4289    0.4125    0.0000 C   0  0  0  0  0  0  0  2  0  0  0  0
   -0.7145    0.8250    0.0000 N   0  0  0  0  0  0  0  2  0  0  0  0
    0.0000    0.4125    0.0000 C   0  0  0  0  0  0  0  2  0  0  0  0
    0.7145    0.8250    0.0000 C   0  0  0  0  0  0  0  2  0  0  0  0
    0.7145    1.6500    0.0000 O   0  0  0  0  0  0  0  2  0  0  0  0
    1.4289    0.4125    0.0000 O   0  0  0  0  0  0  0  2  0  0  0  0
  1  2  2  0        0
  2  3  1  0        0
  2  4  1  0        0
  4  5  4  0        0
  5  6  4  0        0
  6  7  4  0        0
  7  8  4  0        0
  8  9  4  0        0
  4  9  4  0        0
  9 10  1  0        0
 10 11  2  0        0
 10 12  1  0        0
M  END
$$$$

CDXL12

 26 26  0  0  0  0  0  0  0  0999 V2000
    5.0013   -0.4125    0.0000 C   0  0  0  0  0  0  0  2  0  0  0  0
    4.2868   -0.8250    0.0000 C   0  0  0  0  0  0  0  2  0  0  0  0
    3.5724   -0.4125    0.0000 C   0  0  0  0  0  0  0  2  0  0  0  0
    2.8579   -0.8250    0.0000 C   0  0  0  0  0  0  0  2  0  0  0  0
    2.1434   -0.4125    0.0000 C   0  0  0  0  0  0  0  2  0  0  0  0
    1.4289   -0.8250    0.0000 C   0  0  0  0  0  0  0  2  0  0  0  0
    0.7145   -0.4125    0.0000 C   0  0  0  0  0  0  0  2  0  0  0  0
   -0.0000   -0.8250    0.0000 C   0  0  0  0  0  0  0  2  0  0  0  0
   -0.7145   -0.4125    0.0000 C   0  0  0  0  0  0  0  2  0  0  0  0
   -1.4289   -0.8250    0.0000 C   0  0  0  0  0  0  0  2  0  0  0  0
   -2.1434   -0.4125    0.0000 O   0  0  0  0  0  0  0  2  0  0  0  0
   -2.8579   -0.8250    0.0000 C   0  0  0  0  0  0  0  2  0  0  0  0
   -2.8579   -1.6500    0.0000 O   0  0  0  0  0  0  0  2  0  0  0  0
   -3.5724   -0.4125    0.0000 C   0  0  0  0  0  0  0  2  0  0  0  0
   -4.2868   -0.8250    0.0000 C   0  0  0  0  0  0  0  2  0  0  0  0
   -5.0013   -0.4125    0.0000 C   0  0  0  0  0  0  0  2  0  0  0  0
   -5.0013    0.4125    0.0000 C   0  0  0  0  0  0  0  2  0  0  0  0
   -4.2868    0.8250    0.0000 C   0  0  0  0  0  0  0  2  0  0  0  0
   -3.5724    0.4125    0.0000 C   0  0  0  0  0  0  0  2  0  0  0  0
   -2.8579    0.8250    0.0000 C   0  0  0  0  0  0  0  2  0  0  0  0
   -2.8579    1.6500    0.0000 O   0  0  0  0  0  0  0  2  0  0  0  0
   -2.1434    0.4125    0.0000 O   0  0  0  0  0  0  0  2  0  0  0  0
   -1.4289    0.8250    0.0000 C   0  0  0  0  0  0  0  2  0  0  0  0
   -0.7145    0.4125    0.0000 C   0  0  0  0  0  0  0  2  0  0  0  0
   -0.0000    0.8250    0.0000 C   0  0  0  0  0  0  0  2  0  0  0  0
    0.7145    0.4125    0.0000 C   0  0  0  0  0  0  0  2  0  0  0  0
  1  2  1  0        0
  2  3  1  0        0
  3  4  1  0        0
  4  5  1  0        0
  5  6  1  0        0
  6  7  1  0        0
  7  8  1  0        0
  8  9  1  0        0
  9 10  1  0        0
 10 11  1  0        0
 11 12  1  0        0
 12 13  2  0        0
 12 14  1  0        0
 14 15  4  0        0
 15 16  4  0        0
 16 17  4  0        0
 17 18  4  0        0
 18 19  4  0        0
 14 19  4  0        0
 19 20  1  0        0
 20 21  2  0        0
 20 22  1  0        0
 22 23  1  0        0
 23 24  1  0        0
 24 25  1  0        0
 25 26  1  0        0
M  END
$$$$

CDXL12

 11 11  0  0  0  0  0  0  0  0999 V2000
   -1.0717    1.2375    0.0000 O   0  0  0  0  0  0  0  2  0  0  0  0
   -1.0717    0.4125    0.0000 N   0  0  0  0  0  0  0  2  0  0  0  0
   -1.7862   -0.0000    0.0000 O   0  0  0  0  0  0  0  2  0  0  0  0
   -0.3572   -0.0000    0.0000 C   0  0  0  0  0  0  0  2  0  0  0  0
   -0.3572   -0.8250    0.0000 C   0  0  0  0  0  0  0  2  0  0  0  0
    0.3572   -1.2375    0.0000 C   0  0  0  0  0  0  0  2  0  0  0  0
    1.0717   -0.8250    0.0000 C   0  0  0  0  0  0  0  2  0  0  0  0
    1.0717    0.0000    0.0000 C   0  0  0  0  0  0  0  2  0  0  0  0
    1.7862    0.4125    0.0000 Cl  0  0  0  0  0  0  0  2  0  0  0  0
    0.3572    0.4125    0.0000 C   0  0  0  0  0  0  0  2  0  0  0  0
   -1.0717   -1.2375    0.0000 Cl  0  0  0  0  0  0  0  2  0  0  0  0
  1  2  2  0        0
  2  3  2  0        0
  2  4  1  0        0
  4  5  4  0        0
  5  6  4  0        0
  6  7  4  0        0
  7  8  4  0        0
  8  9  1  0        0
  8 10  4  0        0
  4 10  4  0        0
  5 11  1  0        0
M  END
$$$$

CDXL12

 11 11  0  0  0  0  0  0  0  0999 V2000
   -1.0717    1.2375    0.0000 O   0  0  0  0  0  0  0  2  0  0  0  0
   -1.0717    0.4125    0.0000 N   0  0  0  0  0  0  0  2  0  0  0  0
   -1.7862   -0.0000    0.0000 O   0  0  0  0  0  0  0  2  0  0  0  0
   -0.3572   -0.0000    0.0000 C   0  0  0  0  0  0  0  2  0  0  0  0
   -0.3572   -0.8250    0.0000 C   0  0  0  0  0  0  0  2  0  0  0  0
   -1.0717   -1.2375    0.0000 O   0  0  0  0  0  0  0  2  0  0  0  0
    0.3572   -1.2375    0.0000 C   0  0  0  0  0  0  0  2  0  0  0  0
    1.0717   -0.8250    0.0000 C   0  0  0  0  0  0  0  2  0  0  0  0
    1.0717    0.0000    0.0000 C   0  0  0  0  0  0  0  2  0  0  0  0
    1.7862    0.4125    0.0000 Cl  0  0  0  0  0  0  0  2  0  0  0  0
    0.3572    0.4125    0.0000 C   0  0  0  0  0  0  0  2  0  0  0  0
  1  2  2  0        0
  2  3  2  0        0
  2  4  1  0        0
  4  5  4  0        0
  5  6  1  0        0
  5  7  4  0        0
  7  8  4  0        0
  8  9  4  0        0
  9 10  1  0        0
  9 11  4  0        0
  4 11  4  0        0
M  END
$$$$

CDXL12

 12 12  0  0  0  0  0  0  0  0999 V2000
    2.1348   -0.6666    0.0000 O   0  0  0  0  0  0  0  2  0  0  0  0
    1.4203   -0.2541    0.0000 C   0  0  0  0  0  0  0  2  0  0  0  0
    0.7059   -0.6666    0.0000 C   0  0  0  0  0  0  0  2  0  0  0  0
    0.7059   -1.4916    0.0000 O   0  0  0  0  0  0  0  2  0  0  0  0
   -0.0086   -0.2541    0.0000 C   0  0  0  0  0  0  0  2  0  0  0  0
   -0.0948    0.5664    0.0000 C   0  0  0  0  0  0  0  2  0  0  0  0
    0.5182    1.1184    0.0000 O   0  0  0  0  0  0  0  2  0  0  0  0
   -0.9018    0.7379    0.0000 C   0  0  0  0  0  0  0  2  0  0  0  0
   -1.2374    1.4916    0.0000 O   0  0  0  0  0  0  0  2  0  0  0  0
   -1.3143    0.0234    0.0000 C   0  0  0  0  0  0  0  2  0  0  0  0
   -2.1348   -0.0628    0.0000 O   0  0  0  0  0  0  0  2  0  0  0  0
   -0.7623   -0.5896    0.0000 O   0  0  0  0  0  0  0  2  0  0  0  0
  1  2  1  0        0
  2  3  1  0        0
  3  4  1  0        0
  3  5  1  0        0
  5  6  1  0        0
  6  7  1  0        0
  6  8  2  0        0
  8  9  1  0        0
  8 10  1  0        0
 10 11  2  0        0
 10 12  1  0        0
  5 12  1  0        0
M  END
$$$$

CDXL12

 12 12  0  0  0  0  0  0  0  0999 V2000
   -1.0717    1.2375    0.0000 O   0  0  0  0  0  0  0  2  0  0  0  0
   -1.0717    0.4125    0.0000 N   0  0  0  0  0  0  0  2  0  0  0  0
   -1.7862   -0.0000    0.0000 O   0  0  0  0  0  0  0  2  0  0  0  0
   -0.3572   -0.0000    0.0000 C   0  0  0  0  0  0  0  2  0  0  0  0
   -0.3572   -0.8250    0.0000 C   0  0  0  0  0  0  0  2  0  0  0  0
    0.3572   -1.2375    0.0000 C   0  0  0  0  0  0  0  2  0  0  0  0
    1.0717   -0.8250    0.0000 C   0  0  0  0  0  0  0  2  0  0  0  0
    1.0717    0.0000    0.0000 C   0  0  0  0  0  0  0  2  0  0  0  0
    1.7862    0.4125    0.0000 Cl  0  0  0  0  0  0  0  2  0  0  0  0
    0.3572    0.4125    0.0000 C   0  0  0  0  0  0  0  2  0  0  0  0
    1.7862   -1.2375    0.0000 Cl  0  0  0  0  0  0  0  2  0  0  0  0
   -1.0717   -1.2375    0.0000 Cl  0  0  0  0  0  0  0  2  0  0  0  0
  1  2  2  0        0
  2  3  2  0        0
  2  4  1  0        0
  4  5  4  0        0
  5  6  4  0        0
  6  7  4  0        0
  7  8  4  0        0
  8  9  1  0        0
  8 10  4  0        0
  4 10  4  0        0
  7 11  1  0        0
  5 12  1  0        0
M  END
$$$$

CDXL12

 11 11  0  0  0  0  0  0  0  0999 V2000
   -1.0717   -1.2375    0.0000 O   0  0  0  0  0  0  0  2  0  0  0  0
   -0.3572   -0.8250    0.0000 C   0  0  0  0  0  0  0  2  0  0  0  0
   -0.3572    0.0000    0.0000 C   0  0  0  0  0  0  0  2  0  0  0  0
    0.3572    0.4125    0.0000 C   0  0  0  0  0  0  0  2  0  0  0  0
    1.0717   -0.0000    0.0000 C   0  0  0  0  0  0  0  2  0  0  0  0
    1.0717   -0.8250    0.0000 C   0  0  0  0  0  0  0  2  0  0  0  0
    1.7862   -1.2375    0.0000 C   0  0  0  0  0  0  0  2  0  0  0  0
    0.3572   -1.2375    0.0000 C   0  0  0  0  0  0  0  2  0  0  0  0
   -1.0717    0.4125    0.0000 C   0  0  0  0  0  0  0  2  0  0  0  0
   -1.0717    1.2375    0.0000 C   0  0  0  0  0  0  0  2  0  0  0  0
   -1.7862    0.0000    0.0000 C   0  0  0  0  0  0  0  2  0  0  0  0
  1  2  1  0        0
  2  3  1  0        0
  3  4  1  0        0
  4  5  1  0        0
  5  6  1  0        0
  6  7  1  0        0
  6  8  1  0        0
  2  8  1  0        0
  3  9  1  0        0
  9 10  1  0        0
  9 11  1  0        0
M  END
$$$$

CDXL12

 11 11  0  0  0  0  0  0  0  0999 V2000
   -1.0717   -1.2375    0.0000 O   0  0  0  0  0  0  0  2  0  0  0  0
   -0.3572   -0.8250    0.0000 C   0  0  0  0  0  0  0  2  0  0  0  0
   -0.3572    0.0000    0.0000 C   0  0  0  0  0  0  0  2  0  0  0  0
    0.3572    0.4125    0.0000 C   0  0  0  0  0  0  0  2  0  0  0  0
    1.0717   -0.0000    0.0000 C   0  0  0  0  0  0  0  2  0  0  0  0
    1.0717   -0.8250    0.0000 C   0  0  0  0  0  0  0  2  0  0  0  0
    1.7862   -1.2375    0.0000 C   0  0  0  0  0  0  0  2  0  0  0  0
    0.3572   -1.2375    0.0000 C   0  0  0  0  0  0  0  2  0  0  0  0
   -1.0717    0.4125    0.0000 C   0  0  0  0  0  0  0  2  0  0  0  0
   -1.0717    1.2375    0.0000 C   0  0  0  0  0  0  0  2  0  0  0  0
   -1.7862    0.0000    0.0000 C   0  0  0  0  0  0  0  2  0  0  0  0
  1  2  1  0        0
  2  3  4  0        0
  3  4  4  0        0
  4  5  4  0        0
  5  6  4  0        0
  6  7  1  0        0
  6  8  4  0        0
  2  8  4  0        0
  3  9  1  0        0
  9 10  1  0        0
  9 11  1  0        0
M  END
$$$$

CDXL12

  9  9  0  0  0  0  0  0  0  0999 V2000
    0.7145    0.8250    0.0000 O   0  0  0  0  0  0  0  2  0  0  0  0
    0.0000    0.4125    0.0000 C   0  0  0  0  0  0  0  2  0  0  0  0
    0.0000   -0.4125    0.0000 C   0  0  0  0  0  0  0  2  0  0  0  0
   -0.7145   -0.8250    0.0000 C   0  0  0  0  0  0  0  2  0  0  0  0
   -1.4289   -0.4125    0.0000 C   0  0  0  0  0  0  0  2  0  0  0  0
   -1.4289    0.4125    0.0000 C   0  0  0  0  0  0  0  2  0  0  0  0
   -0.7145    0.8250    0.0000 C   0  0  0  0  0  0  0  2  0  0  0  0
    0.7145   -0.8250    0.0000 C   0  0  0  0  0  0  0  2  0  0  0  0
    1.4289   -0.4125    0.0000 C   0  0  0  0  0  0  0  2  0  0  0  0
  1  2  1  0        0
  2  3  4  0        0
  3  4  4  0        0
  4  5  4  0        0
  5  6  4  0        0
  6  7  4  0        0
  2  7  4  0        0
  3  8  1  0        0
  8  9  1  0        0
M  END
$$$$

CDXL12

  9  9  0  0  0  0  0  0  0  0999 V2000
    1.4289   -0.4125    0.0000 O   0  0  0  0  0  0  0  2  0  0  0  0
    0.7145   -0.8250    0.0000 C   0  0  0  0  0  0  0  2  0  0  0  0
    0.0000   -0.4125    0.0000 C   0  0  0  0  0  0  0  2  0  0  0  0
    0.0000    0.4125    0.0000 C   0  0  0  0  0  0  0  2  0  0  0  0
    0.7145    0.8250    0.0000 O   0  0  0  0  0  0  0  2  0  0  0  0
   -0.7145    0.8250    0.0000 C   0  0  0  0  0  0  0  2  0  0  0  0
   -1.4289    0.4125    0.0000 C   0  0  0  0  0  0  0  2  0  0  0  0
   -1.4289   -0.4125    0.0000 C   0  0  0  0  0  0  0  2  0  0  0  0
   -0.7145   -0.8250    0.0000 C   0  0  0  0  0  0  0  2  0  0  0  0
  1  2  1  0        0
  2  3  1  0        0
  3  4  4  0        0
  4  5  1  0        0
  4  6  4  0        0
  6  7  4  0        0
  7  8  4  0        0
  8  9  4  0        0
  3  9  4  0        0
M  END
$$$$

CDXL12

  9  9  0  0  0  0  0  0  0  0999 V2000
    0.7145   -0.8250    0.0000 O   0  0  0  0  0  0  0  2  0  0  0  0
    0.0000   -0.4125    0.0000 C   0  0  0  0  0  0  0  2  0  0  0  0
    0.0000    0.4125    0.0000 C   0  0  0  0  0  0  0  2  0  0  0  0
    0.7145    0.8250    0.0000 O   0  0  0  0  0  0  0  2  0  0  0  0
   -0.7145    0.8250    0.0000 C   0  0  0  0  0  0  0  2  0  0  0  0
   -1.4289    0.4125    0.0000 C   0  0  0  0  0  0  0  2  0  0  0  0
   -1.4289   -0.4125    0.0000 C   0  0  0  0  0  0  0  2  0  0  0  0
   -0.7145   -0.8250    0.0000 C   0  0  0  0  0  0  0  2  0  0  0  0
    1.4289   -0.4125    0.0000 C   0  0  0  0  0  0  0  2  0  0  0  0
  1  2  1  0        0
  2  3  4  0        0
  3  4  1  0        0
  3  5  4  0        0
  5  6  4  0        0
  6  7  4  0        0
  7  8  4  0        0
  2  8  4  0        0
  1  9  1  0        0
M  END
$$$$

CDXL12

 11 12  0  0  0  0  0  0  0  0999 V2000
    0.0000   -0.8250    0.0000 C   0  0  0  0  0  0  0  2  0  0  0  0
    0.0000    0.0000    0.0000 C   0  0  0  0  0  0  0  2  0  0  0  0
    0.7145    0.4125    0.0000 C   0  0  0  0  0  0  0  2  0  0  0  0
    1.4289    0.0000    0.0000 C   0  0  0  0  0  0  0  2  0  0  0  0
    1.4289   -0.8250    0.0000 C   0  0  0  0  0  0  0  2  0  0  0  0
    0.7145   -1.2375    0.0000 C   0  0  0  0  0  0  0  2  0  0  0  0
    0.7145    1.2375    0.0000 Br  0  0  0  0  0  0  0  2  0  0  0  0
   -0.7145    0.4125    0.0000 C   0  0  0  0  0  0  0  2  0  0  0  0
   -1.4289   -0.0000    0.0000 C   0  0  0  0  0  0  0  2  0  0  0  0
   -1.4289   -0.8250    0.0000 C   0  0  0  0  0  0  0  2  0  0  0  0
   -0.7145   -1.2375    0.0000 C   0  0  0  0  0  0  0  2  0  0  0  0
  1  2  4  0        0
  2  3  4  0        0
  3  4  4  0        0
  4  5  4  0        0
  5  6  4  0        0
  1  6  4  0        0
  3  7  1  0        0
  2  8  4  0        0
  8  9  4  0        0
  9 10  4  0        0
 10 11  4  0        0
  1 11  4  0        0
M  END
$$$$

CDXL12

 11 12  0  0  0  0  0  0  0  0999 V2000
    0.0000   -0.8250    0.0000 C   0  0  0  0  0  0  0  2  0  0  0  0
    0.0000    0.0000    0.0000 C   0  0  0  0  0  0  0  2  0  0  0  0
    0.7145    0.4125    0.0000 C   0  0  0  0  0  0  0  2  0  0  0  0
    1.4289    0.0000    0.0000 C   0  0  0  0  0  0  0  2  0  0  0  0
    1.4289   -0.8250    0.0000 C   0  0  0  0  0  0  0  2  0  0  0  0
    0.7145   -1.2375    0.0000 C   0  0  0  0  0  0  0  2  0  0  0  0
    0.7145    1.2375    0.0000 C   0  0  0  0  0  0  0  2  0  0  0  0
   -0.7145    0.4125    0.0000 C   0  0  0  0  0  0  0  2  0  0  0  0
   -1.4289   -0.0000    0.0000 C   0  0  0  0  0  0  0  2  0  0  0  0
   -1.4289   -0.8250    0.0000 C   0  0  0  0  0  0  0  2  0  0  0  0
   -0.7145   -1.2375    0.0000 C   0  0  0  0  0  0  0  2  0  0  0  0
  1  2  4  0        0
  2  3  4  0        0
  3  4  4  0        0
  4  5  4  0        0
  5  6  4  0        0
  1  6  4  0        0
  3  7  1  0        0
  2  8  4  0        0
  8  9  4  0        0
  9 10  4  0        0
 10 11  4  0        0
  1 11  4  0        0
M  END
$$$$

CDXL12

 11 12  0  0  0  0  0  0  0  0999 V2000
    0.0000   -0.8250    0.0000 C   0  0  0  0  0  0  0  2  0  0  0  0
    0.0000    0.0000    0.0000 C   0  0  0  0  0  0  0  2  0  0  0  0
    0.7145    0.4125    0.0000 C   0  0  0  0  0  0  0  2  0  0  0  0
    1.4289    0.0000    0.0000 C   0  0  0  0  0  0  0  2  0  0  0  0
    1.4289   -0.8250    0.0000 C   0  0  0  0  0  0  0  2  0  0  0  0
    0.7145   -1.2375    0.0000 C   0  0  0  0  0  0  0  2  0  0  0  0
    0.7145    1.2375    0.0000 I   0  0  0  0  0  0  0  2  0  0  0  0
   -0.7145    0.4125    0.0000 C   0  0  0  0  0  0  0  2  0  0  0  0
   -1.4289   -0.0000    0.0000 C   0  0  0  0  0  0  0  2  0  0  0  0
   -1.4289   -0.8250    0.0000 C   0  0  0  0  0  0  0  2  0  0  0  0
   -0.7145   -1.2375    0.0000 C   0  0  0  0  0  0  0  2  0  0  0  0
  1  2  4  0        0
  2  3  4  0        0
  3  4  4  0        0
  4  5  4  0        0
  5  6  4  0        0
  1  6  4  0        0
  3  7  1  0        0
  2  8  4  0        0
  8  9  4  0        0
  9 10  4  0        0
 10 11  4  0        0
  1 11  4  0        0
M  END
$$$$

CDXL12

 11 12  0  0  0  0  0  0  0  0999 V2000
    0.7145    1.2375    0.0000 O   0  0  0  0  0  0  0  2  0  0  0  0
    0.7145    0.4125    0.0000 C   0  0  0  0  0  0  0  2  0  0  0  0
    0.0000    0.0000    0.0000 C   0  0  0  0  0  0  0  2  0  0  0  0
    0.0000   -0.8250    0.0000 C   0  0  0  0  0  0  0  2  0  0  0  0
   -0.7145   -1.2375    0.0000 C   0  0  0  0  0  0  0  2  0  0  0  0
   -1.4289   -0.8250    0.0000 C   0  0  0  0  0  0  0  2  0  0  0  0
   -1.4289    0.0000    0.0000 C   0  0  0  0  0  0  0  2  0  0  0  0
   -0.7145    0.4125    0.0000 C   0  0  0  0  0  0  0  2  0  0  0  0
    0.7145   -1.2375    0.0000 C   0  0  0  0  0  0  0  2  0  0  0  0
    1.4289   -0.8250    0.0000 C   0  0  0  0  0  0  0  2  0  0  0  0
    1.4289   -0.0000    0.0000 C   0  0  0  0  0  0  0  2  0  0  0  0
  1  2  1  0        0
  2  3  4  0        0
  3  4  4  0        0
  4  5  4  0        0
  5  6  4  0        0
  6  7  4  0        0
  7  8  4  0        0
  3  8  4  0        0
  4  9  4  0        0
  9 10  4  0        0
 10 11  4  0        0
  2 11  4  0        0
M  END
$$$$

CDXL12

 17 19  0  0  0  0  0  0  0  0999 V2000
    0.0000    0.4125    0.0000 N   0  0  0  0  0  0  0  2  0  0  0  0
    0.0000   -0.4125    0.0000 C   0  0  0  0  0  0  0  2  0  0  0  0
   -0.7145   -0.8250    0.0000 C   0  0  0  0  0  0  0  2  0  0  0  0
   -0.7145   -1.6500    0.0000 C   0  0  0  0  0  0  0  2  0  0  0  0
   -1.4289   -2.0625    0.0000 C   0  0  0  0  0  0  0  2  0  0  0  0
   -2.1434   -1.6500    0.0000 C   0  0  0  0  0  0  0  2  0  0  0  0
   -2.1434   -0.8250    0.0000 C   0  0  0  0  0  0  0  2  0  0  0  0
   -1.4289   -0.4125    0.0000 C   0  0  0  0  0  0  0  2  0  0  0  0
    0.0000   -2.0625    0.0000 C   0  0  0  0  0  0  0  2  0  0  0  0
    0.7145   -1.6500    0.0000 C   0  0  0  0  0  0  0  2  0  0  0  0
    0.7145   -0.8250    0.0000 C   0  0  0  0  0  0  0  2  0  0  0  0
    0.7145    0.8250    0.0000 C   0  0  0  0  0  0  0  2  0  0  0  0
    0.7145    1.6500    0.0000 C   0  0  0  0  0  0  0  2  0  0  0  0
    1.4289    2.0625    0.0000 C   0  0  0  0  0  0  0  2  0  0  0  0
    2.1434    1.6500    0.0000 C   0  0  0  0  0  0  0  2  0  0  0  0
    2.1434    0.8250    0.0000 C   0  0  0  0  0  0  0  2  0  0  0  0
    1.4289    0.4125    0.0000 C   0  0  0  0  0  0  0  2  0  0  0  0
  1  2  1  0        0
  2  3  4  0        0
  3  4  4  0        0
  4  5  4  0        0
  5  6  4  0        0
  6  7  4  0        0
  7  8  4  0        0
  3  8  4  0        0
  4  9  4  0        0
  9 10  4  0        0
 10 11  4  0        0
  2 11  4  0        0
  1 12  1  0        0
 12 13  4  0        0
 13 14  4  0        0
 14 15  4  0        0
 15 16  4  0        0
 16 17  4  0        0
 12 17  4  0        0
M  END
$$$$

CDXL12

 17 20  0  0  0  0  0  0  0  0999 V2000
   -1.4060   -2.0462    0.0000 C   0  0  0  0  0  0  0  2  0  0  0  0
   -0.7068   -2.4440    0.0000 C   0  0  0  0  0  0  0  2  0  0  0  0
   -0.0128   -2.0374    0.0000 C   0  0  0  0  0  0  0  2  0  0  0  0
   -0.0179   -1.2330    0.0000 N   0  0  0  0  0  0  0  2  0  0  0  0
    0.6813   -0.8353    0.0000 C   0  0  0  0  0  0  0  2  0  0  0  0
    0.6966   -0.0310    0.0000 C   0  0  0  0  0  0  0  2  0  0  0  0
   -0.0179   -0.4435    0.0000 C   0  0  0  0  0  0  0  2  0  0  0  0
   -0.7323   -0.0310    0.0000 C   0  0  0  0  0  0  0  2  0  0  0  0
   -0.7323    0.7940    0.0000 C   0  0  0  0  0  0  0  2  0  0  0  0
   -0.0179    1.2065    0.0000 N   0  0  0  0  0  0  0  2  0  0  0  0
    0.6966    0.7940    0.0000 C   0  0  0  0  0  0  0  2  0  0  0  0
    1.4111    1.2065    0.0000 C   0  0  0  0  0  0  0  2  0  0  0  0
    1.4111    2.0315    0.0000 C   0  0  0  0  0  0  0  2  0  0  0  0
    0.6966    2.4440    0.0000 C   0  0  0  0  0  0  0  2  0  0  0  0
   -0.0179    2.0315    0.0000 C   0  0  0  0  0  0  0  2  0  0  0  0
   -0.7170   -0.8353    0.0000 C   0  0  0  0  0  0  0  2  0  0  0  0
   -1.4111   -1.2419    0.0000 C   0  0  0  0  0  0  0  2  0  0  0  0
  1  2  1  0        0
  2  3  1  0        0
  3  4  1  0        0
  4  5  1  0        0
  5  6  1  0        0
  6  7  1  0        0
  7  8  1  0        0
  8  9  1  0        0
  9 10  1  0        0
 10 11  1  0        0
  6 11  1  0        0
 11 12  1  0        0
 12 13  1  0        0
 13 14  1  0        0
 14 15  1  0        0
 10 15  1  0        0
  8 16  1  0        0
  4 16  1  0        0
 16 17  1  0        0
  1 17  1  0        0
M  END
$$$$

CDXL12

 13 14  0  0  0  0  0  0  0  0999 V2000
    0.3572    1.4438    0.0000 O   0  0  0  0  0  0  0  2  0  0  0  0
   -0.3572    1.0313    0.0000 C   0  0  0  0  0  0  0  2  0  0  0  0
   -0.3572    0.2062    0.0000 C   0  0  0  0  0  0  0  2  0  0  0  0
    0.3572   -0.2062    0.0000 C   0  0  0  0  0  0  0  2  0  0  0  0
    1.0717    0.2062    0.0000 C   0  0  0  0  0  0  0  2  0  0  0  0
    1.7862   -0.2062    0.0000 C   0  0  0  0  0  0  0  2  0  0  0  0
    1.7862   -1.0313    0.0000 C   0  0  0  0  0  0  0  2  0  0  0  0
    1.0717   -1.4438    0.0000 C   0  0  0  0  0  0  0  2  0  0  0  0
    0.3572   -1.0313    0.0000 C   0  0  0  0  0  0  0  2  0  0  0  0
   -1.0717   -0.2062    0.0000 C   0  0  0  0  0  0  0  2  0  0  0  0
   -1.7862    0.2062    0.0000 C   0  0  0  0  0  0  0  2  0  0  0  0
   -1.7862    1.0313    0.0000 C   0  0  0  0  0  0  0  2  0  0  0  0
   -1.0717    1.4438    0.0000 C   0  0  0  0  0  0  0  2  0  0  0  0
  1  2  1  0        0
  2  3  4  0        0
  3  4  1  0        0
  4  5  4  0        0
  5  6  4  0        0
  6  7  4  0        0
  7  8  4  0        0
  8  9  4  0        0
  4  9  4  0        0
  3 10  4  0        0
 10 11  4  0        0
 11 12  4  0        0
 12 13  4  0        0
  2 13  4  0        0
M  END
$$$$

CDXL12

 11 11  0  0  0  0  0  0  0  0999 V2000
    1.0717    0.8250    0.0000 O   0  0  0  0  0  0  0  2  0  0  0  0
    1.0717    0.0000    0.0000 C   0  0  0  0  0  0  0  2  0  0  0  0
    1.7862   -0.4125    0.0000 O   0  0  0  0  0  0  0  2  0  0  0  0
    0.3572   -0.4125    0.0000 C   0  0  0  0  0  0  0  2  0  0  0  0
    0.3572   -1.2375    0.0000 O   0  0  0  0  0  0  0  2  0  0  0  0
   -0.3572   -0.0000    0.0000 C   0  0  0  0  0  0  0  2  0  0  0  0
   -1.0717   -0.4125    0.0000 C   0  0  0  0  0  0  0  2  0  0  0  0
   -1.7862    0.0000    0.0000 C   0  0  0  0  0  0  0  2  0  0  0  0
   -1.7862    0.8250    0.0000 C   0  0  0  0  0  0  0  2  0  0  0  0
   -1.0717    1.2375    0.0000 C   0  0  0  0  0  0  0  2  0  0  0  0
   -0.3572    0.8250    0.0000 C   0  0  0  0  0  0  0  2  0  0  0  0
  1  2  2  0        0
  2  3  1  0        0
  2  4  1  0        0
  4  5  1  0        0
  4  6  1  0        0
  6  7  4  0        0
  7  8  4  0        0
  8  9  4  0        0
  9 10  4  0        0
 10 11  4  0        0
  6 11  4  0        0
M  END
$$$$

CDXL12

 20 21  0  0  0  0  0  0  0  0999 V2000
   -0.0000    1.6500    0.0000 O   0  0  0  0  0  0  0  2  0  0  0  0
   -0.0000    0.8250    0.0000 C   0  0  0  0  0  0  0  2  0  0  0  0
   -0.7145    0.4125    0.0000 C   0  0  0  0  0  0  0  2  0  0  0  0
   -0.7145   -0.4125    0.0000 C   0  0  0  0  0  0  0  2  0  0  0  0
   -1.4289   -0.8250    0.0000 C   0  0  0  0  0  0  0  2  0  0  0  0
   -2.1434   -0.4125    0.0000 C   0  0  0  0  0  0  0  2  0  0  0  0
   -2.8579   -0.8250    0.0000 N   0  0  0  0  0  0  0  2  0  0  0  0
   -2.8579   -1.6500    0.0000 C   0  0  0  0  0  0  0  2  0  0  0  0
   -3.5724   -0.4125    0.0000 C   0  0  0  0  0  0  0  2  0  0  0  0
   -2.1434    0.4125    0.0000 C   0  0  0  0  0  0  0  2  0  0  0  0
   -1.4289    0.8250    0.0000 C   0  0  0  0  0  0  0  2  0  0  0  0
    0.7145    0.4125    0.0000 C   0  0  0  0  0  0  0  2  0  0  0  0
    1.4289    0.8250    0.0000 C   0  0  0  0  0  0  0  2  0  0  0  0
    2.1434    0.4125    0.0000 C   0  0  0  0  0  0  0  2  0  0  0  0
    2.1434   -0.4125    0.0000 C   0  0  0  0  0  0  0  2  0  0  0  0
    2.8579   -0.8250    0.0000 N   0  0  0  0  0  0  0  2  0  0  0  0
    2.8579   -1.6500    0.0000 C   0  0  0  0  0  0  0  2  0  0  0  0
    3.5724   -0.4125    0.0000 C   0  0  0  0  0  0  0  2  0  0  0  0
    1.4289   -0.8250    0.0000 C   0  0  0  0  0  0  0  2  0  0  0  0
    0.7145   -0.4125    0.0000 C   0  0  0  0  0  0  0  2  0  0  0  0
  1  2  2  0        0
  2  3  1  0        0
  3  4  4  0        0
  4  5  4  0        0
  5  6  4  0        0
  6  7  1  0        0
  7  8  1  0        0
  7  9  1  0        0
  6 10  4  0        0
 10 11  4  0        0
  3 11  4  0        0
  2 12  1  0        0
 12 13  4  0        0
 13 14  4  0        0
 14 15  4  0        0
 15 16  1  0        0
 16 17  1  0        0
 16 18  1  0        0
 15 19  4  0        0
 19 20  4  0        0
 12 20  4  0        0
M  END
$$$$

CDXL12

 14 15  0  0  0  0  0  0  0  0999 V2000
    0.0000    1.2375    0.0000 O   0  0  0  0  0  0  0  2  0  0  0  0
    0.0000    0.4125    0.0000 C   0  0  0  0  0  0  0  2  0  0  0  0
   -0.7145    0.0000    0.0000 C   0  0  0  0  0  0  0  2  0  0  0  0
   -0.7145   -0.8250    0.0000 C   0  0  0  0  0  0  0  2  0  0  0  0
   -1.4289   -1.2375    0.0000 C   0  0  0  0  0  0  0  2  0  0  0  0
   -2.1434   -0.8250    0.0000 C   0  0  0  0  0  0  0  2  0  0  0  0
   -2.1434    0.0000    0.0000 C   0  0  0  0  0  0  0  2  0  0  0  0
   -1.4289    0.4125    0.0000 C   0  0  0  0  0  0  0  2  0  0  0  0
    0.7145   -0.0000    0.0000 C   0  0  0  0  0  0  0  2  0  0  0  0
    1.4289    0.4125    0.0000 C   0  0  0  0  0  0  0  2  0  0  0  0
    2.1434    0.0000    0.0000 C   0  0  0  0  0  0  0  2  0  0  0  0
    2.1434   -0.8250    0.0000 C   0  0  0  0  0  0  0  2  0  0  0  0
    1.4289   -1.2375    0.0000 C   0  0  0  0  0  0  0  2  0  0  0  0
    0.7145   -0.8250    0.0000 C   0  0  0  0  0  0  0  2  0  0  0  0
  1  2  1  0        0
  2  3  1  0        0
  3  4  4  0        0
  4  5  4  0        0
  5  6  4  0        0
  6  7  4  0        0
  7  8  4  0        0
  3  8  4  0        0
  2  9  1  0        0
  9 10  4  0        0
 10 11  4  0        0
 11 12  4  0        0
 12 13  4  0        0
 13 14  4  0        0
  9 14  4  0        0
M  END
$$$$

CDXL12

 11 11  0  0  0  0  0  0  0  0999 V2000
    1.4289   -0.4125    0.0000 O   0  0  0  0  0  0  0  2  0  0  0  0
    0.7145   -0.0000    0.0000 C   0  0  0  0  0  0  0  2  0  0  0  0
    0.0000   -0.4125    0.0000 C   0  0  0  0  0  0  0  2  0  0  0  0
    0.0000   -1.2375    0.0000 O   0  0  0  0  0  0  0  2  0  0  0  0
   -0.7145   -0.0000    0.0000 C   0  0  0  0  0  0  0  2  0  0  0  0
   -1.4289   -0.4125    0.0000 O   0  0  0  0  0  0  0  2  0  0  0  0
   -2.1434   -0.0000    0.0000 C   0  0  0  0  0  0  0  2  0  0  0  0
   -0.7145    0.8250    0.0000 C   0  0  0  0  0  0  0  2  0  0  0  0
    0.0000    1.2375    0.0000 C   0  0  0  0  0  0  0  2  0  0  0  0
    0.7145    0.8250    0.0000 C   0  0  0  0  0  0  0  2  0  0  0  0
    2.1434   -0.0000    0.0000 C   0  0  0  0  0  0  0  2  0  0  0  0
  1  2  1  0        0
  2  3  4  0        0
  3  4  1  0        0
  3  5  4  0        0
  5  6  1  0        0
  6  7  1  0        0
  5  8  4  0        0
  8  9  4  0        0
  9 10  4  0        0
  2 10  4  0        0
  1 11  1  0        0
M  END
$$$$

CDXL12

 10 11  0  0  0  0  0  0  0  0999 V2000
    0.0000   -0.4125    0.0000 C   0  0  0  0  0  0  0  2  0  0  0  0
    0.0000    0.4125    0.0000 C   0  0  0  0  0  0  0  2  0  0  0  0
    0.7145    0.8250    0.0000 C   0  0  0  0  0  0  0  2  0  0  0  0
    1.4289    0.4125    0.0000 C   0  0  0  0  0  0  0  2  0  0  0  0
    1.4289   -0.4125    0.0000 C   0  0  0  0  0  0  0  2  0  0  0  0
    0.7145   -0.8250    0.0000 C   0  0  0  0  0  0  0  2  0  0  0  0
   -0.7145    0.8250    0.0000 C   0  0  0  0  0  0  0  2  0  0  0  0
   -1.4289    0.4125    0.0000 C   0  0  0  0  0  0  0  2  0  0  0  0
   -1.4289   -0.4125    0.0000 C   0  0  0  0  0  0  0  2  0  0  0  0
   -0.7145   -0.8250    0.0000 C   0  0  0  0  0  0  0  2  0  0  0  0
  1  2  1  0        0
  2  3  1  0        0
  3  4  1  0        0
  4  5  1  0        0
  5  6  1  0        0
  1  6  1  0        0
  2  7  1  0        0
  7  8  1  0        0
  8  9  1  0        0
  9 10  1  0        0
  1 10  1  0        0
M  END
$$$$

CDXL12

 10 11  0  0  0  0  0  0  0  0999 V2000
   -1.4289    0.4125    0.0000 C   0  0  0  0  0  0  0  2  0  0  0  0
   -1.4289   -0.4125    0.0000 C   0  0  0  0  0  0  0  2  0  0  0  0
   -0.7145   -0.8250    0.0000 N   0  0  0  0  0  0  0  2  0  0  0  0
    0.0000   -0.4125    0.0000 C   0  0  0  0  0  0  0  2  0  0  0  0
    0.7145   -0.8250    0.0000 C   0  0  0  0  0  0  0  2  0  0  0  0
    1.4289   -0.4125    0.0000 N   0  0  0  0  0  0  0  2  0  0  0  0
    1.4289    0.4125    0.0000 C   0  0  0  0  0  0  0  2  0  0  0  0
    0.7145    0.8250    0.0000 N   0  0  0  0  0  0  0  2  0  0  0  0
    0.0000    0.4125    0.0000 C   0  0  0  0  0  0  0  2  0  0  0  0
   -0.7145    0.8250    0.0000 N   0  0  0  0  0  0  0  2  0  0  0  0
  1  2  4  0        0
  2  3  4  0        0
  3  4  4  0        0
  4  5  4  0        0
  5  6  4  0        0
  6  7  4  0        0
  7  8  4  0        0
  8  9  4  0        0
  4  9  4  0        0
  9 10  4  0        0
  1 10  4  0        0
M  END
$$$$

CDXL12

 10 11  0  0  0  0  0  0  0  0999 V2000
    0.0000   -0.4125    0.0000 C   0  0  0  0  0  0  0  2  0  0  0  0
    0.0000    0.4125    0.0000 C   0  0  0  0  0  0  0  2  0  0  0  0
    0.7145    0.8250    0.0000 C   0  0  0  0  0  0  0  2  0  0  0  0
    1.4289    0.4125    0.0000 C   0  0  0  0  0  0  0  2  0  0  0  0
    1.4289   -0.4125    0.0000 C   0  0  0  0  0  0  0  2  0  0  0  0
    0.7145   -0.8250    0.0000 C   0  0  0  0  0  0  0  2  0  0  0  0
   -0.7145    0.8250    0.0000 C   0  0  0  0  0  0  0  2  0  0  0  0
   -1.4289    0.4125    0.0000 C   0  0  0  0  0  0  0  2  0  0  0  0
   -1.4289   -0.4125    0.0000 C   0  0  0  0  0  0  0  2  0  0  0  0
   -0.7145   -0.8250    0.0000 C   0  0  0  0  0  0  0  2  0  0  0  0
  1  2  4  0        0
  2  3  4  0        0
  3  4  4  0        0
  4  5  4  0        0
  5  6  4  0        0
  1  6  4  0        0
  2  7  4  0        0
  7  8  4  0        0
  8  9  4  0        0
  9 10  4  0        0
  1 10  4  0        0
M  END
$$$$

CDXL12

 10 11  0  0  0  0  0  0  0  0999 V2000
    0.7145    0.8250    0.0000 N   0  0  0  0  0  0  0  2  0  0  0  0
    0.0000    0.4125    0.0000 C   0  0  0  0  0  0  0  2  0  0  0  0
    0.0000   -0.4125    0.0000 C   0  0  0  0  0  0  0  2  0  0  0  0
   -0.7145   -0.8250    0.0000 C   0  0  0  0  0  0  0  2  0  0  0  0
   -1.4289   -0.4125    0.0000 C   0  0  0  0  0  0  0  2  0  0  0  0
   -1.4289    0.4125    0.0000 C   0  0  0  0  0  0  0  2  0  0  0  0
   -0.7145    0.8250    0.0000 C   0  0  0  0  0  0  0  2  0  0  0  0
    0.7145   -0.8250    0.0000 C   0  0  0  0  0  0  0  2  0  0  0  0
    1.4289   -0.4125    0.0000 C   0  0  0  0  0  0  0  2  0  0  0  0
    1.4289    0.4125    0.0000 C   0  0  0  0  0  0  0  2  0  0  0  0
  1  2  4  0        0
  2  3  4  0        0
  3  4  4  0        0
  4  5  4  0        0
  5  6  4  0        0
  6  7  4  0        0
  2  7  4  0        0
  3  8  4  0        0
  8  9  4  0        0
  9 10  4  0        0
  1 10  4  0        0
M  END
$$$$

CDXL12

 11 11  0  0  0  0  0  0  0  0999 V2000
   -0.7145    1.2375    0.0000 O   0  0  0  0  0  0  0  2  0  0  0  0
   -0.7145    0.4125    0.0000 N   0  0  0  0  0  0  0  2  0  0  0  0
   -1.4289   -0.0000    0.0000 O   0  0  0  0  0  0  0  2  0  0  0  0
    0.0000   -0.0000    0.0000 C   0  0  0  0  0  0  0  2  0  0  0  0
    0.0000   -0.8250    0.0000 C   0  0  0  0  0  0  0  2  0  0  0  0
   -0.7145   -1.2375    0.0000 O   0  0  0  0  0  0  0  2  0  0  0  0
   -1.4289   -0.8250    0.0000 C   0  0  0  0  0  0  0  2  0  0  0  0
    0.7145   -1.2375    0.0000 C   0  0  0  0  0  0  0  2  0  0  0  0
    1.4289   -0.8250    0.0000 C   0  0  0  0  0  0  0  2  0  0  0  0
    1.4289    0.0000    0.0000 C   0  0  0  0  0  0  0  2  0  0  0  0
    0.7145    0.4125    0.0000 C   0  0  0  0  0  0  0  2  0  0  0  0
  1  2  2  0        0
  2  3  2  0        0
  2  4  1  0        0
  4  5  4  0        0
  5  6  1  0        0
  6  7  1  0        0
  5  8  4  0        0
  8  9  4  0        0
  9 10  4  0        0
 10 11  4  0        0
  4 11  4  0        0
M  END
$$$$

CDXL12

 11 12  0  0  0  0  0  0  0  0999 V2000
   -0.3572    0.4125    0.0000 C   0  0  0  0  0  0  0  2  0  0  0  0
   -0.3572   -0.4125    0.0000 C   0  0  0  0  0  0  0  2  0  0  0  0
    0.3572   -0.8250    0.0000 C   0  0  0  0  0  0  0  2  0  0  0  0
    1.0717   -0.4125    0.0000 C   0  0  0  0  0  0  0  2  0  0  0  0
    1.0717    0.4125    0.0000 C   0  0  0  0  0  0  0  2  0  0  0  0
    1.7862    0.8250    0.0000 C   0  0  0  0  0  0  0  2  0  0  0  0
    0.3572    0.8250    0.0000 C   0  0  0  0  0  0  0  2  0  0  0  0
   -1.0717   -0.8250    0.0000 C   0  0  0  0  0  0  0  2  0  0  0  0
   -1.7862   -0.4125    0.0000 C   0  0  0  0  0  0  0  2  0  0  0  0
   -1.7862    0.4125    0.0000 C   0  0  0  0  0  0  0  2  0  0  0  0
   -1.0717    0.8250    0.0000 C   0  0  0  0  0  0  0  2  0  0  0  0
  1  2  4  0        0
  2  3  4  0        0
  3  4  4  0        0
  4  5  4  0        0
  5  6  1  0        0
  5  7  4  0        0
  1  7  4  0        0
  2  8  4  0        0
  8  9  4  0        0
  9 10  4  0        0
 10 11  4  0        0
  1 11  4  0        0
M  END
$$$$

CDXL12

 11 12  0  0  0  0  0  0  0  0999 V2000
   -1.7862    0.4125    0.0000 C   0  0  0  0  0  0  0  2  0  0  0  0
   -1.0717    0.8250    0.0000 C   0  0  0  0  0  0  0  2  0  0  0  0
   -0.3572    0.4125    0.0000 C   0  0  0  0  0  0  0  2  0  0  0  0
    0.3572    0.8250    0.0000 O   0  0  0  0  0  0  0  2  0  0  0  0
    1.0717    0.4125    0.0000 C   0  0  0  0  0  0  0  2  0  0  0  0
    1.7862    0.8250    0.0000 O   0  0  0  0  0  0  0  2  0  0  0  0
    1.0717   -0.4125    0.0000 C   0  0  0  0  0  0  0  2  0  0  0  0
    0.3572   -0.8250    0.0000 C   0  0  0  0  0  0  0  2  0  0  0  0
   -0.3572   -0.4125    0.0000 C   0  0  0  0  0  0  0  2  0  0  0  0
   -1.0717   -0.8250    0.0000 C   0  0  0  0  0  0  0  2  0  0  0  0
   -1.7862   -0.4125    0.0000 C   0  0  0  0  0  0  0  2  0  0  0  0
  1  2  4  0        0
  2  3  4  0        0
  3  4  1  0        0
  4  5  1  0        0
  5  6  2  0        0
  5  7  1  0        0
  7  8  2  0        0
  8  9  1  0        0
  3  9  4  0        0
  9 10  4  0        0
 10 11  4  0        0
  1 11  4  0        0
M  END
$$$$

CDXL12

 14 15  0  0  0  0  0  0  0  0999 V2000
    1.4289   -0.6188    0.0000 N   0  0  0  0  0  0  0  2  0  0  0  0
    0.7145   -1.0312    0.0000 C   0  0  0  0  0  0  0  2  0  0  0  0
    0.0000   -0.6188    0.0000 N   0  0  0  0  0  0  0  2  0  0  0  0
    0.0000    0.2062    0.0000 C   0  0  0  0  0  0  0  2  0  0  0  0
    0.7145    0.6187    0.0000 N   0  0  0  0  0  0  0  2  0  0  0  0
    1.4289    0.2062    0.0000 C   0  0  0  0  0  0  0  2  0  0  0  0
    2.1434    0.6187    0.0000 N   0  0  0  0  0  0  0  2  0  0  0  0
   -0.7145    0.6187    0.0000 C   0  0  0  0  0  0  0  2  0  0  0  0
   -1.4289    0.2062    0.0000 C   0  0  0  0  0  0  0  2  0  0  0  0
   -2.1434    0.6187    0.0000 C   0  0  0  0  0  0  0  2  0  0  0  0
   -2.1434    1.4437    0.0000 C   0  0  0  0  0  0  0  2  0  0  0  0
   -1.4289    1.8562    0.0000 C   0  0  0  0  0  0  0  2  0  0  0  0
   -0.7145    1.4437    0.0000 C   0  0  0  0  0  0  0  2  0  0  0  0
    0.7145   -1.8562    0.0000 N   0  0  0  0  0  0  0  2  0  0  0  0
  1  2  4  0        0
  2  3  4  0        0
  3  4  4  0        0
  4  5  4  0        0
  5  6  4  0        0
  1  6  4  0        0
  6  7  1  0        0
  4  8  1  0        0
  8  9  4  0        0
  9 10  4  0        0
 10 11  4  0        0
 11 12  4  0        0
 12 13  4  0        0
  8 13  4  0        0
  2 14  1  0        0
M  END
$$$$

CDXL12

 16 17  0  0  0  0  0  0  0  0999 V2000
    2.5006    1.4437    0.0000 N   0  0  0  0  0  0  0  2  0  0  0  0
    1.7862    1.0312    0.0000 C   0  0  0  0  0  0  0  2  0  0  0  0
    1.7862    0.2062    0.0000 C   0  0  0  0  0  0  0  2  0  0  0  0
    1.0717   -0.2062    0.0000 C   0  0  0  0  0  0  0  2  0  0  0  0
    0.3572    0.2062    0.0000 C   0  0  0  0  0  0  0  2  0  0  0  0
   -0.3572   -0.2062    0.0000 C   0  0  0  0  0  0  0  2  0  0  0  0
   -0.3572   -1.0312    0.0000 C   0  0  0  0  0  0  0  2  0  0  0  0
   -1.0717   -1.4437    0.0000 C   0  0  0  0  0  0  0  2  0  0  0  0
   -1.7862   -1.0312    0.0000 C   0  0  0  0  0  0  0  2  0  0  0  0
   -2.5006   -1.4437    0.0000 N   0  0  0  0  0  0  0  2  0  0  0  0
   -1.7862   -0.2062    0.0000 C   0  0  0  0  0  0  0  2  0  0  0  0
   -2.5006    0.2062    0.0000 Cl  0  0  0  0  0  0  0  2  0  0  0  0
   -1.0717    0.2062    0.0000 C   0  0  0  0  0  0  0  2  0  0  0  0
    0.3572    1.0312    0.0000 C   0  0  0  0  0  0  0  2  0  0  0  0
    1.0717    1.4437    0.0000 C   0  0  0  0  0  0  0  2  0  0  0  0
    2.5006   -0.2063    0.0000 Cl  0  0  0  0  0  0  0  2  0  0  0  0
  1  2  1  0        0
  2  3  4  0        0
  3  4  4  0        0
  4  5  4  0        0
  5  6  1  0        0
  6  7  4  0        0
  7  8  4  0        0
  8  9  4  0        0
  9 10  1  0        0
  9 11  4  0        0
 11 12  1  0        0
 11 13  4  0        0
  6 13  4  0        0
  5 14  4  0        0
 14 15  4  0        0
  2 15  4  0        0
  3 16  1  0        0
M  END
$$$$

CDXL12

 28 29  0  0  0  0  0  0  0  0999 V2000
   -3.2151    0.2062    0.0000 O   0  0  0  0  0  0  0  2  0  0  0  0
   -3.2151    1.0313    0.0000 C   0  0  0  0  0  0  0  2  0  0  0  0
   -2.5006    1.4438    0.0000 N   0  0  0  0  0  0  0  2  0  0  0  0
   -1.7862    1.0313    0.0000 C   0  0  0  0  0  0  0  2  0  0  0  0
   -1.7862    0.2062    0.0000 C   0  0  0  0  0  0  0  2  0  0  0  0
   -1.0717   -0.2062    0.0000 C   0  0  0  0  0  0  0  2  0  0  0  0
   -0.3572    0.2062    0.0000 C   0  0  0  0  0  0  0  2  0  0  0  0
    0.3572   -0.2062    0.0000 C   0  0  0  0  0  0  0  2  0  0  0  0
    0.3572   -1.0313    0.0000 C   0  0  0  0  0  0  0  2  0  0  0  0
    1.0717   -1.4438    0.0000 C   0  0  0  0  0  0  0  2  0  0  0  0
    1.7862   -1.0313    0.0000 C   0  0  0  0  0  0  0  2  0  0  0  0
    2.5006   -1.4438    0.0000 N   0  0  0  0  0  0  0  2  0  0  0  0
    3.2151   -1.0313    0.0000 C   0  0  0  0  0  0  0  2  0  0  0  0
    3.2151   -0.2062    0.0000 O   0  0  0  0  0  0  0  2  0  0  0  0
    3.9296   -1.4438    0.0000 C   0  0  0  0  0  0  0  2  0  0  0  0
    4.6441   -1.0313    0.0000 C   0  0  0  0  0  0  0  2  0  0  0  0
    4.6441   -0.2062    0.0000 O   0  0  0  0  0  0  0  2  0  0  0  0
    5.3585   -1.4438    0.0000 C   0  0  0  0  0  0  0  2  0  0  0  0
    1.7862   -0.2062    0.0000 C   0  0  0  0  0  0  0  2  0  0  0  0
    2.5006    0.2062    0.0000 C   0  0  0  0  0  0  0  2  0  0  0  0
    1.0717    0.2062    0.0000 C   0  0  0  0  0  0  0  2  0  0  0  0
   -0.3572    1.0313    0.0000 C   0  0  0  0  0  0  0  2  0  0  0  0
   -1.0717    1.4437    0.0000 C   0  0  0  0  0  0  0  2  0  0  0  0
   -2.5006   -0.2062    0.0000 C   0  0  0  0  0  0  0  2  0  0  0  0
   -3.9296    1.4437    0.0000 C   0  0  0  0  0  0  0  2  0  0  0  0
   -4.6441    1.0313    0.0000 C   0  0  0  0  0  0  0  2  0  0  0  0
   -4.6441    0.2062    0.0000 O   0  0  0  0  0  0  0  2  0  0  0  0
   -5.3585    1.4437    0.0000 C   0  0  0  0  0  0  0  2  0  0  0  0
  1  2  2  0        0
  2  3  1  0        0
  3  4  1  0        0
  4  5  4  0        0
  5  6  4  0        0
  6  7  4  0        0
  7  8  1  0        0
  8  9  4  0        0
  9 10  4  0        0
 10 11  4  0        0
 11 12  1  0        0
 12 13  1  0        0
 13 14  2  0        0
 13 15  1  0        0
 15 16  1  0        0
 16 17  2  0        0
 16 18  1  0        0
 11 19  4  0        0
 19 20  1  0        0
 19 21  4  0        0
  8 21  4  0        0
  7 22  4  0        0
 22 23  4  0        0
  4 23  4  0        0
  5 24  1  0        0
  2 25  1  0        0
 25 26  1  0        0
 26 27  2  0        0
 26 28  1  0        0
M  END
$$$$

CDXL12

 18 20  0  0  0  0  0  0  0  0999 V2000
    0.7145   -0.2063    0.0000 C   0  0  0  0  0  0  0  2  0  0  0  0
    1.4289    0.2062    0.0000 C   0  0  0  0  0  0  0  2  0  0  0  0
    1.4289    1.0312    0.0000 C   0  0  0  0  0  0  0  2  0  0  0  0
    2.1434    1.4437    0.0000 C   0  0  0  0  0  0  0  2  0  0  0  0
    2.8579    1.0312    0.0000 C   0  0  0  0  0  0  0  2  0  0  0  0
    2.8579    0.2062    0.0000 C   0  0  0  0  0  0  0  2  0  0  0  0
    2.1434   -0.2063    0.0000 C   0  0  0  0  0  0  0  2  0  0  0  0
    0.7145   -1.0313    0.0000 C   0  0  0  0  0  0  0  2  0  0  0  0
    0.0000   -1.4437    0.0000 C   0  0  0  0  0  0  0  2  0  0  0  0
   -0.7145   -1.0313    0.0000 C   0  0  0  0  0  0  0  2  0  0  0  0
   -0.7145   -0.2063    0.0000 C   0  0  0  0  0  0  0  2  0  0  0  0
   -1.4289    0.2062    0.0000 C   0  0  0  0  0  0  0  2  0  0  0  0
   -2.1434   -0.2063    0.0000 C   0  0  0  0  0  0  0  2  0  0  0  0
   -2.8579    0.2062    0.0000 C   0  0  0  0  0  0  0  2  0  0  0  0
   -2.8579    1.0312    0.0000 C   0  0  0  0  0  0  0  2  0  0  0  0
   -2.1434    1.4437    0.0000 C   0  0  0  0  0  0  0  2  0  0  0  0
   -1.4289    1.0312    0.0000 C   0  0  0  0  0  0  0  2  0  0  0  0
    0.0000    0.2062    0.0000 C   0  0  0  0  0  0  0  2  0  0  0  0
  1  2  1  0        0
  2  3  4  0        0
  3  4  4  0        0
  4  5  4  0        0
  5  6  4  0        0
  6  7  4  0        0
  2  7  4  0        0
  1  8  4  0        0
  8  9  4  0        0
  9 10  4  0        0
 10 11  4  0        0
 11 12  1  0        0
 12 13  4  0        0
 13 14  4  0        0
 14 15  4  0        0
 15 16  4  0        0
 16 17  4  0        0
 12 17  4  0        0
 11 18  4  0        0
  1 18  4  0        0
M  END
$$$$

CDXL12

 18 21  0  0  0  0  0  0  0  0999 V2000
    0.0000    0.4125    0.0000 C   0  0  0  0  0  0  0  2  0  0  0  0
    0.0000   -0.4125    0.0000 C   0  0  0  0  0  0  0  2  0  0  0  0
    0.7145   -0.8250    0.0000 C   0  0  0  0  0  0  0  2  0  0  0  0
    1.4289   -0.4125    0.0000 C   0  0  0  0  0  0  0  2  0  0  0  0
    1.4289    0.4125    0.0000 C   0  0  0  0  0  0  0  2  0  0  0  0
    2.1434    0.8250    0.0000 C   0  0  0  0  0  0  0  2  0  0  0  0
    2.8579    0.4125    0.0000 C   0  0  0  0  0  0  0  2  0  0  0  0
    2.8579   -0.4125    0.0000 C   0  0  0  0  0  0  0  2  0  0  0  0
    2.1434   -0.8250    0.0000 C   0  0  0  0  0  0  0  2  0  0  0  0
    0.7145    0.8250    0.0000 C   0  0  0  0  0  0  0  2  0  0  0  0
   -0.7145   -0.8250    0.0000 C   0  0  0  0  0  0  0  2  0  0  0  0
   -1.4289   -0.4125    0.0000 C   0  0  0  0  0  0  0  2  0  0  0  0
   -1.4289    0.4125    0.0000 C   0  0  0  0  0  0  0  2  0  0  0  0
   -2.1434    0.8250    0.0000 C   0  0  0  0  0  0  0  2  0  0  0  0
   -2.8579    0.4125    0.0000 C   0  0  0  0  0  0  0  2  0  0  0  0
   -2.8579   -0.4125    0.0000 C   0  0  0  0  0  0  0  2  0  0  0  0
   -2.1434   -0.8250    0.0000 C   0  0  0  0  0  0  0  2  0  0  0  0
   -0.7145    0.8250    0.0000 C   0  0  0  0  0  0  0  2  0  0  0  0
  1  2  4  0        0
  2  3  4  0        0
  3  4  4  0        0
  4  5  4  0        0
  5  6  4  0        0
  6  7  4  0        0
  7  8  4  0        0
  8  9  4  0        0
  4  9  4  0        0
  5 10  4  0        0
  1 10  4  0        0
  2 11  4  0        0
 11 12  4  0        0
 12 13  4  0        0
 13 14  4  0        0
 14 15  4  0        0
 15 16  4  0        0
 16 17  4  0        0
 12 17  4  0        0
 13 18  4  0        0
  1 18  4  0        0
M  END
$$$$

CDXL12

 12 13  0  0  0  0  0  0  0  0999 V2000
    1.7862   -0.8250    0.0000 O   0  0  0  0  0  0  0  2  0  0  0  0
    1.0717   -0.4125    0.0000 C   0  0  0  0  0  0  0  2  0  0  0  0
    1.0717    0.4125    0.0000 C   0  0  0  0  0  0  0  2  0  0  0  0
    1.7862    0.8250    0.0000 O   0  0  0  0  0  0  0  2  0  0  0  0
    0.3572    0.8250    0.0000 C   0  0  0  0  0  0  0  2  0  0  0  0
   -0.3572    0.4125    0.0000 C   0  0  0  0  0  0  0  2  0  0  0  0
   -0.3572   -0.4125    0.0000 C   0  0  0  0  0  0  0  2  0  0  0  0
   -1.0717   -0.8250    0.0000 C   0  0  0  0  0  0  0  2  0  0  0  0
   -1.7862   -0.4125    0.0000 C   0  0  0  0  0  0  0  2  0  0  0  0
   -1.7862    0.4125    0.0000 C   0  0  0  0  0  0  0  2  0  0  0  0
   -1.0717    0.8250    0.0000 C   0  0  0  0  0  0  0  2  0  0  0  0
    0.3572   -0.8250    0.0000 C   0  0  0  0  0  0  0  2  0  0  0  0
  1  2  1  0        0
  2  3  4  0        0
  3  4  1  0        0
  3  5  4  0        0
  5  6  4  0        0
  6  7  4  0        0
  7  8  4  0        0
  8  9  4  0        0
  9 10  4  0        0
 10 11  4  0        0
  6 11  4  0        0
  7 12  4  0        0
  2 12  4  0        0
M  END
$$$$

CDXL12

 12 13  0  0  0  0  0  0  0  0999 V2000
   -0.3572   -0.2063    0.0000 C   0  0  0  0  0  0  0  2  0  0  0  0
    0.3572    0.2062    0.0000 C   0  0  0  0  0  0  0  2  0  0  0  0
    0.3572    1.0312    0.0000 C   0  0  0  0  0  0  0  2  0  0  0  0
    1.0717    1.4437    0.0000 C   0  0  0  0  0  0  0  2  0  0  0  0
    1.7862    1.0312    0.0000 C   0  0  0  0  0  0  0  2  0  0  0  0
    1.7862    0.2062    0.0000 C   0  0  0  0  0  0  0  2  0  0  0  0
    1.0717   -0.2063    0.0000 C   0  0  0  0  0  0  0  2  0  0  0  0
   -0.3572   -1.0313    0.0000 C   0  0  0  0  0  0  0  2  0  0  0  0
   -1.0717   -1.4437    0.0000 C   0  0  0  0  0  0  0  2  0  0  0  0
   -1.7862   -1.0313    0.0000 C   0  0  0  0  0  0  0  2  0  0  0  0
   -1.7862   -0.2063    0.0000 C   0  0  0  0  0  0  0  2  0  0  0  0
   -1.0717    0.2062    0.0000 C   0  0  0  0  0  0  0  2  0  0  0  0
  1  2  1  0        0
  2  3  4  0        0
  3  4  4  0        0
  4  5  4  0        0
  5  6  4  0        0
  6  7  4  0        0
  2  7  4  0        0
  1  8  4  0        0
  8  9  4  0        0
  9 10  4  0        0
 10 11  4  0        0
 11 12  4  0        0
  1 12  4  0        0
M  END
$$$$

CDXL12

 13 14  0  0  0  0  0  0  0  0999 V2000
    1.4289    1.0312    0.0000 C   0  0  0  0  0  0  0  2  0  0  0  0
    1.4289    0.2062    0.0000 C   0  0  0  0  0  0  0  2  0  0  0  0
    0.7145   -0.2062    0.0000 C   0  0  0  0  0  0  0  2  0  0  0  0
    0.0000    0.2062    0.0000 C   0  0  0  0  0  0  0  2  0  0  0  0
   -0.7145   -0.2062    0.0000 C   0  0  0  0  0  0  0  2  0  0  0  0
   -0.7145   -1.0312    0.0000 C   0  0  0  0  0  0  0  2  0  0  0  0
   -1.4289   -1.4437    0.0000 C   0  0  0  0  0  0  0  2  0  0  0  0
   -2.1434   -1.0312    0.0000 C   0  0  0  0  0  0  0  2  0  0  0  0
   -2.1434   -0.2062    0.0000 C   0  0  0  0  0  0  0  2  0  0  0  0
   -1.4289    0.2062    0.0000 C   0  0  0  0  0  0  0  2  0  0  0  0
    0.0000    1.0312    0.0000 C   0  0  0  0  0  0  0  2  0  0  0  0
    0.7145    1.4437    0.0000 C   0  0  0  0  0  0  0  2  0  0  0  0
    2.1434    1.4437    0.0000 Br  0  0  0  0  0  0  0  2  0  0  0  0
  1  2  4  0        0
  2  3  4  0        0
  3  4  4  0        0
  4  5  1  0        0
  5  6  4  0        0
  6  7  4  0        0
  7  8  4  0        0
  8  9  4  0        0
  9 10  4  0        0
  5 10  4  0        0
  4 11  4  0        0
 11 12  4  0        0
  1 12  4  0        0
  1 13  1  0        0
M  END
$$$$

CDXL12

 13 14  0  0  0  0  0  0  0  0999 V2000
    2.1434    1.4437    0.0000 O   0  0  0  0  0  0  0  2  0  0  0  0
    1.4289    1.0312    0.0000 C   0  0  0  0  0  0  0  2  0  0  0  0
    1.4289    0.2062    0.0000 C   0  0  0  0  0  0  0  2  0  0  0  0
    0.7145   -0.2062    0.0000 C   0  0  0  0  0  0  0  2  0  0  0  0
    0.0000    0.2062    0.0000 C   0  0  0  0  0  0  0  2  0  0  0  0
   -0.7145   -0.2062    0.0000 C   0  0  0  0  0  0  0  2  0  0  0  0
   -0.7145   -1.0312    0.0000 C   0  0  0  0  0  0  0  2  0  0  0  0
   -1.4289   -1.4437    0.0000 C   0  0  0  0  0  0  0  2  0  0  0  0
   -2.1434   -1.0312    0.0000 C   0  0  0  0  0  0  0  2  0  0  0  0
   -2.1434   -0.2062    0.0000 C   0  0  0  0  0  0  0  2  0  0  0  0
   -1.4289    0.2062    0.0000 C   0  0  0  0  0  0  0  2  0  0  0  0
    0.0000    1.0312    0.0000 C   0  0  0  0  0  0  0  2  0  0  0  0
    0.7145    1.4437    0.0000 C   0  0  0  0  0  0  0  2  0  0  0  0
  1  2  1  0        0
  2  3  4  0        0
  3  4  4  0        0
  4  5  4  0        0
  5  6  1  0        0
  6  7  4  0        0
  7  8  4  0        0
  8  9  4  0        0
  9 10  4  0        0
 10 11  4  0        0
  6 11  4  0        0
  5 12  4  0        0
 12 13  4  0        0
  2 13  4  0        0
M  END
$$$$

CDXL12

 14 16  0  0  0  0  0  0  0  0999 V2000
    0.0000    0.8250    0.0000 N   0  0  0  0  0  0  0  2  0  0  0  0
   -0.7145    0.4125    0.0000 C   0  0  0  0  0  0  0  2  0  0  0  0
   -0.7145   -0.4125    0.0000 C   0  0  0  0  0  0  0  2  0  0  0  0
    0.0000   -0.8250    0.0000 S   0  0  0  0  0  0  0  2  0  0  0  0
    0.7145   -0.4125    0.0000 C   0  0  0  0  0  0  0  2  0  0  0  0
    1.4289   -0.8250    0.0000 C   0  0  0  0  0  0  0  2  0  0  0  0
    2.1434   -0.4125    0.0000 C   0  0  0  0  0  0  0  2  0  0  0  0
    2.1434    0.4125    0.0000 C   0  0  0  0  0  0  0  2  0  0  0  0
    1.4289    0.8250    0.0000 C   0  0  0  0  0  0  0  2  0  0  0  0
    0.7145    0.4125    0.0000 C   0  0  0  0  0  0  0  2  0  0  0  0
   -1.4289   -0.8250    0.0000 C   0  0  0  0  0  0  0  2  0  0  0  0
   -2.1434   -0.4125    0.0000 C   0  0  0  0  0  0  0  2  0  0  0  0
   -2.1434    0.4125    0.0000 C   0  0  0  0  0  0  0  2  0  0  0  0
   -1.4289    0.8250    0.0000 C   0  0  0  0  0  0  0  2  0  0  0  0
  1  2  1  0        0
  2  3  4  0        0
  3  4  1  0        0
  4  5  1  0        0
  5  6  4  0        0
  6  7  4  0        0
  7  8  4  0        0
  8  9  4  0        0
  9 10  4  0        0
  1 10  1  0        0
  5 10  4  0        0
  3 11  4  0        0
 11 12  4  0        0
 12 13  4  0        0
 13 14  4  0        0
  2 14  4  0        0
M  END
$$$$

CDXL12

 14 15  0  0  0  0  0  0  0  0999 V2000
    1.7862    1.0312    0.0000 C   0  0  0  0  0  0  0  2  0  0  0  0
    1.7862    0.2062    0.0000 C   0  0  0  0  0  0  0  2  0  0  0  0
    1.0717   -0.2062    0.0000 C   0  0  0  0  0  0  0  2  0  0  0  0
    0.3572    0.2062    0.0000 C   0  0  0  0  0  0  0  2  0  0  0  0
   -0.3572   -0.2062    0.0000 C   0  0  0  0  0  0  0  2  0  0  0  0
   -0.3572   -1.0312    0.0000 C   0  0  0  0  0  0  0  2  0  0  0  0
   -1.0717   -1.4437    0.0000 C   0  0  0  0  0  0  0  2  0  0  0  0
   -1.7862   -1.0312    0.0000 C   0  0  0  0  0  0  0  2  0  0  0  0
   -1.7862   -0.2062    0.0000 C   0  0  0  0  0  0  0  2  0  0  0  0
   -1.0717    0.2062    0.0000 C   0  0  0  0  0  0  0  2  0  0  0  0
   -2.5006   -1.4437    0.0000 Br  0  0  0  0  0  0  0  2  0  0  0  0
    0.3572    1.0312    0.0000 C   0  0  0  0  0  0  0  2  0  0  0  0
    1.0717    1.4437    0.0000 C   0  0  0  0  0  0  0  2  0  0  0  0
    2.5006    1.4437    0.0000 Br  0  0  0  0  0  0  0  2  0  0  0  0
  1  2  4  0        0
  2  3  4  0        0
  3  4  4  0        0
  4  5  1  0        0
  5  6  4  0        0
  6  7  4  0        0
  7  8  4  0        0
  8  9  4  0        0
  9 10  4  0        0
  5 10  4  0        0
  8 11  1  0        0
  4 12  4  0        0
 12 13  4  0        0
  1 13  4  0        0
  1 14  1  0        0
M  END
$$$$

CDXL12

 14 15  0  0  0  0  0  0  0  0999 V2000
    2.5006    1.4437    0.0000 N   0  0  0  0  0  0  0  2  0  0  0  0
    1.7862    1.0312    0.0000 C   0  0  0  0  0  0  0  2  0  0  0  0
    1.7862    0.2062    0.0000 C   0  0  0  0  0  0  0  2  0  0  0  0
    1.0717   -0.2062    0.0000 C   0  0  0  0  0  0  0  2  0  0  0  0
    0.3572    0.2062    0.0000 C   0  0  0  0  0  0  0  2  0  0  0  0
   -0.3572   -0.2062    0.0000 C   0  0  0  0  0  0  0  2  0  0  0  0
   -0.3572   -1.0312    0.0000 C   0  0  0  0  0  0  0  2  0  0  0  0
   -1.0717   -1.4437    0.0000 C   0  0  0  0  0  0  0  2  0  0  0  0
   -1.7862   -1.0312    0.0000 C   0  0  0  0  0  0  0  2  0  0  0  0
   -2.5006   -1.4437    0.0000 N   0  0  0  0  0  0  0  2  0  0  0  0
   -1.7862   -0.2062    0.0000 C   0  0  0  0  0  0  0  2  0  0  0  0
   -1.0717    0.2062    0.0000 C   0  0  0  0  0  0  0  2  0  0  0  0
    0.3572    1.0312    0.0000 C   0  0  0  0  0  0  0  2  0  0  0  0
    1.0717    1.4437    0.0000 C   0  0  0  0  0  0  0  2  0  0  0  0
  1  2  1  0        0
  2  3  4  0        0
  3  4  4  0        0
  4  5  4  0        0
  5  6  1  0        0
  6  7  4  0        0
  7  8  4  0        0
  8  9  4  0        0
  9 10  1  0        0
  9 11  4  0        0
 11 12  4  0        0
  6 12  4  0        0
  5 13  4  0        0
 13 14  4  0        0
  2 14  4  0        0
M  END
$$$$

CDXL12

 15 16  0  0  0  0  0  0  0  0999 V2000
    1.7862    1.8562    0.0000 O   0  0  0  0  0  0  0  2  0  0  0  0
    1.7862    1.0312    0.0000 C   0  0  0  0  0  0  0  2  0  0  0  0
    1.0717    0.6187    0.0000 C   0  0  0  0  0  0  0  2  0  0  0  0
    1.0717   -0.2063    0.0000 C   0  0  0  0  0  0  0  2  0  0  0  0
    0.3572   -0.6187    0.0000 C   0  0  0  0  0  0  0  2  0  0  0  0
   -0.3572   -0.2063    0.0000 C   0  0  0  0  0  0  0  2  0  0  0  0
   -1.0717   -0.6187    0.0000 C   0  0  0  0  0  0  0  2  0  0  0  0
   -1.0717   -1.4437    0.0000 C   0  0  0  0  0  0  0  2  0  0  0  0
   -1.7862   -1.8562    0.0000 C   0  0  0  0  0  0  0  2  0  0  0  0
   -2.5006   -1.4437    0.0000 C   0  0  0  0  0  0  0  2  0  0  0  0
   -2.5006   -0.6187    0.0000 C   0  0  0  0  0  0  0  2  0  0  0  0
   -1.7862   -0.2063    0.0000 C   0  0  0  0  0  0  0  2  0  0  0  0
   -0.3572    0.6187    0.0000 C   0  0  0  0  0  0  0  2  0  0  0  0
    0.3572    1.0312    0.0000 C   0  0  0  0  0  0  0  2  0  0  0  0
    2.5006    0.6187    0.0000 C   0  0  0  0  0  0  0  2  0  0  0  0
  1  2  2  0        0
  2  3  1  0        0
  3  4  4  0        0
  4  5  4  0        0
  5  6  4  0        0
  6  7  1  0        0
  7  8  4  0        0
  8  9  4  0        0
  9 10  4  0        0
 10 11  4  0        0
 11 12  4  0        0
  7 12  4  0        0
  6 13  4  0        0
 13 14  4  0        0
  3 14  4  0        0
  2 15  1  0        0
M  END
$$$$

CDXL12

 18 20  0  0  0  0  0  0  0  0999 V2000
    0.7145    0.4125    0.0000 C   0  0  0  0  0  0  0  2  0  0  0  0
    1.4289    0.8250    0.0000 C   0  0  0  0  0  0  0  2  0  0  0  0
    1.4289    1.6500    0.0000 C   0  0  0  0  0  0  0  2  0  0  0  0
    2.1434    2.0625    0.0000 C   0  0  0  0  0  0  0  2  0  0  0  0
    2.8579    1.6500    0.0000 C   0  0  0  0  0  0  0  2  0  0  0  0
    2.8579    0.8250    0.0000 C   0  0  0  0  0  0  0  2  0  0  0  0
    2.1434    0.4125    0.0000 C   0  0  0  0  0  0  0  2  0  0  0  0
    0.7145   -0.4125    0.0000 C   0  0  0  0  0  0  0  2  0  0  0  0
    0.0000   -0.8250    0.0000 C   0  0  0  0  0  0  0  2  0  0  0  0
   -0.7145   -0.4125    0.0000 C   0  0  0  0  0  0  0  2  0  0  0  0
   -1.4289   -0.8250    0.0000 C   0  0  0  0  0  0  0  2  0  0  0  0
   -1.4289   -1.6500    0.0000 C   0  0  0  0  0  0  0  2  0  0  0  0
   -2.1434   -2.0625    0.0000 C   0  0  0  0  0  0  0  2  0  0  0  0
   -2.8579   -1.6500    0.0000 C   0  0  0  0  0  0  0  2  0  0  0  0
   -2.8579   -0.8250    0.0000 C   0  0  0  0  0  0  0  2  0  0  0  0
   -2.1434   -0.4125    0.0000 C   0  0  0  0  0  0  0  2  0  0  0  0
   -0.7145    0.4125    0.0000 C   0  0  0  0  0  0  0  2  0  0  0  0
    0.0000    0.8250    0.0000 C   0  0  0  0  0  0  0  2  0  0  0  0
  1  2  1  0        0
  2  3  4  0        0
  3  4  4  0        0
  4  5  4  0        0
  5  6  4  0        0
  6  7  4  0        0
  2  7  4  0        0
  1  8  4  0        0
  8  9  4  0        0
  9 10  4  0        0
 10 11  1  0        0
 11 12  4  0        0
 12 13  4  0        0
 13 14  4  0        0
 14 15  4  0        0
 15 16  4  0        0
 11 16  4  0        0
 10 17  4  0        0
 17 18  4  0        0
  1 18  4  0        0
M  END
$$$$

CDXL12

 13 14  0  0  0  0  0  0  0  0999 V2000
    1.4289    1.2375    0.0000 O   0  0  0  0  0  0  0  2  0  0  0  0
    1.4289    0.4125    0.0000 C   0  0  0  0  0  0  0  2  0  0  0  0
    0.7145    0.0000    0.0000 C   0  0  0  0  0  0  0  2  0  0  0  0
    0.7145   -0.8250    0.0000 C   0  0  0  0  0  0  0  2  0  0  0  0
    0.0000   -1.2375    0.0000 C   0  0  0  0  0  0  0  2  0  0  0  0
   -0.7145   -0.8250    0.0000 C   0  0  0  0  0  0  0  2  0  0  0  0
   -0.7145    0.0000    0.0000 C   0  0  0  0  0  0  0  2  0  0  0  0
   -1.4289    0.4125    0.0000 C   0  0  0  0  0  0  0  2  0  0  0  0
   -2.1434   -0.0000    0.0000 C   0  0  0  0  0  0  0  2  0  0  0  0
   -2.1434   -0.8250    0.0000 C   0  0  0  0  0  0  0  2  0  0  0  0
   -1.4289   -1.2375    0.0000 C   0  0  0  0  0  0  0  2  0  0  0  0
    0.0000    0.4125    0.0000 C   0  0  0  0  0  0  0  2  0  0  0  0
    2.1434    0.0000    0.0000 C   0  0  0  0  0  0  0  2  0  0  0  0
  1  2  2  0        0
  2  3  1  0        0
  3  4  4  0        0
  4  5  4  0        0
  5  6  4  0        0
  6  7  4  0        0
  7  8  4  0        0
  8  9  4  0        0
  9 10  4  0        0
 10 11  4  0        0
  6 11  4  0        0
  7 12  4  0        0
  3 12  4  0        0
  2 13  1  0        0
M  END
$$$$

CDXL12

 13 14  0  0  0  0  0  0  0  0999 V2000
    1.4289    1.2375    0.0000 O   0  0  0  0  0  0  0  2  0  0  0  0
    1.4289    0.4125    0.0000 C   0  0  0  0  0  0  0  2  0  0  0  0
    2.1434    0.0000    0.0000 O   0  0  0  0  0  0  0  2  0  0  0  0
    0.7145    0.0000    0.0000 C   0  0  0  0  0  0  0  2  0  0  0  0
    0.7145   -0.8250    0.0000 C   0  0  0  0  0  0  0  2  0  0  0  0
    0.0000   -1.2375    0.0000 C   0  0  0  0  0  0  0  2  0  0  0  0
   -0.7145   -0.8250    0.0000 C   0  0  0  0  0  0  0  2  0  0  0  0
   -0.7145    0.0000    0.0000 C   0  0  0  0  0  0  0  2  0  0  0  0
   -1.4289    0.4125    0.0000 C   0  0  0  0  0  0  0  2  0  0  0  0
   -2.1434   -0.0000    0.0000 C   0  0  0  0  0  0  0  2  0  0  0  0
   -2.1434   -0.8250    0.0000 C   0  0  0  0  0  0  0  2  0  0  0  0
   -1.4289   -1.2375    0.0000 C   0  0  0  0  0  0  0  2  0  0  0  0
    0.0000    0.4125    0.0000 C   0  0  0  0  0  0  0  2  0  0  0  0
  1  2  2  0        0
  2  3  1  0        0
  2  4  1  0        0
  4  5  4  0        0
  5  6  4  0        0
  6  7  4  0        0
  7  8  4  0        0
  8  9  4  0        0
  9 10  4  0        0
 10 11  4  0        0
 11 12  4  0        0
  7 12  4  0        0
  8 13  4  0        0
  4 13  4  0        0
M  END
$$$$

CDXL12

 13 13  0  0  0  0  0  0  0  0999 V2000
   -1.7862    0.8250    0.0000 O   0  0  0  0  0  0  0  2  0  0  0  0
   -1.0717    0.4125    0.0000 C   0  0  0  0  0  0  0  2  0  0  0  0
   -1.0717   -0.4125    0.0000 C   0  0  0  0  0  0  0  2  0  0  0  0
   -1.7862   -0.8250    0.0000 O   0  0  0  0  0  0  0  2  0  0  0  0
   -2.5006   -0.4125    0.0000 C   0  0  0  0  0  0  0  2  0  0  0  0
   -0.3572   -0.8250    0.0000 C   0  0  0  0  0  0  0  2  0  0  0  0
    0.3572   -0.4125    0.0000 C   0  0  0  0  0  0  0  2  0  0  0  0
    0.3572    0.4125    0.0000 C   0  0  0  0  0  0  0  2  0  0  0  0
   -0.3572    0.8250    0.0000 C   0  0  0  0  0  0  0  2  0  0  0  0
    1.0717   -0.8250    0.0000 C   0  0  0  0  0  0  0  2  0  0  0  0
    1.7862   -0.4125    0.0000 C   0  0  0  0  0  0  0  2  0  0  0  0
    2.5006   -0.8250    0.0000 C   0  0  0  0  0  0  0  2  0  0  0  0
   -2.5006    0.4125    0.0000 C   0  0  0  0  0  0  0  2  0  0  0  0
  1  2  1  0        0
  2  3  4  0        0
  3  4  1  0        0
  4  5  1  0        0
  3  6  4  0        0
  6  7  4  0        0
  7  8  4  0        0
  8  9  4  0        0
  2  9  4  0        0
  7 10  1  0        0
 10 11  1  0        0
 11 12  2  0        0
  1 13  1  0        0
M  END
$$$$

CDXL12

 10 10  0  0  0  0  0  0  0  0999 V2000
   -0.3572    1.2375    0.0000 O   0  0  0  0  0  0  0  2  0  0  0  0
   -0.3572    0.4125    0.0000 C   0  0  0  0  0  0  0  2  0  0  0  0
    0.3572    0.0000    0.0000 C   0  0  0  0  0  0  0  2  0  0  0  0
    1.0717    0.4125    0.0000 C   0  0  0  0  0  0  0  2  0  0  0  0
    1.7862   -0.0000    0.0000 C   0  0  0  0  0  0  0  2  0  0  0  0
    1.7862   -0.8250    0.0000 C   0  0  0  0  0  0  0  2  0  0  0  0
    1.0717   -1.2375    0.0000 C   0  0  0  0  0  0  0  2  0  0  0  0
    0.3572   -0.8250    0.0000 C   0  0  0  0  0  0  0  2  0  0  0  0
   -1.0717    0.0000    0.0000 C   0  0  0  0  0  0  0  2  0  0  0  0
   -1.7862    0.4125    0.0000 C   0  0  0  0  0  0  0  2  0  0  0  0
  1  2  2  0        0
  2  3  1  0        0
  3  4  4  0        0
  4  5  4  0        0
  5  6  4  0        0
  6  7  4  0        0
  7  8  4  0        0
  3  8  4  0        0
  2  9  1  0        0
  9 10  1  0        0
M  END
$$$$

CDXL12

 10 10  0  0  0  0  0  0  0  0999 V2000
    0.3572    1.2375    0.0000 O   0  0  0  0  0  0  0  2  0  0  0  0
    0.3572    0.4125    0.0000 C   0  0  0  0  0  0  0  2  0  0  0  0
    1.0717   -0.0000    0.0000 O   0  0  0  0  0  0  0  2  0  0  0  0
    1.7862    0.4125    0.0000 C   0  0  0  0  0  0  0  2  0  0  0  0
   -0.3572   -0.0000    0.0000 C   0  0  0  0  0  0  0  2  0  0  0  0
   -1.0717    0.4125    0.0000 C   0  0  0  0  0  0  0  2  0  0  0  0
   -1.7862   -0.0000    0.0000 C   0  0  0  0  0  0  0  2  0  0  0  0
   -1.7862   -0.8250    0.0000 C   0  0  0  0  0  0  0  2  0  0  0  0
   -1.0717   -1.2375    0.0000 N   0  0  0  0  0  0  0  2  0  0  0  0
   -0.3572   -0.8250    0.0000 C   0  0  0  0  0  0  0  2  0  0  0  0
  1  2  2  0        0
  2  3  1  0        0
  3  4  1  0        0
  2  5  1  0        0
  5  6  4  0        0
  6  7  4  0        0
  7  8  4  0        0
  8  9  4  0        0
  9 10  4  0        0
  5 10  4  0        0
M  END
$$$$

CDXL12

 14 14  0  0  0  0  0  0  0  0999 V2000
    1.7862    1.2375    0.0000 O   0  0  0  0  0  0  0  2  0  0  0  0
    1.7862    0.4125    0.0000 C   0  0  0  0  0  0  0  2  0  0  0  0
    2.5006   -0.0000    0.0000 O   0  0  0  0  0  0  0  2  0  0  0  0
    1.0717   -0.0000    0.0000 C   0  0  0  0  0  0  0  2  0  0  0  0
    0.3572    0.4125    0.0000 O   0  0  0  0  0  0  0  2  0  0  0  0
   -0.3572   -0.0000    0.0000 C   0  0  0  0  0  0  0  2  0  0  0  0
   -0.3572   -0.8250    0.0000 C   0  0  0  0  0  0  0  2  0  0  0  0
   -1.0717   -1.2375    0.0000 C   0  0  0  0  0  0  0  2  0  0  0  0
   -1.7862   -0.8250    0.0000 C   0  0  0  0  0  0  0  2  0  0  0  0
   -1.7862   -0.0000    0.0000 C   0  0  0  0  0  0  0  2  0  0  0  0
   -1.0717    0.4125    0.0000 C   0  0  0  0  0  0  0  2  0  0  0  0
   -2.5006   -1.2375    0.0000 Cl  0  0  0  0  0  0  0  2  0  0  0  0
    0.3572   -1.2375    0.0000 C   0  0  0  0  0  0  0  2  0  0  0  0
    1.0717   -0.8250    0.0000 C   0  0  0  0  0  0  0  2  0  0  0  0
  1  2  2  0        0
  2  3  1  0        0
  2  4  1  0        0
  4  5  1  0        0
  5  6  1  0        0
  6  7  4  0        0
  7  8  4  0        0
  8  9  4  0        0
  9 10  4  0        0
 10 11  4  0        0
  6 11  4  0        0
  9 12  1  0        0
  7 13  1  0        0
  4 14  1  0        0
M  END
$$$$

CDXL12

 11 10  0  0  0  0  0  0  0  0999 V2000
   -0.7145    1.6500    0.0000 O   0  0  0  0  0  0  0  2  0  0  0  0
   -0.7145    0.8250    0.0000 C   0  0  0  0  0  0  0  2  0  0  0  0
    0.0000    0.4125    0.0000 N   0  0  0  0  0  0  0  2  0  0  0  0
    0.7145    0.8250    0.0000 C   0  0  0  0  0  0  0  2  0  0  0  0
    1.4289    0.4125    0.0000 C   0  0  0  0  0  0  0  2  0  0  0  0
    2.1434    0.8250    0.0000 C   0  0  0  0  0  0  0  2  0  0  0  0
    0.0000   -0.4125    0.0000 C   0  0  0  0  0  0  0  2  0  0  0  0
    0.7145   -0.8250    0.0000 C   0  0  0  0  0  0  0  2  0  0  0  0
    0.7145   -1.6500    0.0000 C   0  0  0  0  0  0  0  2  0  0  0  0
   -1.4289    0.4125    0.0000 C   0  0  0  0  0  0  0  2  0  0  0  0
   -2.1434    0.8250    0.0000 Cl  0  0  0  0  0  0  0  2  0  0  0  0
  1  2  2  0        0
  2  3  1  0        0
  3  4  1  0        0
  4  5  1  0        0
  5  6  2  0        0
  3  7  1  0        0
  7  8  1  0        0
  8  9  2  0        0
  2 10  1  0        0
 10 11  1  0        0
M  END
$$$$

CDXL12

 15 15  0  0  0  0  0  0  0  0999 V2000
    1.0717   -0.8250    0.0000 C   0  0  0  0  0  0  0  2  0  0  0  0
    1.0717   -0.0000    0.0000 C   0  0  0  0  0  0  0  2  0  0  0  0
    0.3572    0.4125    0.0000 O   0  0  0  0  0  0  0  2  0  0  0  0
   -0.3572   -0.0000    0.0000 C   0  0  0  0  0  0  0  2  0  0  0  0
   -1.0717    0.4125    0.0000 C   0  0  0  0  0  0  0  2  0  0  0  0
   -1.7862   -0.0000    0.0000 C   0  0  0  0  0  0  0  2  0  0  0  0
   -2.5006    0.4125    0.0000 Cl  0  0  0  0  0  0  0  2  0  0  0  0
   -1.7862   -0.8250    0.0000 C   0  0  0  0  0  0  0  2  0  0  0  0
   -2.5006   -1.2375    0.0000 Cl  0  0  0  0  0  0  0  2  0  0  0  0
   -1.0717   -1.2375    0.0000 C   0  0  0  0  0  0  0  2  0  0  0  0
   -0.3572   -0.8250    0.0000 C   0  0  0  0  0  0  0  2  0  0  0  0
    0.3572   -1.2375    0.0000 Cl  0  0  0  0  0  0  0  2  0  0  0  0
    1.7862    0.4125    0.0000 C   0  0  0  0  0  0  0  2  0  0  0  0
    2.5006   -0.0000    0.0000 O   0  0  0  0  0  0  0  2  0  0  0  0
    1.7862    1.2375    0.0000 O   0  0  0  0  0  0  0  2  0  0  0  0
  1  2  1  0        0
  2  3  1  0        0
  3  4  1  0        0
  4  5  4  0        0
  5  6  4  0        0
  6  7  1  0        0
  6  8  4  0        0
  8  9  1  0        0
  8 10  4  0        0
 10 11  4  0        0
  4 11  4  0        0
 11 12  1  0        0
  2 13  1  0        0
 13 14  1  0        0
 13 15  2  0        0
M  END
$$$$

CDXL12

 14 14  0  0  0  0  0  0  0  0999 V2000
    1.7862    1.2375    0.0000 O   0  0  0  0  0  0  0  2  0  0  0  0
    1.7862    0.4125    0.0000 C   0  0  0  0  0  0  0  2  0  0  0  0
    2.5006    0.0000    0.0000 O   0  0  0  0  0  0  0  2  0  0  0  0
    1.0717    0.0000    0.0000 C   0  0  0  0  0  0  0  2  0  0  0  0
    0.3572    0.4125    0.0000 O   0  0  0  0  0  0  0  2  0  0  0  0
   -0.3572    0.0000    0.0000 C   0  0  0  0  0  0  0  2  0  0  0  0
   -0.3572   -0.8250    0.0000 C   0  0  0  0  0  0  0  2  0  0  0  0
   -1.0717   -1.2375    0.0000 C   0  0  0  0  0  0  0  2  0  0  0  0
   -1.7862   -0.8250    0.0000 C   0  0  0  0  0  0  0  2  0  0  0  0
   -1.7862   -0.0000    0.0000 C   0  0  0  0  0  0  0  2  0  0  0  0
   -2.5006    0.4125    0.0000 Cl  0  0  0  0  0  0  0  2  0  0  0  0
   -1.0717    0.4125    0.0000 C   0  0  0  0  0  0  0  2  0  0  0  0
   -2.5006   -1.2375    0.0000 Cl  0  0  0  0  0  0  0  2  0  0  0  0
    0.3572   -1.2375    0.0000 Cl  0  0  0  0  0  0  0  2  0  0  0  0
  1  2  2  0        0
  2  3  1  0        0
  2  4  1  0        0
  4  5  1  0        0
  5  6  1  0        0
  6  7  4  0        0
  7  8  4  0        0
  8  9  4  0        0
  9 10  4  0        0
 10 11  1  0        0
 10 12  4  0        0
  6 12  4  0        0
  9 13  1  0        0
  7 14  1  0        0
M  END
$$$$

CDXL12

 16 16  0  0  0  0  0  0  0  0999 V2000
   -3.2151   -1.2375    0.0000 Cl  0  0  0  0  0  0  0  2  0  0  0  0
   -2.5006   -0.8250    0.0000 C   0  0  0  0  0  0  0  2  0  0  0  0
   -1.7862   -1.2375    0.0000 C   0  0  0  0  0  0  0  2  0  0  0  0
   -1.0717   -0.8250    0.0000 C   0  0  0  0  0  0  0  2  0  0  0  0
   -0.3572   -1.2375    0.0000 Cl  0  0  0  0  0  0  0  2  0  0  0  0
   -1.0717    0.0000    0.0000 C   0  0  0  0  0  0  0  2  0  0  0  0
   -0.3572    0.4125    0.0000 O   0  0  0  0  0  0  0  2  0  0  0  0
    0.3572    0.0000    0.0000 C   0  0  0  0  0  0  0  2  0  0  0  0
    1.0717    0.4125    0.0000 C   0  0  0  0  0  0  0  2  0  0  0  0
    1.7862    0.0000    0.0000 C   0  0  0  0  0  0  0  2  0  0  0  0
    2.5006    0.4125    0.0000 C   0  0  0  0  0  0  0  2  0  0  0  0
    2.5006    1.2375    0.0000 O   0  0  0  0  0  0  0  2  0  0  0  0
    3.2151    0.0000    0.0000 O   0  0  0  0  0  0  0  2  0  0  0  0
   -1.7862    0.4125    0.0000 C   0  0  0  0  0  0  0  2  0  0  0  0
   -2.5006    0.0000    0.0000 C   0  0  0  0  0  0  0  2  0  0  0  0
   -3.2151    0.4125    0.0000 Cl  0  0  0  0  0  0  0  2  0  0  0  0
  1  2  1  0        0
  2  3  4  0        0
  3  4  4  0        0
  4  5  1  0        0
  4  6  4  0        0
  6  7  1  0        0
  7  8  1  0        0
  8  9  1  0        0
  9 10  1  0        0
 10 11  1  0        0
 11 12  2  0        0
 11 13  1  0        0
  6 14  4  0        0
 14 15  4  0        0
  2 15  4  0        0
 15 16  1  0        0
M  END
$$$$

CDXL12

 16 16  0  0  0  0  0  0  0  0999 V2000
    2.5006   -1.2375    0.0000 C   0  0  0  0  0  0  0  2  0  0  0  0
    2.5006   -0.4125    0.0000 C   0  0  0  0  0  0  0  2  0  0  0  0
    3.2151   -0.0000    0.0000 C   0  0  0  0  0  0  0  2  0  0  0  0
    1.7862   -0.0000    0.0000 O   0  0  0  0  0  0  0  2  0  0  0  0
    1.0717   -0.4125    0.0000 C   0  0  0  0  0  0  0  2  0  0  0  0
    1.0717   -1.2375    0.0000 O   0  0  0  0  0  0  0  2  0  0  0  0
    0.3572    0.0000    0.0000 C   0  0  0  0  0  0  0  2  0  0  0  0
   -0.3572   -0.4125    0.0000 O   0  0  0  0  0  0  0  2  0  0  0  0
   -1.0717   -0.0000    0.0000 C   0  0  0  0  0  0  0  2  0  0  0  0
   -1.7862   -0.4125    0.0000 C   0  0  0  0  0  0  0  2  0  0  0  0
   -2.5006   -0.0000    0.0000 C   0  0  0  0  0  0  0  2  0  0  0  0
   -2.5006    0.8250    0.0000 C   0  0  0  0  0  0  0  2  0  0  0  0
   -3.2151    1.2375    0.0000 Cl  0  0  0  0  0  0  0  2  0  0  0  0
   -1.7862    1.2375    0.0000 C   0  0  0  0  0  0  0  2  0  0  0  0
   -1.0717    0.8250    0.0000 C   0  0  0  0  0  0  0  2  0  0  0  0
   -0.3572    1.2375    0.0000 Cl  0  0  0  0  0  0  0  2  0  0  0  0
  1  2  1  0        0
  2  3  1  0        0
  2  4  1  0        0
  4  5  1  0        0
  5  6  2  0        0
  5  7  1  0        0
  7  8  1  0        0
  8  9  1  0        0
  9 10  4  0        0
 10 11  4  0        0
 11 12  4  0        0
 12 13  1  0        0
 12 14  4  0        0
 14 15  4  0        0
  9 15  4  0        0
 15 16  1  0        0
M  END
$$$$

CDXL12

 13 13  0  0  0  0  0  0  0  0999 V2000
    2.8579    0.4125    0.0000 C   0  0  0  0  0  0  0  2  0  0  0  0
    2.1434   -0.0000    0.0000 C   0  0  0  0  0  0  0  2  0  0  0  0
    1.4289    0.4125    0.0000 C   0  0  0  0  0  0  0  2  0  0  0  0
    0.7145   -0.0000    0.0000 O   0  0  0  0  0  0  0  2  0  0  0  0
    0.0000    0.4125    0.0000 C   0  0  0  0  0  0  0  2  0  0  0  0
    0.0000    1.2375    0.0000 O   0  0  0  0  0  0  0  2  0  0  0  0
   -0.7145   -0.0000    0.0000 C   0  0  0  0  0  0  0  2  0  0  0  0
   -0.7145   -0.8250    0.0000 C   0  0  0  0  0  0  0  2  0  0  0  0
   -1.4289   -1.2375    0.0000 C   0  0  0  0  0  0  0  2  0  0  0  0
   -2.1434   -0.8250    0.0000 C   0  0  0  0  0  0  0  2  0  0  0  0
   -2.8579   -1.2375    0.0000 N   0  0  0  0  0  0  0  2  0  0  0  0
   -2.1434   -0.0000    0.0000 C   0  0  0  0  0  0  0  2  0  0  0  0
   -1.4289    0.4125    0.0000 C   0  0  0  0  0  0  0  2  0  0  0  0
  1  2  1  0        0
  2  3  1  0        0
  3  4  1  0        0
  4  5  1  0        0
  5  6  2  0        0
  5  7  1  0        0
  7  8  4  0        0
  8  9  4  0        0
  9 10  4  0        0
 10 11  1  0        0
 10 12  4  0        0
 12 13  4  0        0
  7 13  4  0        0
M  END
$$$$

CDXL12

 17 17  0  0  0  0  0  0  0  0999 V2000
   -2.1434   -0.4678    0.0000 C   0  0  0  0  0  0  0  2  0  0  0  0
   -2.8579   -0.0553    0.0000 C   0  0  0  0  0  0  0  2  0  0  0  0
   -2.8579    0.7697    0.0000 C   0  0  0  0  0  0  0  2  0  0  0  0
   -3.5724    1.1822    0.0000 Cl  0  0  0  0  0  0  0  2  0  0  0  0
   -2.1434    1.1822    0.0000 C   0  0  0  0  0  0  0  2  0  0  0  0
   -1.4289    0.7697    0.0000 C   0  0  0  0  0  0  0  2  0  0  0  0
   -1.4289   -0.0553    0.0000 C   0  0  0  0  0  0  0  2  0  0  0  0
   -0.7145   -0.4678    0.0000 S   0  0  0  0  0  0  0  2  0  0  0  0
   -0.3020    0.2467    0.0000 O   0  0  0  0  0  0  0  2  0  0  0  0
   -1.1270   -1.1822    0.0000 O   0  0  0  0  0  0  0  2  0  0  0  0
    0.0000   -0.8803    0.0000 N   0  0  0  0  0  0  0  2  0  0  0  0
    0.7145   -0.4678    0.0000 C   0  0  0  0  0  0  0  2  0  0  0  0
    0.7145    0.3572    0.0000 O   0  0  0  0  0  0  0  2  0  0  0  0
    1.4289   -0.8803    0.0000 N   0  0  0  0  0  0  0  2  0  0  0  0
    2.1434   -0.4678    0.0000 C   0  0  0  0  0  0  0  2  0  0  0  0
    2.8579   -0.8803    0.0000 C   0  0  0  0  0  0  0  2  0  0  0  0
    3.5724   -0.4678    0.0000 C   0  0  0  0  0  0  0  2  0  0  0  0
  1  2  4  0        0
  2  3  4  0        0
  3  4  1  0        0
  3  5  4  0        0
  5  6  4  0        0
  6  7  4  0        0
  1  7  4  0        0
  7  8  1  0        0
  8  9  2  0        0
  8 10  2  0        0
  8 11  1  0        0
 11 12  1  0        0
 12 13  2  0        0
 12 14  1  0        0
 14 15  1  0        0
 15 16  1  0        0
 16 17  1  0        0
M  END
$$$$

CDXL12

 14 14  0  0  0  0  0  0  0  0999 V2000
   -0.3572    1.2375    0.0000 O   0  0  0  0  0  0  0  2  0  0  0  0
   -0.3572    0.4125    0.0000 C   0  0  0  0  0  0  0  2  0  0  0  0
    0.3572   -0.0000    0.0000 O   0  0  0  0  0  0  0  2  0  0  0  0
    1.0717    0.4125    0.0000 C   0  0  0  0  0  0  0  2  0  0  0  0
    1.7862   -0.0000    0.0000 C   0  0  0  0  0  0  0  2  0  0  0  0
    2.5006    0.4125    0.0000 C   0  0  0  0  0  0  0  2  0  0  0  0
    3.2151   -0.0000    0.0000 C   0  0  0  0  0  0  0  2  0  0  0  0
   -1.0717   -0.0000    0.0000 C   0  0  0  0  0  0  0  2  0  0  0  0
   -1.0717   -0.8250    0.0000 C   0  0  0  0  0  0  0  2  0  0  0  0
   -1.7862   -1.2375    0.0000 C   0  0  0  0  0  0  0  2  0  0  0  0
   -2.5006   -0.8250    0.0000 C   0  0  0  0  0  0  0  2  0  0  0  0
   -3.2151   -1.2375    0.0000 N   0  0  0  0  0  0  0  2  0  0  0  0
   -2.5006   -0.0000    0.0000 C   0  0  0  0  0  0  0  2  0  0  0  0
   -1.7862    0.4125    0.0000 C   0  0  0  0  0  0  0  2  0  0  0  0
  1  2  2  0        0
  2  3  1  0        0
  3  4  1  0        0
  4  5  1  0        0
  5  6  1  0        0
  6  7  1  0        0
  2  8  1  0        0
  8  9  4  0        0
  9 10  4  0        0
 10 11  4  0        0
 11 12  1  0        0
 11 13  4  0        0
 13 14  4  0        0
  8 14  4  0        0
M  END
$$$$

CDXL12

 14 14  0  0  0  0  0  0  0  0999 V2000
   -0.3572    1.2375    0.0000 O   0  0  0  0  0  0  0  2  0  0  0  0
   -0.3572    0.4125    0.0000 C   0  0  0  0  0  0  0  2  0  0  0  0
    0.3572   -0.0000    0.0000 O   0  0  0  0  0  0  0  2  0  0  0  0
    1.0717    0.4125    0.0000 C   0  0  0  0  0  0  0  2  0  0  0  0
    1.7862   -0.0000    0.0000 C   0  0  0  0  0  0  0  2  0  0  0  0
    2.5006    0.4125    0.0000 C   0  0  0  0  0  0  0  2  0  0  0  0
    3.2151   -0.0000    0.0000 C   0  0  0  0  0  0  0  2  0  0  0  0
   -1.0717   -0.0000    0.0000 C   0  0  0  0  0  0  0  2  0  0  0  0
   -1.0717   -0.8250    0.0000 C   0  0  0  0  0  0  0  2  0  0  0  0
   -1.7862   -1.2375    0.0000 C   0  0  0  0  0  0  0  2  0  0  0  0
   -2.5006   -0.8250    0.0000 C   0  0  0  0  0  0  0  2  0  0  0  0
   -3.2151   -1.2375    0.0000 O   0  0  0  0  0  0  0  2  0  0  0  0
   -2.5006   -0.0000    0.0000 C   0  0  0  0  0  0  0  2  0  0  0  0
   -1.7862    0.4125    0.0000 C   0  0  0  0  0  0  0  2  0  0  0  0
  1  2  2  0        0
  2  3  1  0        0
  3  4  1  0        0
  4  5  1  0        0
  5  6  1  0        0
  6  7  1  0        0
  2  8  1  0        0
  8  9  4  0        0
  9 10  4  0        0
 10 11  4  0        0
 11 12  1  0        0
 11 13  4  0        0
 13 14  4  0        0
  8 14  4  0        0
M  END
$$$$

CDXL12

 18 19  0  0  0  0  0  0  0  0999 V2000
    1.0717   -1.0313    0.0000 O   0  0  0  0  0  0  0  2  0  0  0  0
    1.0717   -0.2062    0.0000 C   0  0  0  0  0  0  0  2  0  0  0  0
    0.3572    0.2062    0.0000 O   0  0  0  0  0  0  0  2  0  0  0  0
   -0.3572   -0.2062    0.0000 O   0  0  0  0  0  0  0  2  0  0  0  0
   -1.0717    0.2062    0.0000 C   0  0  0  0  0  0  0  2  0  0  0  0
   -1.0717    1.0312    0.0000 O   0  0  0  0  0  0  0  2  0  0  0  0
   -1.7862   -0.2062    0.0000 C   0  0  0  0  0  0  0  2  0  0  0  0
   -1.7862   -1.0313    0.0000 C   0  0  0  0  0  0  0  2  0  0  0  0
   -2.5006   -1.4438    0.0000 C   0  0  0  0  0  0  0  2  0  0  0  0
   -3.2151   -1.0313    0.0000 C   0  0  0  0  0  0  0  2  0  0  0  0
   -3.2151   -0.2062    0.0000 C   0  0  0  0  0  0  0  2  0  0  0  0
   -2.5006    0.2062    0.0000 C   0  0  0  0  0  0  0  2  0  0  0  0
    1.7862    0.2062    0.0000 C   0  0  0  0  0  0  0  2  0  0  0  0
    1.7862    1.0312    0.0000 C   0  0  0  0  0  0  0  2  0  0  0  0
    2.5006    1.4438    0.0000 C   0  0  0  0  0  0  0  2  0  0  0  0
    3.2151    1.0313    0.0000 C   0  0  0  0  0  0  0  2  0  0  0  0
    3.2151    0.2062    0.0000 C   0  0  0  0  0  0  0  2  0  0  0  0
    2.5006   -0.2062    0.0000 C   0  0  0  0  0  0  0  2  0  0  0  0
  1  2  2  0        0
  2  3  1  0        0
  3  4  1  0        0
  4  5  1  0        0
  5  6  2  0        0
  5  7  1  0        0
  7  8  4  0        0
  8  9  4  0        0
  9 10  4  0        0
 10 11  4  0        0
 11 12  4  0        0
  7 12  4  0        0
  2 13  1  0        0
 13 14  4  0        0
 14 15  4  0        0
 15 16  4  0        0
 16 17  4  0        0
 17 18  4  0        0
 13 18  4  0        0
M  END
$$$$

CDXL12

 21 23  0  0  0  0  0  0  0  0999 V2000
    2.0637    1.2375    0.0000 O   0  0  0  0  0  0  0  2  0  0  0  0
    2.0637    0.4125    0.0000 C   0  0  0  0  0  0  0  2  0  0  0  0
    2.7782   -0.0000    0.0000 N   0  0  0  0  0  0  0  2  0  0  0  0
    2.7782   -0.8250    0.0000 C   0  0  0  0  0  0  0  2  0  0  0  0
    3.4927   -1.2375    0.0000 C   0  0  0  0  0  0  0  2  0  0  0  0
    4.2071   -0.8250    0.0000 C   0  0  0  0  0  0  0  2  0  0  0  0
    4.2071   -0.0000    0.0000 C   0  0  0  0  0  0  0  2  0  0  0  0
    3.4927    0.4125    0.0000 C   0  0  0  0  0  0  0  2  0  0  0  0
    1.3492   -0.0000    0.0000 C   0  0  0  0  0  0  0  2  0  0  0  0
    0.6348    0.4125    0.0000 C   0  0  0  0  0  0  0  2  0  0  0  0
   -0.0797   -0.0000    0.0000 C   0  0  0  0  0  0  0  2  0  0  0  0
   -0.7942    0.4125    0.0000 C   0  0  0  0  0  0  0  2  0  0  0  0
   -1.5086   -0.0000    0.0000 C   0  0  0  0  0  0  0  2  0  0  0  0
   -1.5086   -0.8250    0.0000 C   0  0  0  0  0  0  0  2  0  0  0  0
   -2.2231   -1.2375    0.0000 C   0  0  0  0  0  0  0  2  0  0  0  0
   -2.9376   -0.8250    0.0000 C   0  0  0  0  0  0  0  2  0  0  0  0
   -3.7222   -1.0799    0.0000 O   0  0  0  0  0  0  0  2  0  0  0  0
   -4.2071   -0.4125    0.0000 C   0  0  0  0  0  0  0  2  0  0  0  0
   -3.7222    0.2549    0.0000 O   0  0  0  0  0  0  0  2  0  0  0  0
   -2.9376   -0.0000    0.0000 C   0  0  0  0  0  0  0  2  0  0  0  0
   -2.2231    0.4125    0.0000 C   0  0  0  0  0  0  0  2  0  0  0  0
  1  2  2  0        0
  2  3  1  0        0
  3  4  1  0        0
  4  5  1  0        0
  5  6  1  0        0
  6  7  1  0        0
  7  8  1  0        0
  3  8  1  0        0
  2  9  1  0        0
  9 10  2  0        0
 10 11  1  0        0
 11 12  2  0        0
 12 13  1  0        0
 13 14  4  0        0
 14 15  4  0        0
 15 16  4  0        0
 16 17  1  0        0
 17 18  1  0        0
 18 19  1  0        0
 19 20  1  0        0
 16 20  4  0        0
 20 21  4  0        0
 13 21  4  0        0
M  END
$$$$

CDXL12

 13 13  0  0  0  0  0  0  0  0999 V2000
    1.7862    1.2375    0.0000 O   0  0  0  0  0  0  0  2  0  0  0  0
    1.7862    0.4125    0.0000 C   0  0  0  0  0  0  0  2  0  0  0  0
    2.5006    0.0000    0.0000 O   0  0  0  0  0  0  0  2  0  0  0  0
    1.0717    0.0000    0.0000 C   0  0  0  0  0  0  0  2  0  0  0  0
    0.3572    0.4125    0.0000 O   0  0  0  0  0  0  0  2  0  0  0  0
   -0.3572    0.0000    0.0000 C   0  0  0  0  0  0  0  2  0  0  0  0
   -0.3572   -0.8250    0.0000 C   0  0  0  0  0  0  0  2  0  0  0  0
   -1.0717   -1.2375    0.0000 C   0  0  0  0  0  0  0  2  0  0  0  0
   -1.7862   -0.8250    0.0000 C   0  0  0  0  0  0  0  2  0  0  0  0
   -1.7862   -0.0000    0.0000 C   0  0  0  0  0  0  0  2  0  0  0  0
   -1.0717    0.4125    0.0000 C   0  0  0  0  0  0  0  2  0  0  0  0
   -2.5006   -1.2375    0.0000 Cl  0  0  0  0  0  0  0  2  0  0  0  0
    0.3572   -1.2375    0.0000 C   0  0  0  0  0  0  0  2  0  0  0  0
  1  2  2  0        0
  2  3  1  0        0
  2  4  1  0        0
  4  5  1  0        0
  5  6  1  0        0
  6  7  4  0        0
  7  8  4  0        0
  8  9  4  0        0
  9 10  4  0        0
 10 11  4  0        0
  6 11  4  0        0
  9 12  1  0        0
  7 13  1  0        0
M  END
$$$$

CDXL12

 13 13  0  0  0  0  0  0  0  0999 V2000
    1.7862    1.2375    0.0000 O   0  0  0  0  0  0  0  2  0  0  0  0
    1.7862    0.4125    0.0000 C   0  0  0  0  0  0  0  2  0  0  0  0
    2.5006    0.0000    0.0000 O   0  0  0  0  0  0  0  2  0  0  0  0
    1.0717    0.0000    0.0000 C   0  0  0  0  0  0  0  2  0  0  0  0
    0.3572    0.4125    0.0000 O   0  0  0  0  0  0  0  2  0  0  0  0
   -0.3572    0.0000    0.0000 C   0  0  0  0  0  0  0  2  0  0  0  0
   -0.3572   -0.8250    0.0000 C   0  0  0  0  0  0  0  2  0  0  0  0
   -1.0717   -1.2375    0.0000 C   0  0  0  0  0  0  0  2  0  0  0  0
   -1.7862   -0.8250    0.0000 C   0  0  0  0  0  0  0  2  0  0  0  0
   -1.7862   -0.0000    0.0000 C   0  0  0  0  0  0  0  2  0  0  0  0
   -1.0717    0.4125    0.0000 C   0  0  0  0  0  0  0  2  0  0  0  0
   -2.5006   -1.2375    0.0000 Cl  0  0  0  0  0  0  0  2  0  0  0  0
    0.3572   -1.2375    0.0000 Cl  0  0  0  0  0  0  0  2  0  0  0  0
  1  2  2  0        0
  2  3  1  0        0
  2  4  1  0        0
  4  5  1  0        0
  5  6  1  0        0
  6  7  4  0        0
  7  8  4  0        0
  8  9  4  0        0
  9 10  4  0        0
 10 11  4  0        0
  6 11  4  0        0
  9 12  1  0        0
  7 13  1  0        0
M  END
$$$$

CDXL12

 17 17  0  0  0  0  0  0  0  0999 V2000
    3.9296   -0.0000    0.0000 C   0  0  0  0  0  0  0  2  0  0  0  0
    3.2151   -0.4125    0.0000 C   0  0  0  0  0  0  0  2  0  0  0  0
    2.5006   -0.0000    0.0000 C   0  0  0  0  0  0  0  2  0  0  0  0
    1.7862   -0.4125    0.0000 C   0  0  0  0  0  0  0  2  0  0  0  0
    1.0717    0.0000    0.0000 O   0  0  0  0  0  0  0  2  0  0  0  0
    0.3572   -0.4125    0.0000 C   0  0  0  0  0  0  0  2  0  0  0  0
    0.3572   -1.2375    0.0000 O   0  0  0  0  0  0  0  2  0  0  0  0
   -0.3572   -0.0000    0.0000 C   0  0  0  0  0  0  0  2  0  0  0  0
   -1.0717   -0.4125    0.0000 O   0  0  0  0  0  0  0  2  0  0  0  0
   -1.7862   -0.0000    0.0000 C   0  0  0  0  0  0  0  2  0  0  0  0
   -2.5006   -0.4125    0.0000 C   0  0  0  0  0  0  0  2  0  0  0  0
   -3.2151    0.0000    0.0000 C   0  0  0  0  0  0  0  2  0  0  0  0
   -3.2151    0.8250    0.0000 C   0  0  0  0  0  0  0  2  0  0  0  0
   -3.9296    1.2375    0.0000 Cl  0  0  0  0  0  0  0  2  0  0  0  0
   -2.5006    1.2375    0.0000 C   0  0  0  0  0  0  0  2  0  0  0  0
   -1.7862    0.8250    0.0000 C   0  0  0  0  0  0  0  2  0  0  0  0
   -1.0717    1.2375    0.0000 Cl  0  0  0  0  0  0  0  2  0  0  0  0
  1  2  1  0        0
  2  3  1  0        0
  3  4  1  0        0
  4  5  1  0        0
  5  6  1  0        0
  6  7  2  0        0
  6  8  1  0        0
  8  9  1  0        0
  9 10  1  0        0
 10 11  4  0        0
 11 12  4  0        0
 12 13  4  0        0
 13 14  1  0        0
 13 15  4  0        0
 15 16  4  0        0
 10 16  4  0        0
 16 17  1  0        0
M  END
$$$$

CDXL12

 15 15  0  0  0  0  0  0  0  0999 V2000
   -0.3572   -1.2375    0.0000 C   0  0  0  0  0  0  0  2  0  0  0  0
   -1.0717   -0.8250    0.0000 C   0  0  0  0  0  0  0  2  0  0  0  0
   -1.7862   -1.2375    0.0000 C   0  0  0  0  0  0  0  2  0  0  0  0
   -2.5006   -0.8250    0.0000 C   0  0  0  0  0  0  0  2  0  0  0  0
   -3.2151   -1.2375    0.0000 Cl  0  0  0  0  0  0  0  2  0  0  0  0
   -2.5006    0.0000    0.0000 C   0  0  0  0  0  0  0  2  0  0  0  0
   -1.7862    0.4125    0.0000 C   0  0  0  0  0  0  0  2  0  0  0  0
   -1.0717   -0.0000    0.0000 C   0  0  0  0  0  0  0  2  0  0  0  0
   -0.3572    0.4125    0.0000 O   0  0  0  0  0  0  0  2  0  0  0  0
    0.3572   -0.0000    0.0000 C   0  0  0  0  0  0  0  2  0  0  0  0
    1.0717    0.4125    0.0000 C   0  0  0  0  0  0  0  2  0  0  0  0
    1.7862   -0.0000    0.0000 C   0  0  0  0  0  0  0  2  0  0  0  0
    2.5006    0.4125    0.0000 C   0  0  0  0  0  0  0  2  0  0  0  0
    3.2151   -0.0000    0.0000 O   0  0  0  0  0  0  0  2  0  0  0  0
    2.5006    1.2375    0.0000 O   0  0  0  0  0  0  0  2  0  0  0  0
  1  2  1  0        0
  2  3  4  0        0
  3  4  4  0        0
  4  5  1  0        0
  4  6  4  0        0
  6  7  4  0        0
  7  8  4  0        0
  2  8  4  0        0
  8  9  1  0        0
  9 10  1  0        0
 10 11  1  0        0
 11 12  1  0        0
 12 13  1  0        0
 13 14  1  0        0
 13 15  2  0        0
M  END
$$$$

CDXL12

 15 15  0  0  0  0  0  0  0  0999 V2000
    3.2151    0.0000    0.0000 O   0  0  0  0  0  0  0  2  0  0  0  0
    2.5006    0.4125    0.0000 C   0  0  0  0  0  0  0  2  0  0  0  0
    2.5006    1.2375    0.0000 O   0  0  0  0  0  0  0  2  0  0  0  0
    1.7862    0.0000    0.0000 C   0  0  0  0  0  0  0  2  0  0  0  0
    1.0717    0.4125    0.0000 C   0  0  0  0  0  0  0  2  0  0  0  0
    0.3572    0.0000    0.0000 C   0  0  0  0  0  0  0  2  0  0  0  0
   -0.3572    0.4125    0.0000 O   0  0  0  0  0  0  0  2  0  0  0  0
   -1.0717    0.0000    0.0000 C   0  0  0  0  0  0  0  2  0  0  0  0
   -1.7862    0.4125    0.0000 C   0  0  0  0  0  0  0  2  0  0  0  0
   -2.5006   -0.0000    0.0000 C   0  0  0  0  0  0  0  2  0  0  0  0
   -2.5006   -0.8250    0.0000 C   0  0  0  0  0  0  0  2  0  0  0  0
   -3.2151   -1.2375    0.0000 Cl  0  0  0  0  0  0  0  2  0  0  0  0
   -1.7862   -1.2375    0.0000 C   0  0  0  0  0  0  0  2  0  0  0  0
   -1.0717   -0.8250    0.0000 C   0  0  0  0  0  0  0  2  0  0  0  0
   -0.3572   -1.2375    0.0000 Cl  0  0  0  0  0  0  0  2  0  0  0  0
  1  2  1  0        0
  2  3  2  0        0
  2  4  1  0        0
  4  5  1  0        0
  5  6  1  0        0
  6  7  1  0        0
  7  8  1  0        0
  8  9  4  0        0
  9 10  4  0        0
 10 11  4  0        0
 11 12  1  0        0
 11 13  4  0        0
 13 14  4  0        0
  8 14  4  0        0
 14 15  1  0        0
M  END
$$$$

CDXL12

 20 21  0  0  0  0  0  0  0  0999 V2000
    1.0717   -1.2375    0.0000 Cl  0  0  0  0  0  0  0  2  0  0  0  0
    1.7862   -0.8250    0.0000 C   0  0  0  0  0  0  0  2  0  0  0  0
    2.5006   -1.2375    0.0000 C   0  0  0  0  0  0  0  2  0  0  0  0
    3.2151   -0.8250    0.0000 C   0  0  0  0  0  0  0  2  0  0  0  0
    3.9296   -1.2375    0.0000 Cl  0  0  0  0  0  0  0  2  0  0  0  0
    3.2151    0.0000    0.0000 C   0  0  0  0  0  0  0  2  0  0  0  0
    2.5006    0.4125    0.0000 C   0  0  0  0  0  0  0  2  0  0  0  0
    1.7862    0.0000    0.0000 C   0  0  0  0  0  0  0  2  0  0  0  0
    1.0717    0.4125    0.0000 O   0  0  0  0  0  0  0  2  0  0  0  0
    0.3572    0.0000    0.0000 C   0  0  0  0  0  0  0  2  0  0  0  0
   -0.3572    0.4125    0.0000 C   0  0  0  0  0  0  0  2  0  0  0  0
   -1.0717    0.0000    0.0000 O   0  0  0  0  0  0  0  2  0  0  0  0
   -1.7862    0.4125    0.0000 C   0  0  0  0  0  0  0  2  0  0  0  0
   -1.7862    1.2375    0.0000 O   0  0  0  0  0  0  0  2  0  0  0  0
   -2.5006    0.0000    0.0000 C   0  0  0  0  0  0  0  2  0  0  0  0
   -3.2151    0.4125    0.0000 C   0  0  0  0  0  0  0  2  0  0  0  0
   -3.9296   -0.0000    0.0000 C   0  0  0  0  0  0  0  2  0  0  0  0
   -3.9296   -0.8250    0.0000 C   0  0  0  0  0  0  0  2  0  0  0  0
   -3.2151   -1.2375    0.0000 C   0  0  0  0  0  0  0  2  0  0  0  0
   -2.5006   -0.8250    0.0000 C   0  0  0  0  0  0  0  2  0  0  0  0
  1  2  1  0        0
  2  3  4  0        0
  3  4  4  0        0
  4  5  1  0        0
  4  6  4  0        0
  6  7  4  0        0
  7  8  4  0        0
  2  8  4  0        0
  8  9  1  0        0
  9 10  1  0        0
 10 11  1  0        0
 11 12  1  0        0
 12 13  1  0        0
 13 14  2  0        0
 13 15  1  0        0
 15 16  4  0        0
 16 17  4  0        0
 17 18  4  0        0
 18 19  4  0        0
 19 20  4  0        0
 15 20  4  0        0
M  END
$$$$

CDXL12

 10  9  0  0  0  0  0  0  0  0999 V2000
   -2.1434   -0.0000    0.0000 O   0  0  0  0  0  0  0  2  0  0  0  0
   -1.4289    0.4125    0.0000 C   0  0  0  0  0  0  0  2  0  0  0  0
   -0.7145   -0.0000    0.0000 C   0  0  0  0  0  0  0  2  0  0  0  0
    0.0000    0.4125    0.0000 C   0  0  0  0  0  0  0  2  0  0  0  0
    0.0000    1.2375    0.0000 O   0  0  0  0  0  0  0  2  0  0  0  0
    0.7145   -0.0000    0.0000 C   0  0  0  0  0  0  0  2  0  0  0  0
    1.4289    0.4125    0.0000 C   0  0  0  0  0  0  0  2  0  0  0  0
    2.1434   -0.0000    0.0000 C   0  0  0  0  0  0  0  2  0  0  0  0
   -0.7145   -0.8250    0.0000 C   0  0  0  0  0  0  0  2  0  0  0  0
   -1.4289   -1.2375    0.0000 C   0  0  0  0  0  0  0  2  0  0  0  0
  1  2  1  0        0
  2  3  1  0        0
  3  4  1  0        0
  4  5  1  0        0
  4  6  1  0        0
  6  7  1  0        0
  7  8  1  0        0
  3  9  1  0        0
  9 10  1  0        0
M  END
$$$$

CDXL12

 12 11  0  0  0  0  0  0  0  0999 V2000
   -2.5006   -0.0000    0.0000 C   0  0  0  0  0  0  0  2  0  0  0  0
   -1.7862    0.4125    0.0000 C   0  0  0  0  0  0  0  2  0  0  0  0
   -1.0717   -0.0000    0.0000 N   0  0  0  0  0  0  0  2  0  0  0  0
   -1.0717   -0.8250    0.0000 C   0  0  0  0  0  0  0  2  0  0  0  0
   -1.7862   -1.2375    0.0000 C   0  0  0  0  0  0  0  2  0  0  0  0
   -0.3572    0.4125    0.0000 C   0  0  0  0  0  0  0  2  0  0  0  0
   -0.3572    1.2375    0.0000 S   0  0  0  0  0  0  0  2  0  0  0  0
    0.3572   -0.0000    0.0000 S   0  0  0  0  0  0  0  2  0  0  0  0
    1.0717    0.4125    0.0000 C   0  0  0  0  0  0  0  2  0  0  0  0
    1.7862   -0.0000    0.0000 C   0  0  0  0  0  0  0  2  0  0  0  0
    1.7862   -0.8250    0.0000 Cl  0  0  0  0  0  0  0  2  0  0  0  0
    2.5006    0.4125    0.0000 C   0  0  0  0  0  0  0  2  0  0  0  0
  1  2  1  0        0
  2  3  1  0        0
  3  4  1  0        0
  4  5  1  0        0
  3  6  1  0        0
  6  7  2  0        0
  6  8  1  0        0
  8  9  1  0        0
  9 10  1  0        0
 10 11  1  0        0
 10 12  2  0        0
M  END
$$$$

CDXL12

 24 23  0  0  0  0  0  0  0  0999 V2000
    3.9296   -1.0312    0.0000 O   0  0  0  0  0  0  0  2  0  0  0  0
    3.9296   -0.2062    0.0000 C   0  0  0  0  0  0  0  2  0  0  0  0
    3.2151    0.2062    0.0000 O   0  0  0  0  0  0  0  2  0  0  0  0
    2.5006   -0.2062    0.0000 C   0  0  0  0  0  0  0  2  0  0  0  0
    1.7862    0.2062    0.0000 C   0  0  0  0  0  0  0  2  0  0  0  0
    1.0717   -0.2062    0.0000 O   0  0  0  0  0  0  0  2  0  0  0  0
    0.3572    0.2062    0.0000 C   0  0  0  0  0  0  0  2  0  0  0  0
   -0.3572   -0.2062    0.0000 C   0  0  0  0  0  0  0  2  0  0  0  0
   -1.0717    0.2062    0.0000 O   0  0  0  0  0  0  0  2  0  0  0  0
   -1.7862   -0.2062    0.0000 C   0  0  0  0  0  0  0  2  0  0  0  0
   -2.5006    0.2062    0.0000 C   0  0  0  0  0  0  0  2  0  0  0  0
   -3.2151   -0.2062    0.0000 O   0  0  0  0  0  0  0  2  0  0  0  0
   -3.9296    0.2063    0.0000 C   0  0  0  0  0  0  0  2  0  0  0  0
   -3.9296    1.0313    0.0000 O   0  0  0  0  0  0  0  2  0  0  0  0
   -4.6441   -0.2062    0.0000 C   0  0  0  0  0  0  0  2  0  0  0  0
   -5.3585    0.2062    0.0000 C   0  0  0  0  0  0  0  2  0  0  0  0
   -6.0730   -0.2062    0.0000 C   0  0  0  0  0  0  0  2  0  0  0  0
   -4.6441   -1.0312    0.0000 C   0  0  0  0  0  0  0  2  0  0  0  0
   -5.3585   -1.4437    0.0000 C   0  0  0  0  0  0  0  2  0  0  0  0
    4.6441    0.2062    0.0000 C   0  0  0  0  0  0  0  2  0  0  0  0
    5.3585   -0.2062    0.0000 C   0  0  0  0  0  0  0  2  0  0  0  0
    6.0730    0.2062    0.0000 C   0  0  0  0  0  0  0  2  0  0  0  0
    4.6441    1.0312    0.0000 C   0  0  0  0  0  0  0  2  0  0  0  0
    5.3585    1.4437    0.0000 C   0  0  0  0  0  0  0  2  0  0  0  0
  1  2  2  0        0
  2  3  1  0        0
  3  4  1  0        0
  4  5  1  0        0
  5  6  1  0        0
  6  7  1  0        0
  7  8  1  0        0
  8  9  1  0        0
  9 10  1  0        0
 10 11  1  0        0
 11 12  1  0        0
 12 13  1  0        0
 13 14  2  0        0
 13 15  1  0        0
 15 16  1  0        0
 16 17  1  0        0
 15 18  1  0        0
 18 19  1  0        0
  2 20  1  0        0
 20 21  1  0        0
 21 22  1  0        0
 20 23  1  0        0
 23 24  1  0        0
M  END
$$$$

CDXL12

  9 10  0  0  0  0  0  0  0  0999 V2000
   -1.3492    0.4125    0.0000 C   0  0  0  0  0  0  0  2  0  0  0  0
   -1.3492   -0.4125    0.0000 C   0  0  0  0  0  0  0  2  0  0  0  0
   -0.6348   -0.8250    0.0000 C   0  0  0  0  0  0  0  2  0  0  0  0
    0.0797   -0.4125    0.0000 C   0  0  0  0  0  0  0  2  0  0  0  0
    0.8643   -0.6674    0.0000 N   0  0  0  0  0  0  0  2  0  0  0  0
    1.3492   -0.0000    0.0000 N   0  0  0  0  0  0  0  2  0  0  0  0
    0.8643    0.6674    0.0000 N   0  0  0  0  0  0  0  2  0  0  0  0
    0.0797    0.4125    0.0000 C   0  0  0  0  0  0  0  2  0  0  0  0
   -0.6348    0.8250    0.0000 C   0  0  0  0  0  0  0  2  0  0  0  0
  1  2  4  0        0
  2  3  4  0        0
  3  4  4  0        0
  4  5  4  0        0
  5  6  4  0        0
  6  7  4  0        0
  7  8  4  0        0
  4  8  4  0        0
  8  9  4  0        0
  1  9  4  0        0
M  END
$$$$

CDXL12

  9 10  0  0  0  0  0  0  0  0999 V2000
   -1.3492    0.4125    0.0000 C   0  0  0  0  0  0  0  2  0  0  0  0
   -1.3492   -0.4125    0.0000 C   0  0  0  0  0  0  0  2  0  0  0  0
   -0.6348   -0.8250    0.0000 C   0  0  0  0  0  0  0  2  0  0  0  0
    0.0797   -0.4125    0.0000 C   0  0  0  0  0  0  0  2  0  0  0  0
    0.8643   -0.6674    0.0000 N   0  0  0  0  0  0  0  2  0  0  0  0
    1.3492   -0.0000    0.0000 C   0  0  0  0  0  0  0  2  0  0  0  0
    0.8643    0.6674    0.0000 S   0  0  0  0  0  0  0  2  0  0  0  0
    0.0797    0.4125    0.0000 C   0  0  0  0  0  0  0  2  0  0  0  0
   -0.6348    0.8250    0.0000 C   0  0  0  0  0  0  0  2  0  0  0  0
  1  2  4  0        0
  2  3  4  0        0
  3  4  4  0        0
  4  5  4  0        0
  5  6  4  0        0
  6  7  4  0        0
  7  8  4  0        0
  4  8  4  0        0
  8  9  4  0        0
  1  9  4  0        0
M  END
$$$$

CDXL12

  8  7  0  0  0  0  0  0  0  0999 V2000
   -1.0717    0.2062    0.0000 N   0  0  0  0  0  0  0  2  0  0  0  0
   -1.7862   -0.2062    0.0000 O   0  0  0  0  0  0  0  2  0  0  0  0
   -0.3572   -0.2062    0.0000 C   0  0  0  0  0  0  0  2  0  0  0  0
    0.3572    0.2062    0.0000 C   0  0  0  0  0  0  0  2  0  0  0  0
    1.0717   -0.2062    0.0000 N   0  0  0  0  0  0  0  2  0  0  0  0
    1.7862    0.2062    0.0000 O   0  0  0  0  0  0  0  2  0  0  0  0
    0.3572    1.0313    0.0000 C   0  0  0  0  0  0  0  2  0  0  0  0
   -0.3572   -1.0313    0.0000 C   0  0  0  0  0  0  0  2  0  0  0  0
  1  2  1  0        0
  1  3  2  0        0
  3  4  1  0        0
  4  5  2  0        0
  5  6  1  0        0
  4  7  1  0        0
  3  8  1  0        0
M  END
$$$$

CDXL12

  8  8  0  0  0  0  0  0  0  0999 V2000
    0.3572    0.4125    0.0000 C   0  0  0  0  0  0  0  2  0  0  0  0
    0.3572   -0.4125    0.0000 C   0  0  0  0  0  0  0  2  0  0  0  0
   -0.3572   -0.8250    0.0000 C   0  0  0  0  0  0  0  2  0  0  0  0
   -1.0717   -0.4125    0.0000 C   0  0  0  0  0  0  0  2  0  0  0  0
   -1.0717    0.4125    0.0000 C   0  0  0  0  0  0  0  2  0  0  0  0
   -0.3572    0.8250    0.0000 C   0  0  0  0  0  0  0  2  0  0  0  0
    1.0717   -0.8250    0.0000 Br  0  0  0  0  0  0  0  2  0  0  0  0
    1.0717    0.8250    0.0000 C   0  0  0  0  0  0  0  2  0  0  0  0
  1  2  4  0        0
  2  3  4  0        0
  3  4  4  0        0
  4  5  4  0        0
  5  6  4  0        0
  1  6  4  0        0
  2  7  1  0        0
  1  8  1  0        0
M  END
$$$$

CDXL12

  8  8  0  0  0  0  0  0  0  0999 V2000
    0.3572    0.4125    0.0000 C   0  0  0  0  0  0  0  2  0  0  0  0
    0.3572   -0.4125    0.0000 C   0  0  0  0  0  0  0  2  0  0  0  0
   -0.3572   -0.8250    0.0000 C   0  0  0  0  0  0  0  2  0  0  0  0
   -1.0717   -0.4125    0.0000 C   0  0  0  0  0  0  0  2  0  0  0  0
   -1.0717    0.4125    0.0000 C   0  0  0  0  0  0  0  2  0  0  0  0
   -0.3572    0.8250    0.0000 C   0  0  0  0  0  0  0  2  0  0  0  0
    1.0717   -0.8250    0.0000 C   0  0  0  0  0  0  0  2  0  0  0  0
    1.0717    0.8250    0.0000 C   0  0  0  0  0  0  0  2  0  0  0  0
  1  2  4  0        0
  2  3  4  0        0
  3  4  4  0        0
  4  5  4  0        0
  5  6  4  0        0
  1  6  4  0        0
  2  7  1  0        0
  1  8  1  0        0
M  END
$$$$

CDXL12

  8  8  0  0  0  0  0  0  0  0999 V2000
    1.0717    0.8250    0.0000 O   0  0  0  0  0  0  0  2  0  0  0  0
    0.3572    0.4125    0.0000 C   0  0  0  0  0  0  0  2  0  0  0  0
    0.3572   -0.4125    0.0000 C   0  0  0  0  0  0  0  2  0  0  0  0
    1.0717   -0.8250    0.0000 N   0  0  0  0  0  0  0  2  0  0  0  0
   -0.3572   -0.8250    0.0000 C   0  0  0  0  0  0  0  2  0  0  0  0
   -1.0717   -0.4125    0.0000 C   0  0  0  0  0  0  0  2  0  0  0  0
   -1.0717    0.4125    0.0000 C   0  0  0  0  0  0  0  2  0  0  0  0
   -0.3572    0.8250    0.0000 C   0  0  0  0  0  0  0  2  0  0  0  0
  1  2  1  0        0
  2  3  4  0        0
  3  4  1  0        0
  3  5  4  0        0
  5  6  4  0        0
  6  7  4  0        0
  7  8  4  0        0
  2  8  4  0        0
M  END
$$$$

CDXL12

  8  8  0  0  0  0  0  0  0  0999 V2000
    1.0717    0.8250    0.0000 O   0  0  0  0  0  0  0  2  0  0  0  0
    0.3572    0.4125    0.0000 C   0  0  0  0  0  0  0  2  0  0  0  0
    0.3572   -0.4125    0.0000 C   0  0  0  0  0  0  0  2  0  0  0  0
   -0.3572   -0.8250    0.0000 C   0  0  0  0  0  0  0  2  0  0  0  0
   -1.0717   -0.4125    0.0000 C   0  0  0  0  0  0  0  2  0  0  0  0
   -1.0717    0.4125    0.0000 C   0  0  0  0  0  0  0  2  0  0  0  0
   -0.3572    0.8250    0.0000 C   0  0  0  0  0  0  0  2  0  0  0  0
    1.0717   -0.8250    0.0000 Cl  0  0  0  0  0  0  0  2  0  0  0  0
  1  2  1  0        0
  2  3  4  0        0
  3  4  4  0        0
  4  5  4  0        0
  5  6  4  0        0
  6  7  4  0        0
  2  7  4  0        0
  3  8  1  0        0
M  END
$$$$

CDXL12

  9  9  0  0  0  0  0  0  0  0999 V2000
   -0.7145   -0.4125    0.0000 C   0  0  0  0  0  0  0  2  0  0  0  0
   -0.7145    0.4125    0.0000 C   0  0  0  0  0  0  0  2  0  0  0  0
    0.0000    0.8250    0.0000 C   0  0  0  0  0  0  0  2  0  0  0  0
    0.7145    0.4125    0.0000 C   0  0  0  0  0  0  0  2  0  0  0  0
    0.7145   -0.4125    0.0000 C   0  0  0  0  0  0  0  2  0  0  0  0
    1.4289   -0.8250    0.0000 C   0  0  0  0  0  0  0  2  0  0  0  0
    0.0000   -0.8250    0.0000 C   0  0  0  0  0  0  0  2  0  0  0  0
    1.4289    0.8250    0.0000 C   0  0  0  0  0  0  0  2  0  0  0  0
   -1.4289   -0.8250    0.0000 C   0  0  0  0  0  0  0  2  0  0  0  0
  1  2  4  0        0
  2  3  4  0        0
  3  4  4  0        0
  4  5  4  0        0
  5  6  1  0        0
  5  7  4  0        0
  1  7  4  0        0
  4  8  1  0        0
  1  9  1  0        0
M  END
$$$$

CDXL12

  9  9  0  0  0  0  0  0  0  0999 V2000
   -1.4289   -0.8250    0.0000 O   0  0  0  0  0  0  0  2  0  0  0  0
   -0.7145   -0.4125    0.0000 C   0  0  0  0  0  0  0  2  0  0  0  0
   -0.7145    0.4125    0.0000 C   0  0  0  0  0  0  0  2  0  0  0  0
    0.0000    0.8250    0.0000 C   0  0  0  0  0  0  0  2  0  0  0  0
    0.7145    0.4125    0.0000 C   0  0  0  0  0  0  0  2  0  0  0  0
    0.7145   -0.4125    0.0000 C   0  0  0  0  0  0  0  2  0  0  0  0
    1.4289   -0.8250    0.0000 C   0  0  0  0  0  0  0  2  0  0  0  0
    0.0000   -0.8250    0.0000 C   0  0  0  0  0  0  0  2  0  0  0  0
    1.4289    0.8250    0.0000 C   0  0  0  0  0  0  0  2  0  0  0  0
  1  2  1  0        0
  2  3  4  0        0
  3  4  4  0        0
  4  5  4  0        0
  5  6  4  0        0
  6  7  1  0        0
  6  8  4  0        0
  2  8  4  0        0
  5  9  1  0        0
M  END
$$$$

CDXL12

  9  9  0  0  0  0  0  0  0  0999 V2000
   -0.7145   -0.4125    0.0000 C   0  0  0  0  0  0  0  2  0  0  0  0
   -0.7145    0.4125    0.0000 C   0  0  0  0  0  0  0  2  0  0  0  0
    0.0000    0.8250    0.0000 C   0  0  0  0  0  0  0  2  0  0  0  0
    0.7145    0.4125    0.0000 C   0  0  0  0  0  0  0  2  0  0  0  0
    0.7145   -0.4125    0.0000 C   0  0  0  0  0  0  0  2  0  0  0  0
    1.4289   -0.8250    0.0000 Cl  0  0  0  0  0  0  0  2  0  0  0  0
    0.0000   -0.8250    0.0000 C   0  0  0  0  0  0  0  2  0  0  0  0
    1.4289    0.8250    0.0000 Cl  0  0  0  0  0  0  0  2  0  0  0  0
   -1.4289   -0.8250    0.0000 C   0  0  0  0  0  0  0  2  0  0  0  0
  1  2  4  0        0
  2  3  4  0        0
  3  4  4  0        0
  4  5  4  0        0
  5  6  1  0        0
  5  7  4  0        0
  1  7  4  0        0
  4  8  1  0        0
  1  9  1  0        0
M  END
$$$$

CDXL12

  9  9  0  0  0  0  0  0  0  0999 V2000
   -1.4289   -0.8250    0.0000 N   0  0  0  0  0  0  0  2  0  0  0  0
   -0.7145   -0.4125    0.0000 C   0  0  0  0  0  0  0  2  0  0  0  0
   -0.7145    0.4125    0.0000 C   0  0  0  0  0  0  0  2  0  0  0  0
    0.0000    0.8250    0.0000 C   0  0  0  0  0  0  0  2  0  0  0  0
    0.7145    0.4125    0.0000 C   0  0  0  0  0  0  0  2  0  0  0  0
    0.7145   -0.4125    0.0000 C   0  0  0  0  0  0  0  2  0  0  0  0
    1.4289   -0.8250    0.0000 Cl  0  0  0  0  0  0  0  2  0  0  0  0
    0.0000   -0.8250    0.0000 C   0  0  0  0  0  0  0  2  0  0  0  0
    1.4289    0.8250    0.0000 Cl  0  0  0  0  0  0  0  2  0  0  0  0
  1  2  1  0        0
  2  3  4  0        0
  3  4  4  0        0
  4  5  4  0        0
  5  6  4  0        0
  6  7  1  0        0
  6  8  4  0        0
  2  8  4  0        0
  5  9  1  0        0
M  END
$$$$

CDXL12

  9  9  0  0  0  0  0  0  0  0999 V2000
   -1.4289   -0.8250    0.0000 O   0  0  0  0  0  0  0  2  0  0  0  0
   -0.7145   -0.4125    0.0000 C   0  0  0  0  0  0  0  2  0  0  0  0
   -0.7145    0.4125    0.0000 C   0  0  0  0  0  0  0  2  0  0  0  0
    0.0000    0.8250    0.0000 C   0  0  0  0  0  0  0  2  0  0  0  0
    0.7145    0.4125    0.0000 C   0  0  0  0  0  0  0  2  0  0  0  0
    1.4289    0.8250    0.0000 Cl  0  0  0  0  0  0  0  2  0  0  0  0
    0.7145   -0.4125    0.0000 C   0  0  0  0  0  0  0  2  0  0  0  0
    1.4289   -0.8250    0.0000 Cl  0  0  0  0  0  0  0  2  0  0  0  0
    0.0000   -0.8250    0.0000 C   0  0  0  0  0  0  0  2  0  0  0  0
  1  2  1  0        0
  2  3  4  0        0
  3  4  4  0        0
  4  5  4  0        0
  5  6  1  0        0
  5  7  4  0        0
  7  8  1  0        0
  7  9  4  0        0
  2  9  4  0        0
M  END
$$$$

CDXL12

  9  9  0  0  0  0  0  0  0  0999 V2000
    1.4289   -0.8250    0.0000 N   0  0  0  0  0  0  0  2  0  0  0  0
    0.7145   -0.4125    0.0000 C   0  0  0  0  0  0  0  2  0  0  0  0
    0.7145    0.4125    0.0000 C   0  0  0  0  0  0  0  2  0  0  0  0
    0.0000    0.8250    0.0000 C   0  0  0  0  0  0  0  2  0  0  0  0
   -0.7145    0.4125    0.0000 C   0  0  0  0  0  0  0  2  0  0  0  0
   -0.7145   -0.4125    0.0000 C   0  0  0  0  0  0  0  2  0  0  0  0
   -1.4289   -0.8250    0.0000 C   0  0  0  0  0  0  0  2  0  0  0  0
    0.0000   -0.8250    0.0000 C   0  0  0  0  0  0  0  2  0  0  0  0
    1.4289    0.8250    0.0000 C   0  0  0  0  0  0  0  2  0  0  0  0
  1  2  1  0        0
  2  3  4  0        0
  3  4  4  0        0
  4  5  4  0        0
  5  6  4  0        0
  6  7  1  0        0
  6  8  4  0        0
  2  8  4  0        0
  3  9  1  0        0
M  END
$$$$

CDXL12

  9  9  0  0  0  0  0  0  0  0999 V2000
    1.4289   -0.8250    0.0000 N   0  0  0  0  0  0  0  2  0  0  0  0
    0.7145   -0.4125    0.0000 C   0  0  0  0  0  0  0  2  0  0  0  0
    0.7145    0.4125    0.0000 C   0  0  0  0  0  0  0  2  0  0  0  0
    0.0000    0.8250    0.0000 C   0  0  0  0  0  0  0  2  0  0  0  0
   -0.7145    0.4125    0.0000 C   0  0  0  0  0  0  0  2  0  0  0  0
   -0.7145   -0.4125    0.0000 C   0  0  0  0  0  0  0  2  0  0  0  0
   -1.4289   -0.8250    0.0000 Cl  0  0  0  0  0  0  0  2  0  0  0  0
    0.0000   -0.8250    0.0000 C   0  0  0  0  0  0  0  2  0  0  0  0
    1.4289    0.8250    0.0000 C   0  0  0  0  0  0  0  2  0  0  0  0
  1  2  1  0        0
  2  3  4  0        0
  3  4  4  0        0
  4  5  4  0        0
  5  6  4  0        0
  6  7  1  0        0
  6  8  4  0        0
  2  8  4  0        0
  3  9  1  0        0
M  END
$$$$

CDXL12

  9  9  0  0  0  0  0  0  0  0999 V2000
    1.4289   -0.8250    0.0000 O   0  0  0  0  0  0  0  2  0  0  0  0
    0.7145   -0.4125    0.0000 C   0  0  0  0  0  0  0  2  0  0  0  0
    0.7145    0.4125    0.0000 C   0  0  0  0  0  0  0  2  0  0  0  0
    0.0000    0.8250    0.0000 C   0  0  0  0  0  0  0  2  0  0  0  0
   -0.7145    0.4125    0.0000 C   0  0  0  0  0  0  0  2  0  0  0  0
   -0.7145   -0.4125    0.0000 C   0  0  0  0  0  0  0  2  0  0  0  0
   -1.4289   -0.8250    0.0000 C   0  0  0  0  0  0  0  2  0  0  0  0
    0.0000   -0.8250    0.0000 C   0  0  0  0  0  0  0  2  0  0  0  0
    1.4289    0.8250    0.0000 C   0  0  0  0  0  0  0  2  0  0  0  0
  1  2  1  0        0
  2  3  4  0        0
  3  4  4  0        0
  4  5  4  0        0
  5  6  4  0        0
  6  7  1  0        0
  6  8  4  0        0
  2  8  4  0        0
  3  9  1  0        0
M  END
$$$$

CDXL12

 10 10  0  0  0  0  0  0  0  0999 V2000
    0.7145    0.4125    0.0000 C   0  0  0  0  0  0  0  2  0  0  0  0
    0.7145   -0.4125    0.0000 C   0  0  0  0  0  0  0  2  0  0  0  0
    0.0000   -0.8250    0.0000 C   0  0  0  0  0  0  0  2  0  0  0  0
   -0.7145   -0.4125    0.0000 C   0  0  0  0  0  0  0  2  0  0  0  0
   -0.7145    0.4125    0.0000 C   0  0  0  0  0  0  0  2  0  0  0  0
   -1.4289    0.8250    0.0000 C   0  0  0  0  0  0  0  2  0  0  0  0
    0.0000    0.8250    0.0000 C   0  0  0  0  0  0  0  2  0  0  0  0
   -1.4289   -0.8250    0.0000 C   0  0  0  0  0  0  0  2  0  0  0  0
    1.4289   -0.8250    0.0000 C   0  0  0  0  0  0  0  2  0  0  0  0
    1.4289    0.8250    0.0000 C   0  0  0  0  0  0  0  2  0  0  0  0
  1  2  4  0        0
  2  3  4  0        0
  3  4  4  0        0
  4  5  4  0        0
  5  6  1  0        0
  5  7  4  0        0
  1  7  4  0        0
  4  8  1  0        0
  2  9  1  0        0
  1 10  1  0        0
M  END
$$$$

CDXL12

 10 10  0  0  0  0  0  0  0  0999 V2000
    1.4289    0.8250    0.0000 O   0  0  0  0  0  0  0  2  0  0  0  0
    0.7145    0.4125    0.0000 C   0  0  0  0  0  0  0  2  0  0  0  0
    0.7145   -0.4125    0.0000 C   0  0  0  0  0  0  0  2  0  0  0  0
    0.0000   -0.8250    0.0000 C   0  0  0  0  0  0  0  2  0  0  0  0
   -0.7145   -0.4125    0.0000 C   0  0  0  0  0  0  0  2  0  0  0  0
   -0.7145    0.4125    0.0000 C   0  0  0  0  0  0  0  2  0  0  0  0
   -1.4289    0.8250    0.0000 Cl  0  0  0  0  0  0  0  2  0  0  0  0
    0.0000    0.8250    0.0000 C   0  0  0  0  0  0  0  2  0  0  0  0
   -1.4289   -0.8250    0.0000 Cl  0  0  0  0  0  0  0  2  0  0  0  0
    1.4289   -0.8250    0.0000 Cl  0  0  0  0  0  0  0  2  0  0  0  0
  1  2  1  0        0
  2  3  4  0        0
  3  4  4  0        0
  4  5  4  0        0
  5  6  4  0        0
  6  7  1  0        0
  6  8  4  0        0
  2  8  4  0        0
  5  9  1  0        0
  3 10  1  0        0
M  END
$$$$

CDXL12

  6  5  0  0  0  0  0  0  0  0999 V2000
    1.4289   -0.2062    0.0000 Br  0  0  0  0  0  0  0  2  0  0  0  0
    0.7145   -0.6188    0.0000 C   0  0  0  0  0  0  0  2  0  0  0  0
    0.0000   -0.2062    0.0000 C   0  0  0  0  0  0  0  2  0  0  0  0
    0.0000    0.6188    0.0000 Br  0  0  0  0  0  0  0  2  0  0  0  0
   -0.7145   -0.6187    0.0000 C   0  0  0  0  0  0  0  2  0  0  0  0
   -1.4289   -0.2062    0.0000 Cl  0  0  0  0  0  0  0  2  0  0  0  0
  1  2  1  0        0
  2  3  1  0        0
  3  4  1  0        0
  3  5  1  0        0
  5  6  1  0        0
M  END
$$$$

CDXL12

  6  5  0  0  0  0  0  0  0  0999 V2000
    1.4289   -0.2062    0.0000 O   0  0  0  0  0  0  0  2  0  0  0  0
    0.7145   -0.6188    0.0000 C   0  0  0  0  0  0  0  2  0  0  0  0
    0.0000   -0.2062    0.0000 C   0  0  0  0  0  0  0  2  0  0  0  0
    0.0000    0.6188    0.0000 Br  0  0  0  0  0  0  0  2  0  0  0  0
   -0.7145   -0.6187    0.0000 C   0  0  0  0  0  0  0  2  0  0  0  0
   -1.4289   -0.2062    0.0000 Br  0  0  0  0  0  0  0  2  0  0  0  0
  1  2  1  0        0
  2  3  1  0        0
  3  4  1  0        0
  3  5  1  0        0
  5  6  1  0        0
M  END
$$$$

CDXL12

  6  5  0  0  0  0  0  0  0  0999 V2000
    0.0000   -0.2062    0.0000 C   0  0  0  0  0  0  0  2  0  0  0  0
    0.7145   -0.6188    0.0000 C   0  0  0  0  0  0  0  2  0  0  0  0
    1.4289   -0.2062    0.0000 C   0  0  0  0  0  0  0  2  0  0  0  0
   -0.7145   -0.6187    0.0000 C   0  0  0  0  0  0  0  2  0  0  0  0
   -1.4289   -0.2062    0.0000 C   0  0  0  0  0  0  0  2  0  0  0  0
    0.0000    0.6188    0.0000 C   0  0  0  0  0  0  0  2  0  0  0  0
  1  2  1  0        0
  2  3  1  0        0
  1  4  1  0        0
  4  5  1  0        0
  1  6  1  0        0
M  END
$$$$

CDXL12

  6  5  0  0  0  0  0  0  0  0999 V2000
    1.4289   -0.2062    0.0000 Cl  0  0  0  0  0  0  0  2  0  0  0  0
    0.7145   -0.6188    0.0000 C   0  0  0  0  0  0  0  2  0  0  0  0
    0.0000   -0.2062    0.0000 C   0  0  0  0  0  0  0  2  0  0  0  0
    0.0000    0.6188    0.0000 Cl  0  0  0  0  0  0  0  2  0  0  0  0
   -0.7145   -0.6187    0.0000 C   0  0  0  0  0  0  0  2  0  0  0  0
   -1.4289   -0.2062    0.0000 Cl  0  0  0  0  0  0  0  2  0  0  0  0
  1  2  1  0        0
  2  3  1  0        0
  3  4  1  0        0
  3  5  1  0        0
  5  6  1  0        0
M  END
$$$$

CDXL12

  6  5  0  0  0  0  0  0  0  0999 V2000
    0.0000    0.6188    0.0000 O   0  0  0  0  0  0  0  2  0  0  0  0
    0.0000   -0.2062    0.0000 C   0  0  0  0  0  0  0  2  0  0  0  0
    0.7145   -0.6188    0.0000 C   0  0  0  0  0  0  0  2  0  0  0  0
    1.4289   -0.2062    0.0000 C   0  0  0  0  0  0  0  2  0  0  0  0
   -0.7145   -0.6187    0.0000 C   0  0  0  0  0  0  0  2  0  0  0  0
   -1.4289   -0.2062    0.0000 C   0  0  0  0  0  0  0  2  0  0  0  0
  1  2  2  0        0
  2  3  1  0        0
  3  4  1  0        0
  2  5  1  0        0
  5  6  1  0        0
M  END
$$$$

CDXL12

  6  5  0  0  0  0  0  0  0  0999 V2000
    0.0000    0.6188    0.0000 O   0  0  0  0  0  0  0  2  0  0  0  0
    0.0000   -0.2062    0.0000 C   0  0  0  0  0  0  0  2  0  0  0  0
    0.7145   -0.6188    0.0000 C   0  0  0  0  0  0  0  2  0  0  0  0
    1.4289   -0.2062    0.0000 Cl  0  0  0  0  0  0  0  2  0  0  0  0
   -0.7145   -0.6187    0.0000 C   0  0  0  0  0  0  0  2  0  0  0  0
   -1.4289   -0.2062    0.0000 Cl  0  0  0  0  0  0  0  2  0  0  0  0
  1  2  1  0        0
  2  3  1  0        0
  3  4  1  0        0
  2  5  1  0        0
  5  6  1  0        0
M  END
$$$$

CDXL12

  6  5  0  0  0  0  0  0  0  0999 V2000
    1.4289   -0.2062    0.0000 O   0  0  0  0  0  0  0  2  0  0  0  0
    0.7145   -0.6188    0.0000 C   0  0  0  0  0  0  0  2  0  0  0  0
    0.0000   -0.2062    0.0000 C   0  0  0  0  0  0  0  2  0  0  0  0
    0.0000    0.6188    0.0000 O   0  0  0  0  0  0  0  2  0  0  0  0
   -0.7145   -0.6187    0.0000 C   0  0  0  0  0  0  0  2  0  0  0  0
   -1.4289   -0.2062    0.0000 Cl  0  0  0  0  0  0  0  2  0  0  0  0
  1  2  1  0        0
  2  3  1  0        0
  3  4  1  0        0
  3  5  1  0        0
  5  6  1  0        0
M  END
$$$$

CDXL12

  6  5  0  0  0  0  0  0  0  0999 V2000
    0.7145   -0.6188    0.0000 N   0  0  0  0  0  0  0  2  0  0  0  0
    1.4289   -0.2062    0.0000 O   0  0  0  0  0  0  0  2  0  0  0  0
    0.0000   -0.2062    0.0000 C   0  0  0  0  0  0  0  2  0  0  0  0
   -0.7145   -0.6187    0.0000 C   0  0  0  0  0  0  0  2  0  0  0  0
   -1.4289   -0.2062    0.0000 C   0  0  0  0  0  0  0  2  0  0  0  0
    0.0000    0.6188    0.0000 C   0  0  0  0  0  0  0  2  0  0  0  0
  1  2  1  0        0
  1  3  2  0        0
  3  4  1  0        0
  4  5  1  0        0
  3  6  1  0        0
M  END
$$$$

CDXL12

  6  5  0  0  0  0  0  0  0  0999 V2000
    0.0000    0.6188    0.0000 O   0  0  0  0  0  0  0  2  0  0  0  0
    0.0000   -0.2062    0.0000 C   0  0  0  0  0  0  0  2  0  0  0  0
    0.7145   -0.6188    0.0000 O   0  0  0  0  0  0  0  2  0  0  0  0
    1.4289   -0.2062    0.0000 C   0  0  0  0  0  0  0  2  0  0  0  0
   -0.7145   -0.6187    0.0000 C   0  0  0  0  0  0  0  2  0  0  0  0
   -1.4289   -0.2062    0.0000 C   0  0  0  0  0  0  0  2  0  0  0  0
  1  2  2  0        0
  2  3  1  0        0
  3  4  1  0        0
  2  5  1  0        0
  5  6  2  0        0
M  END
$$$$

CDXL12

  6  6  0  0  0  0  0  0  0  0999 V2000
    0.2751    0.1498    0.0000 C   0  0  0  0  0  0  0  2  0  0  0  0
    0.0202   -0.6348    0.0000 C   0  0  0  0  0  0  0  2  0  0  0  0
   -0.8048   -0.6348    0.0000 C   0  0  0  0  0  0  0  2  0  0  0  0
   -1.0597    0.1498    0.0000 C   0  0  0  0  0  0  0  2  0  0  0  0
   -0.3923    0.6348    0.0000 C   0  0  0  0  0  0  0  2  0  0  0  0
    1.0597    0.4048    0.0000 C   0  0  0  0  0  0  0  2  0  0  0  0
  1  2  1  0        0
  2  3  1  0        0
  3  4  1  0        0
  4  5  1  0        0
  1  5  1  0        0
  1  6  1  0        0
M  END
$$$$

CDXL12

  6  6  0  0  0  0  0  0  0  0999 V2000
   -0.3923    0.6348    0.0000 N   0  0  0  0  0  0  0  2  0  0  0  0
    0.2751    0.1498    0.0000 C   0  0  0  0  0  0  0  2  0  0  0  0
    1.0597    0.4048    0.0000 S   0  0  0  0  0  0  0  2  0  0  0  0
    0.0202   -0.6348    0.0000 N   0  0  0  0  0  0  0  2  0  0  0  0
   -0.8048   -0.6348    0.0000 C   0  0  0  0  0  0  0  2  0  0  0  0
   -1.0597    0.1498    0.0000 C   0  0  0  0  0  0  0  2  0  0  0  0
  1  2  1  0        0
  2  3  2  0        0
  2  4  1  0        0
  4  5  1  0        0
  5  6  1  0        0
  1  6  1  0        0
M  END
$$$$

CDXL12

  6  6  0  0  0  0  0  0  0  0999 V2000
   -0.3923    0.6348    0.0000 O   0  0  0  0  0  0  0  2  0  0  0  0
    0.2751    0.1498    0.0000 C   0  0  0  0  0  0  0  2  0  0  0  0
    0.0202   -0.6348    0.0000 C   0  0  0  0  0  0  0  2  0  0  0  0
   -0.8048   -0.6348    0.0000 C   0  0  0  0  0  0  0  2  0  0  0  0
   -1.0597    0.1498    0.0000 C   0  0  0  0  0  0  0  2  0  0  0  0
    1.0597    0.4048    0.0000 C   0  0  0  0  0  0  0  2  0  0  0  0
  1  2  1  0        0
  2  3  1  0        0
  3  4  1  0        0
  4  5  1  0        0
  1  5  1  0        0
  2  6  1  0        0
M  END
$$$$

CDXL12

  6  6  0  0  0  0  0  0  0  0999 V2000
    1.0597    0.4048    0.0000 O   0  0  0  0  0  0  0  2  0  0  0  0
    0.2751    0.1498    0.0000 C   0  0  0  0  0  0  0  2  0  0  0  0
    0.0202   -0.6348    0.0000 O   0  0  0  0  0  0  0  2  0  0  0  0
   -0.8048   -0.6348    0.0000 C   0  0  0  0  0  0  0  2  0  0  0  0
   -1.0597    0.1498    0.0000 C   0  0  0  0  0  0  0  2  0  0  0  0
   -0.3923    0.6348    0.0000 C   0  0  0  0  0  0  0  2  0  0  0  0
  1  2  2  0        0
  2  3  1  0        0
  3  4  1  0        0
  4  5  1  0        0
  5  6  1  0        0
  2  6  1  0        0
M  END
$$$$

CDXL12

 15 15  0  0  0  0  0  0  0  0999 V2000
    1.4289    1.2375    0.0000 O   0  0  0  0  0  0  0  2  0  0  0  0
    0.7145    0.8250    0.0000 C   0  0  0  0  0  0  0  2  0  0  0  0
    0.7145   -0.0000    0.0000 C   0  0  0  0  0  0  0  2  0  0  0  0
    0.0000   -0.4125    0.0000 C   0  0  0  0  0  0  0  2  0  0  0  0
   -0.7145   -0.0000    0.0000 C   0  0  0  0  0  0  0  2  0  0  0  0
   -0.7145    0.8250    0.0000 C   0  0  0  0  0  0  0  2  0  0  0  0
    0.0000    1.2375    0.0000 C   0  0  0  0  0  0  0  2  0  0  0  0
   -1.4289   -0.4125    0.0000 C   0  0  0  0  0  0  0  2  0  0  0  0
   -1.4289   -1.2375    0.0000 C   0  0  0  0  0  0  0  2  0  0  0  0
   -2.1434   -0.8250    0.0000 C   0  0  0  0  0  0  0  2  0  0  0  0
   -2.1434   -0.0000    0.0000 C   0  0  0  0  0  0  0  2  0  0  0  0
    1.4289   -0.4125    0.0000 C   0  0  0  0  0  0  0  2  0  0  0  0
    2.1434   -0.8250    0.0000 C   0  0  0  0  0  0  0  2  0  0  0  0
    1.4289   -1.2375    0.0000 C   0  0  0  0  0  0  0  2  0  0  0  0
    2.1434   -0.0000    0.0000 C   0  0  0  0  0  0  0  2  0  0  0  0
  1  2  1  0        0
  2  3  4  0        0
  3  4  4  0        0
  4  5  4  0        0
  5  6  4  0        0
  6  7  4  0        0
  2  7  4  0        0
  5  8  1  0        0
  8  9  1  0        0
  8 10  1  0        0
  8 11  1  0        0
  3 12  1  0        0
 12 13  1  0        0
 12 14  1  0        0
 12 15  1  0        0
M  END
$$$$

CDXL12

 10  9  0  0  0  0  0  0  0  0999 V2000
    1.7862    0.4125    0.0000 O   0  0  0  0  0  0  0  2  0  0  0  0
    1.0717   -0.0000    0.0000 C   0  0  0  0  0  0  0  2  0  0  0  0
    0.3572    0.4125    0.0000 C   0  0  0  0  0  0  0  2  0  0  0  0
   -0.3572   -0.0000    0.0000 N   0  0  0  0  0  0  0  2  0  0  0  0
   -1.0717    0.4125    0.0000 C   0  0  0  0  0  0  0  2  0  0  0  0
   -1.7862   -0.0000    0.0000 C   0  0  0  0  0  0  0  2  0  0  0  0
   -1.0717    1.2375    0.0000 C   0  0  0  0  0  0  0  2  0  0  0  0
   -0.3572   -0.8250    0.0000 C   0  0  0  0  0  0  0  2  0  0  0  0
   -1.0717   -1.2375    0.0000 C   0  0  0  0  0  0  0  2  0  0  0  0
    0.3572   -1.2375    0.0000 C   0  0  0  0  0  0  0  2  0  0  0  0
  1  2  1  0        0
  2  3  1  0        0
  3  4  1  0        0
  4  5  1  0        0
  5  6  1  0        0
  5  7  1  0        0
  4  8  1  0        0
  8  9  1  0        0
  8 10  1  0        0
M  END
$$$$

CDXL12

 12 12  0  0  0  0  0  0  0  0999 V2000
   -1.4289    1.2375    0.0000 O   0  0  0  0  0  0  0  2  0  0  0  0
   -1.4289    0.4125    0.0000 N   0  0  0  0  0  0  0  2  0  0  0  0
   -2.1434   -0.0000    0.0000 O   0  0  0  0  0  0  0  2  0  0  0  0
   -0.7145   -0.0000    0.0000 C   0  0  0  0  0  0  0  2  0  0  0  0
   -0.7145   -0.8250    0.0000 C   0  0  0  0  0  0  0  2  0  0  0  0
   -1.4289   -1.2375    0.0000 N   0  0  0  0  0  0  0  2  0  0  0  0
    0.0000   -1.2375    0.0000 C   0  0  0  0  0  0  0  2  0  0  0  0
    0.7145   -0.8250    0.0000 C   0  0  0  0  0  0  0  2  0  0  0  0
    0.7145   -0.0000    0.0000 C   0  0  0  0  0  0  0  2  0  0  0  0
    1.4289    0.4125    0.0000 O   0  0  0  0  0  0  0  2  0  0  0  0
    2.1434   -0.0000    0.0000 C   0  0  0  0  0  0  0  2  0  0  0  0
    0.0000    0.4125    0.0000 C   0  0  0  0  0  0  0  2  0  0  0  0
  1  2  2  0        0
  2  3  2  0        0
  2  4  1  0        0
  4  5  4  0        0
  5  6  1  0        0
  5  7  4  0        0
  7  8  4  0        0
  8  9  4  0        0
  9 10  1  0        0
 10 11  1  0        0
  9 12  4  0        0
  4 12  4  0        0
M  END
$$$$

CDXL12

 17 17  0  0  0  0  0  0  0  0999 V2000
   -2.5006    0.4125    0.0000 C   0  0  0  0  0  0  0  2  0  0  0  0
   -1.7862    0.8250    0.0000 C   0  0  0  0  0  0  0  2  0  0  0  0
   -1.0717    0.4125    0.0000 O   0  0  0  0  0  0  0  2  0  0  0  0
   -0.3572    0.8250    0.0000 P   0  0  0  0  0  0  0  2  0  0  0  0
   -0.3572    1.6500    0.0000 S   0  0  0  0  0  0  0  2  0  0  0  0
    0.3572    0.4125    0.0000 O   0  0  0  0  0  0  0  2  0  0  0  0
    1.0717    0.8250    0.0000 C   0  0  0  0  0  0  0  2  0  0  0  0
    1.7862    0.4125    0.0000 C   0  0  0  0  0  0  0  2  0  0  0  0
   -0.3572    0.0000    0.0000 O   0  0  0  0  0  0  0  2  0  0  0  0
    0.3572   -0.4125    0.0000 C   0  0  0  0  0  0  0  2  0  0  0  0
    1.0717    0.0000    0.0000 C   0  0  0  0  0  0  0  2  0  0  0  0
    1.7862   -0.4125    0.0000 C   0  0  0  0  0  0  0  2  0  0  0  0
    1.7862   -1.2375    0.0000 C   0  0  0  0  0  0  0  2  0  0  0  0
    2.5006   -1.6500    0.0000 Cl  0  0  0  0  0  0  0  2  0  0  0  0
    1.0717   -1.6500    0.0000 C   0  0  0  0  0  0  0  2  0  0  0  0
    0.3572   -1.2375    0.0000 C   0  0  0  0  0  0  0  2  0  0  0  0
   -0.3572   -1.6500    0.0000 Cl  0  0  0  0  0  0  0  2  0  0  0  0
  1  2  1  0        0
  2  3  1  0        0
  3  4  1  0        0
  4  5  2  0        0
  4  6  1  0        0
  6  7  1  0        0
  7  8  1  0        0
  4  9  1  0        0
  9 10  1  0        0
 10 11  4  0        0
 11 12  4  0        0
 12 13  4  0        0
 13 14  1  0        0
 13 15  4  0        0
 15 16  4  0        0
 10 16  4  0        0
 16 17  1  0        0
M  END
$$$$

CDXL12

 17 18  0  0  0  0  0  0  0  0999 V2000
    0.3572    0.8250    0.0000 O   0  0  0  0  0  0  0  2  0  0  0  0
   -0.3572    0.4125    0.0000 C   0  0  0  0  0  0  0  2  0  0  0  0
   -0.3572   -0.4125    0.0000 C   0  0  0  0  0  0  0  2  0  0  0  0
   -1.0717   -0.8250    0.0000 C   0  0  0  0  0  0  0  2  0  0  0  0
   -1.7862   -0.4125    0.0000 C   0  0  0  0  0  0  0  2  0  0  0  0
   -1.7862    0.4125    0.0000 C   0  0  0  0  0  0  0  2  0  0  0  0
   -1.0717    0.8250    0.0000 C   0  0  0  0  0  0  0  2  0  0  0  0
   -2.5006   -0.8250    0.0000 Cl  0  0  0  0  0  0  0  2  0  0  0  0
    0.3572   -0.8250    0.0000 C   0  0  0  0  0  0  0  2  0  0  0  0
    1.0717   -0.4125    0.0000 C   0  0  0  0  0  0  0  2  0  0  0  0
    1.7862   -0.8250    0.0000 C   0  0  0  0  0  0  0  2  0  0  0  0
    1.7862   -1.6500    0.0000 O   0  0  0  0  0  0  0  2  0  0  0  0
    2.5006   -0.4125    0.0000 C   0  0  0  0  0  0  0  2  0  0  0  0
    2.5006    0.4125    0.0000 C   0  0  0  0  0  0  0  2  0  0  0  0
    1.7862    0.8250    0.0000 C   0  0  0  0  0  0  0  2  0  0  0  0
    1.7862    1.6500    0.0000 Cl  0  0  0  0  0  0  0  2  0  0  0  0
    1.0717    0.4125    0.0000 C   0  0  0  0  0  0  0  2  0  0  0  0
  1  2  1  0        0
  2  3  4  0        0
  3  4  4  0        0
  4  5  4  0        0
  5  6  4  0        0
  6  7  4  0        0
  2  7  4  0        0
  5  8  1  0        0
  3  9  1  0        0
  9 10  1  0        0
 10 11  4  0        0
 11 12  1  0        0
 11 13  4  0        0
 13 14  4  0        0
 14 15  4  0        0
 15 16  1  0        0
 15 17  4  0        0
 10 17  4  0        0
M  END
$$$$

CDXL12

 12 12  0  0  0  0  0  0  0  0999 V2000
   -1.7862   -0.8250    0.0000 O   0  0  0  0  0  0  0  2  0  0  0  0
   -1.0717   -0.4125    0.0000 C   0  0  0  0  0  0  0  2  0  0  0  0
   -1.0717    0.4125    0.0000 C   0  0  0  0  0  0  0  2  0  0  0  0
   -1.7862    0.8250    0.0000 O   0  0  0  0  0  0  0  2  0  0  0  0
   -0.3572    0.8250    0.0000 C   0  0  0  0  0  0  0  2  0  0  0  0
    0.3572    0.4125    0.0000 C   0  0  0  0  0  0  0  2  0  0  0  0
    0.3572   -0.4125    0.0000 C   0  0  0  0  0  0  0  2  0  0  0  0
    1.0717   -0.8250    0.0000 C   0  0  0  0  0  0  0  2  0  0  0  0
    1.7862   -0.4125    0.0000 C   0  0  0  0  0  0  0  2  0  0  0  0
    2.5006   -0.8250    0.0000 C   0  0  0  0  0  0  0  2  0  0  0  0
   -0.3572   -0.8250    0.0000 C   0  0  0  0  0  0  0  2  0  0  0  0
   -2.5006   -0.4125    0.0000 C   0  0  0  0  0  0  0  2  0  0  0  0
  1  2  1  0        0
  2  3  4  0        0
  3  4  1  0        0
  3  5  4  0        0
  5  6  4  0        0
  6  7  4  0        0
  7  8  1  0        0
  8  9  1  0        0
  9 10  2  0        0
  7 11  4  0        0
  2 11  4  0        0
  1 12  1  0        0
M  END
$$$$

CDXL12

 17 18  0  0  0  0  0  0  0  0999 V2000
    0.0000   -0.2062    0.0000 N   0  0  0  0  0  0  0  2  0  0  0  0
   -0.7145    0.2062    0.0000 N   0  0  0  0  0  0  0  2  0  0  0  0
   -1.4289   -0.2062    0.0000 C   0  0  0  0  0  0  0  2  0  0  0  0
   -1.4289   -1.0312    0.0000 C   0  0  0  0  0  0  0  2  0  0  0  0
   -2.1434   -1.4437    0.0000 C   0  0  0  0  0  0  0  2  0  0  0  0
   -2.8579   -1.0312    0.0000 C   0  0  0  0  0  0  0  2  0  0  0  0
   -2.8579   -0.2062    0.0000 C   0  0  0  0  0  0  0  2  0  0  0  0
   -2.1434    0.2062    0.0000 C   0  0  0  0  0  0  0  2  0  0  0  0
   -0.7145   -1.4437    0.0000 C   0  0  0  0  0  0  0  2  0  0  0  0
    0.7145    0.2062    0.0000 C   0  0  0  0  0  0  0  2  0  0  0  0
    0.7145    1.0312    0.0000 C   0  0  0  0  0  0  0  2  0  0  0  0
    1.4289    1.4437    0.0000 C   0  0  0  0  0  0  0  2  0  0  0  0
    2.1434    1.0312    0.0000 C   0  0  0  0  0  0  0  2  0  0  0  0
    2.8579    1.4437    0.0000 N   0  0  0  0  0  0  0  2  0  0  0  0
    2.1434    0.2062    0.0000 C   0  0  0  0  0  0  0  2  0  0  0  0
    2.8579   -0.2063    0.0000 C   0  0  0  0  0  0  0  2  0  0  0  0
    1.4289   -0.2062    0.0000 C   0  0  0  0  0  0  0  2  0  0  0  0
  1  2  2  0        0
  2  3  1  0        0
  3  4  4  0        0
  4  5  4  0        0
  5  6  4  0        0
  6  7  4  0        0
  7  8  4  0        0
  3  8  4  0        0
  4  9  1  0        0
  1 10  1  0        0
 10 11  4  0        0
 11 12  4  0        0
 12 13  4  0        0
 13 14  1  0        0
 13 15  4  0        0
 15 16  1  0        0
 15 17  4  0        0
 10 17  4  0        0
M  END
$$$$

CDXL12

 11 11  0  0  0  0  0  0  0  0999 V2000
    1.4203    0.3450    0.0000 O   0  0  0  0  0  0  0  2  0  0  0  0
    1.4203   -0.4800    0.0000 C   0  0  0  0  0  0  0  2  0  0  0  0
    0.7059   -0.8925    0.0000 N   0  0  0  0  0  0  0  2  0  0  0  0
   -0.0086   -0.4800    0.0000 C   0  0  0  0  0  0  0  2  0  0  0  0
   -0.7623   -0.8156    0.0000 N   0  0  0  0  0  0  0  2  0  0  0  0
   -1.3143   -0.2025    0.0000 C   0  0  0  0  0  0  0  2  0  0  0  0
   -2.1348   -0.2887    0.0000 O   0  0  0  0  0  0  0  2  0  0  0  0
   -0.9018    0.5120    0.0000 N   0  0  0  0  0  0  0  2  0  0  0  0
   -0.0948    0.3405    0.0000 C   0  0  0  0  0  0  0  2  0  0  0  0
    0.5182    0.8925    0.0000 O   0  0  0  0  0  0  0  2  0  0  0  0
    2.1348   -0.8925    0.0000 N   0  0  0  0  0  0  0  2  0  0  0  0
  1  2  2  0        0
  2  3  1  0        0
  3  4  1  0        0
  4  5  1  0        0
  5  6  1  0        0
  6  7  2  0        0
  6  8  1  0        0
  8  9  1  0        0
  4  9  1  0        0
  9 10  2  0        0
  2 11  1  0        0
M  END
$$$$

CDXL12

  8  7  0  0  0  0  0  0  0  0999 V2000
    1.0717    1.0313    0.0000 O   0  0  0  0  0  0  0  2  0  0  0  0
    1.0717    0.2062    0.0000 C   0  0  0  0  0  0  0  2  0  0  0  0
    1.7862   -0.2062    0.0000 O   0  0  0  0  0  0  0  2  0  0  0  0
    0.3572   -0.2062    0.0000 C   0  0  0  0  0  0  0  2  0  0  0  0
   -0.3572    0.2062    0.0000 C   0  0  0  0  0  0  0  2  0  0  0  0
   -1.0717   -0.2062    0.0000 C   0  0  0  0  0  0  0  2  0  0  0  0
   -1.7862    0.2062    0.0000 C   0  0  0  0  0  0  0  2  0  0  0  0
    0.3572   -1.0313    0.0000 C   0  0  0  0  0  0  0  2  0  0  0  0
  1  2  2  0        0
  2  3  1  0        0
  2  4  1  0        0
  4  5  1  0        0
  5  6  1  0        0
  6  7  1  0        0
  4  8  1  0        0
M  END
$$$$

CDXL12

  8  7  0  0  0  0  0  0  0  0999 V2000
   -0.3572    1.0312    0.0000 O   0  0  0  0  0  0  0  2  0  0  0  0
   -0.3572    0.2062    0.0000 C   0  0  0  0  0  0  0  2  0  0  0  0
    0.3572   -0.2063    0.0000 O   0  0  0  0  0  0  0  2  0  0  0  0
    1.0717    0.2062    0.0000 C   0  0  0  0  0  0  0  2  0  0  0  0
    1.7862   -0.2063    0.0000 C   0  0  0  0  0  0  0  2  0  0  0  0
   -1.0717   -0.2063    0.0000 C   0  0  0  0  0  0  0  2  0  0  0  0
   -1.7862    0.2062    0.0000 C   0  0  0  0  0  0  0  2  0  0  0  0
   -1.0717   -1.0312    0.0000 C   0  0  0  0  0  0  0  2  0  0  0  0
  1  2  2  0        0
  2  3  1  0        0
  3  4  1  0        0
  4  5  1  0        0
  2  6  1  0        0
  6  7  1  0        0
  6  8  1  0        0
M  END
$$$$

CDXL12

  8  7  0  0  0  0  0  0  0  0999 V2000
   -0.3572    1.0312    0.0000 O   0  0  0  0  0  0  0  2  0  0  0  0
   -0.3572    0.2062    0.0000 C   0  0  0  0  0  0  0  2  0  0  0  0
    0.3572   -0.2063    0.0000 O   0  0  0  0  0  0  0  2  0  0  0  0
    1.0717    0.2062    0.0000 C   0  0  0  0  0  0  0  2  0  0  0  0
    1.7862   -0.2063    0.0000 C   0  0  0  0  0  0  0  2  0  0  0  0
   -1.0717   -0.2063    0.0000 C   0  0  0  0  0  0  0  2  0  0  0  0
   -1.0717   -1.0312    0.0000 O   0  0  0  0  0  0  0  2  0  0  0  0
   -1.7862    0.2062    0.0000 C   0  0  0  0  0  0  0  2  0  0  0  0
  1  2  2  0        0
  2  3  1  0        0
  3  4  1  0        0
  4  5  1  0        0
  2  6  1  0        0
  6  7  1  0        0
  6  8  1  0        0
M  END
$$$$

CDXL12

 16 15  0  0  0  0  0  0  0  0999 V2000
   -1.7862   -0.2062    0.0000 N   0  0  0  0  0  0  0  2  0  0  0  0
   -1.0717    0.2063    0.0000 C   0  0  0  0  0  0  0  2  0  0  0  0
   -1.0717    1.0313    0.0000 S   0  0  0  0  0  0  0  2  0  0  0  0
   -0.3572   -0.2062    0.0000 S   0  0  0  0  0  0  0  2  0  0  0  0
    0.3572    0.2062    0.0000 S   0  0  0  0  0  0  0  2  0  0  0  0
    1.0717   -0.2062    0.0000 C   0  0  0  0  0  0  0  2  0  0  0  0
    1.7862    0.2062    0.0000 N   0  0  0  0  0  0  0  2  0  0  0  0
    2.5006   -0.2062    0.0000 C   0  0  0  0  0  0  0  2  0  0  0  0
    3.2151    0.2062    0.0000 C   0  0  0  0  0  0  0  2  0  0  0  0
    1.7862    1.0312    0.0000 C   0  0  0  0  0  0  0  2  0  0  0  0
    2.5006    1.4437    0.0000 C   0  0  0  0  0  0  0  2  0  0  0  0
    1.0717   -1.0312    0.0000 S   0  0  0  0  0  0  0  2  0  0  0  0
   -2.5006    0.2062    0.0000 C   0  0  0  0  0  0  0  2  0  0  0  0
   -3.2151   -0.2062    0.0000 C   0  0  0  0  0  0  0  2  0  0  0  0
   -1.7862   -1.0312    0.0000 C   0  0  0  0  0  0  0  2  0  0  0  0
   -2.5006   -1.4437    0.0000 C   0  0  0  0  0  0  0  2  0  0  0  0
  1  2  1  0        0
  2  3  2  0        0
  2  4  1  0        0
  4  5  1  0        0
  5  6  1  0        0
  6  7  1  0        0
  7  8  1  0        0
  8  9  1  0        0
  7 10  1  0        0
 10 11  1  0        0
  6 12  2  0        0
  1 13  1  0        0
 13 14  1  0        0
  1 15  1  0        0
 15 16  1  0        0
M  END
$$$$

CDXL12

 10  9  0  0  0  0  0  0  0  0999 V2000
   -0.7145    1.0312    0.0000 O   0  0  0  0  0  0  0  2  0  0  0  0
   -0.7145    0.2062    0.0000 C   0  0  0  0  0  0  0  2  0  0  0  0
   -0.0000   -0.2062    0.0000 O   0  0  0  0  0  0  0  2  0  0  0  0
    0.7145    0.2063    0.0000 C   0  0  0  0  0  0  0  2  0  0  0  0
    1.4289   -0.2062    0.0000 C   0  0  0  0  0  0  0  2  0  0  0  0
    1.4289   -1.0312    0.0000 C   0  0  0  0  0  0  0  2  0  0  0  0
    2.1434    0.2063    0.0000 C   0  0  0  0  0  0  0  2  0  0  0  0
   -1.4289   -0.2062    0.0000 C   0  0  0  0  0  0  0  2  0  0  0  0
   -2.1434    0.2062    0.0000 C   0  0  0  0  0  0  0  2  0  0  0  0
   -1.4289   -1.0312    0.0000 C   0  0  0  0  0  0  0  2  0  0  0  0
  1  2  2  0        0
  2  3  1  0        0
  3  4  1  0        0
  4  5  1  0        0
  5  6  1  0        0
  5  7  1  0        0
  2  8  1  0        0
  8  9  1  0        0
  8 10  1  0        0
M  END
$$$$

CDXL12

  7  6  0  0  0  0  0  0  0  0999 V2000
    1.4289   -0.4125    0.0000 O   0  0  0  0  0  0  0  2  0  0  0  0
    0.7145   -0.8250    0.0000 C   0  0  0  0  0  0  0  2  0  0  0  0
    0.0000   -0.4125    0.0000 C   0  0  0  0  0  0  0  2  0  0  0  0
   -0.7145   -0.8250    0.0000 C   0  0  0  0  0  0  0  2  0  0  0  0
   -1.4289   -0.4125    0.0000 C   0  0  0  0  0  0  0  2  0  0  0  0
    0.0000    0.4125    0.0000 C   0  0  0  0  0  0  0  2  0  0  0  0
   -0.7145    0.8250    0.0000 C   0  0  0  0  0  0  0  2  0  0  0  0
  1  2  1  0        0
  2  3  1  0        0
  3  4  1  0        0
  4  5  1  0        0
  3  6  1  0        0
  6  7  1  0        0
M  END
$$$$

CDXL12

  7  7  0  0  0  0  0  0  0  0999 V2000
   -0.1479    0.5307    0.0000 O   0  0  0  0  0  0  0  2  0  0  0  0
   -0.0616   -0.2898    0.0000 C   0  0  0  0  0  0  0  2  0  0  0  0
   -0.8153   -0.6253    0.0000 C   0  0  0  0  0  0  0  2  0  0  0  0
   -1.3673   -0.0122    0.0000 C   0  0  0  0  0  0  0  2  0  0  0  0
   -0.9548    0.7023    0.0000 C   0  0  0  0  0  0  0  2  0  0  0  0
    0.6529   -0.7023    0.0000 C   0  0  0  0  0  0  0  2  0  0  0  0
    1.3673   -0.2898    0.0000 O   0  0  0  0  0  0  0  2  0  0  0  0
  1  2  1  0        0
  2  3  1  0        0
  3  4  1  0        0
  4  5  1  0        0
  1  5  1  0        0
  2  6  1  0        0
  6  7  1  0        0
M  END
$$$$

CDXL12

  7  7  0  0  0  0  0  0  0  0999 V2000
   -0.1479    0.5307    0.0000 C   0  0  0  0  0  0  0  2  0  0  0  0
   -0.0616   -0.2898    0.0000 C   0  0  0  0  0  0  0  2  0  0  0  0
    0.6529   -0.7023    0.0000 C   0  0  0  0  0  0  0  2  0  0  0  0
    1.3673   -0.2898    0.0000 O   0  0  0  0  0  0  0  2  0  0  0  0
   -0.8153   -0.6253    0.0000 O   0  0  0  0  0  0  0  2  0  0  0  0
   -1.3673   -0.0122    0.0000 C   0  0  0  0  0  0  0  2  0  0  0  0
   -0.9548    0.7023    0.0000 C   0  0  0  0  0  0  0  2  0  0  0  0
  1  2  1  0        0
  2  3  1  0        0
  3  4  1  0        0
  2  5  1  0        0
  5  6  1  0        0
  6  7  1  0        0
  1  7  1  0        0
M  END
$$$$

CDXL12

  7  7  0  0  0  0  0  0  0  0999 V2000
    1.3673   -0.2898    0.0000 O   0  0  0  0  0  0  0  2  0  0  0  0
    0.6529   -0.7023    0.0000 C   0  0  0  0  0  0  0  2  0  0  0  0
   -0.0616   -0.2898    0.0000 C   0  0  0  0  0  0  0  2  0  0  0  0
   -0.8153   -0.6253    0.0000 O   0  0  0  0  0  0  0  2  0  0  0  0
   -1.3673   -0.0122    0.0000 C   0  0  0  0  0  0  0  2  0  0  0  0
   -0.9548    0.7023    0.0000 C   0  0  0  0  0  0  0  2  0  0  0  0
   -0.1479    0.5307    0.0000 C   0  0  0  0  0  0  0  2  0  0  0  0
  1  2  2  0        0
  2  3  1  0        0
  3  4  1  0        0
  4  5  1  0        0
  5  6  1  0        0
  6  7  1  0        0
  3  7  1  0        0
M  END
$$$$

CDXL12

 10 10  0  0  0  0  0  0  0  0999 V2000
    0.0000   -0.0000    0.0000 C   0  0  0  0  0  0  0  2  0  0  0  0
    0.0000   -0.8250    0.0000 C   0  0  0  0  0  0  0  2  0  0  0  0
   -0.7145   -1.2375    0.0000 C   0  0  0  0  0  0  0  2  0  0  0  0
   -1.4289   -0.8250    0.0000 C   0  0  0  0  0  0  0  2  0  0  0  0
   -1.4289   -0.0000    0.0000 C   0  0  0  0  0  0  0  2  0  0  0  0
   -0.7145    0.4125    0.0000 C   0  0  0  0  0  0  0  2  0  0  0  0
    0.7145    0.4125    0.0000 C   0  0  0  0  0  0  0  2  0  0  0  0
    1.4289    0.8250    0.0000 Cl  0  0  0  0  0  0  0  2  0  0  0  0
    0.7145    1.2375    0.0000 Cl  0  0  0  0  0  0  0  2  0  0  0  0
    1.4289   -0.0000    0.0000 Cl  0  0  0  0  0  0  0  2  0  0  0  0
  1  2  4  0        0
  2  3  4  0        0
  3  4  4  0        0
  4  5  4  0        0
  5  6  4  0        0
  1  6  4  0        0
  1  7  1  0        0
  7  8  1  0        0
  7  9  1  0        0
  7 10  1  0        0
M  END
$$$$

CDXL12

 10 10  0  0  0  0  0  0  0  0999 V2000
    1.4289    0.8250    0.0000 F   0  0  0  0  0  0  0  2  0  0  0  0
    0.7145    0.4125    0.0000 C   0  0  0  0  0  0  0  2  0  0  0  0
    0.7145    1.2375    0.0000 F   0  0  0  0  0  0  0  2  0  0  0  0
    1.4289   -0.0000    0.0000 F   0  0  0  0  0  0  0  2  0  0  0  0
    0.0000   -0.0000    0.0000 C   0  0  0  0  0  0  0  2  0  0  0  0
    0.0000   -0.8250    0.0000 C   0  0  0  0  0  0  0  2  0  0  0  0
   -0.7145   -1.2375    0.0000 C   0  0  0  0  0  0  0  2  0  0  0  0
   -1.4289   -0.8250    0.0000 C   0  0  0  0  0  0  0  2  0  0  0  0
   -1.4289   -0.0000    0.0000 C   0  0  0  0  0  0  0  2  0  0  0  0
   -0.7145    0.4125    0.0000 C   0  0  0  0  0  0  0  2  0  0  0  0
  1  2  1  0        0
  2  3  1  0        0
  2  4  1  0        0
  2  5  1  0        0
  5  6  4  0        0
  6  7  4  0        0
  7  8  4  0        0
  8  9  4  0        0
  9 10  4  0        0
  5 10  4  0        0
M  END
$$$$

CDXL12

 10 10  0  0  0  0  0  0  0  0999 V2000
    1.1270   -0.2467    0.0000 O   0  0  0  0  0  0  0  2  0  0  0  0
    0.7145    0.4678    0.0000 S   0  0  0  0  0  0  0  2  0  0  0  0
    0.3020    1.1822    0.0000 O   0  0  0  0  0  0  0  2  0  0  0  0
    1.4289    0.8803    0.0000 N   0  0  0  0  0  0  0  2  0  0  0  0
    0.0000    0.0553    0.0000 C   0  0  0  0  0  0  0  2  0  0  0  0
    0.0000   -0.7697    0.0000 C   0  0  0  0  0  0  0  2  0  0  0  0
   -0.7145   -1.1822    0.0000 C   0  0  0  0  0  0  0  2  0  0  0  0
   -1.4289   -0.7697    0.0000 C   0  0  0  0  0  0  0  2  0  0  0  0
   -1.4289    0.0553    0.0000 C   0  0  0  0  0  0  0  2  0  0  0  0
   -0.7145    0.4678    0.0000 C   0  0  0  0  0  0  0  2  0  0  0  0
  1  2  2  0        0
  2  3  2  0        0
  2  4  1  0        0
  2  5  1  0        0
  5  6  4  0        0
  6  7  4  0        0
  7  8  4  0        0
  8  9  4  0        0
  9 10  4  0        0
  5 10  4  0        0
M  END
$$$$

CDXL12

 11 11  0  0  0  0  0  0  0  0999 V2000
    1.7862    0.8250    0.0000 F   0  0  0  0  0  0  0  2  0  0  0  0
    1.0717    0.4125    0.0000 C   0  0  0  0  0  0  0  2  0  0  0  0
    1.0717    1.2375    0.0000 F   0  0  0  0  0  0  0  2  0  0  0  0
    1.7862   -0.0000    0.0000 F   0  0  0  0  0  0  0  2  0  0  0  0
    0.3572   -0.0000    0.0000 C   0  0  0  0  0  0  0  2  0  0  0  0
    0.3572   -0.8250    0.0000 C   0  0  0  0  0  0  0  2  0  0  0  0
   -0.3572   -1.2375    0.0000 C   0  0  0  0  0  0  0  2  0  0  0  0
   -1.0717   -0.8250    0.0000 C   0  0  0  0  0  0  0  2  0  0  0  0
   -1.0717   -0.0000    0.0000 C   0  0  0  0  0  0  0  2  0  0  0  0
   -1.7862    0.4125    0.0000 Cl  0  0  0  0  0  0  0  2  0  0  0  0
   -0.3572    0.4125    0.0000 C   0  0  0  0  0  0  0  2  0  0  0  0
  1  2  1  0        0
  2  3  1  0        0
  2  4  1  0        0
  2  5  1  0        0
  5  6  4  0        0
  6  7  4  0        0
  7  8  4  0        0
  8  9  4  0        0
  9 10  1  0        0
  9 11  4  0        0
  5 11  4  0        0
M  END
$$$$

CDXL12

 11 11  0  0  0  0  0  0  0  0999 V2000
    1.7862    0.8250    0.0000 F   0  0  0  0  0  0  0  2  0  0  0  0
    1.0717    0.4125    0.0000 C   0  0  0  0  0  0  0  2  0  0  0  0
    1.0717    1.2375    0.0000 F   0  0  0  0  0  0  0  2  0  0  0  0
    1.7862   -0.0000    0.0000 F   0  0  0  0  0  0  0  2  0  0  0  0
    0.3572   -0.0000    0.0000 C   0  0  0  0  0  0  0  2  0  0  0  0
    0.3572   -0.8250    0.0000 C   0  0  0  0  0  0  0  2  0  0  0  0
   -0.3572   -1.2375    0.0000 C   0  0  0  0  0  0  0  2  0  0  0  0
   -1.0717   -0.8250    0.0000 C   0  0  0  0  0  0  0  2  0  0  0  0
   -1.0717   -0.0000    0.0000 C   0  0  0  0  0  0  0  2  0  0  0  0
   -1.7862    0.4125    0.0000 N   0  0  0  0  0  0  0  2  0  0  0  0
   -0.3572    0.4125    0.0000 C   0  0  0  0  0  0  0  2  0  0  0  0
  1  2  1  0        0
  2  3  1  0        0
  2  4  1  0        0
  2  5  1  0        0
  5  6  4  0        0
  6  7  4  0        0
  7  8  4  0        0
  8  9  4  0        0
  9 10  1  0        0
  9 11  4  0        0
  5 11  4  0        0
M  END
$$$$

CDXL12

 11 11  0  0  0  0  0  0  0  0999 V2000
    1.7862    1.2375    0.0000 O   0  0  0  0  0  0  0  2  0  0  0  0
    1.0717    0.8250    0.0000 C   0  0  0  0  0  0  0  2  0  0  0  0
    1.0717   -0.0000    0.0000 C   0  0  0  0  0  0  0  2  0  0  0  0
    0.3572   -0.4125    0.0000 C   0  0  0  0  0  0  0  2  0  0  0  0
   -0.3572   -0.0000    0.0000 C   0  0  0  0  0  0  0  2  0  0  0  0
   -0.3572    0.8250    0.0000 C   0  0  0  0  0  0  0  2  0  0  0  0
    0.3572    1.2375    0.0000 C   0  0  0  0  0  0  0  2  0  0  0  0
   -1.0717   -0.4125    0.0000 C   0  0  0  0  0  0  0  2  0  0  0  0
   -1.0717   -1.2375    0.0000 C   0  0  0  0  0  0  0  2  0  0  0  0
   -1.7862   -0.8250    0.0000 C   0  0  0  0  0  0  0  2  0  0  0  0
   -1.7862   -0.0000    0.0000 C   0  0  0  0  0  0  0  2  0  0  0  0
  1  2  1  0        0
  2  3  4  0        0
  3  4  4  0        0
  4  5  4  0        0
  5  6  4  0        0
  6  7  4  0        0
  2  7  4  0        0
  5  8  1  0        0
  8  9  1  0        0
  8 10  1  0        0
  8 11  1  0        0
M  END
$$$$

CDXL12

 11 11  0  0  0  0  0  0  0  0999 V2000
    1.7862    0.8250    0.0000 O   0  0  0  0  0  0  0  2  0  0  0  0
    1.0717    0.4125    0.0000 C   0  0  0  0  0  0  0  2  0  0  0  0
    0.3572   -0.0000    0.0000 C   0  0  0  0  0  0  0  2  0  0  0  0
    0.3572   -0.8250    0.0000 C   0  0  0  0  0  0  0  2  0  0  0  0
   -0.3572   -1.2375    0.0000 C   0  0  0  0  0  0  0  2  0  0  0  0
   -1.0717   -0.8250    0.0000 C   0  0  0  0  0  0  0  2  0  0  0  0
   -1.0717   -0.0000    0.0000 C   0  0  0  0  0  0  0  2  0  0  0  0
   -0.3572    0.4125    0.0000 C   0  0  0  0  0  0  0  2  0  0  0  0
   -1.7862   -1.2375    0.0000 C   0  0  0  0  0  0  0  2  0  0  0  0
    1.0717    1.2375    0.0000 C   0  0  0  0  0  0  0  2  0  0  0  0
    1.7862   -0.0000    0.0000 C   0  0  0  0  0  0  0  2  0  0  0  0
  1  2  1  0        0
  2  3  1  0        0
  3  4  1  0        0
  4  5  1  0        0
  5  6  1  0        0
  6  7  2  0        0
  7  8  1  0        0
  3  8  1  0        0
  6  9  1  0        0
  2 10  1  0        0
  2 11  1  0        0
M  END
$$$$

CDXL12

  9  9  0  0  0  0  0  0  0  0999 V2000
    0.0000   -0.0000    0.0000 C   0  0  0  0  0  0  0  2  0  0  0  0
   -0.7145   -0.4125    0.0000 C   0  0  0  0  0  0  0  2  0  0  0  0
   -1.4289    0.0000    0.0000 C   0  0  0  0  0  0  0  2  0  0  0  0
   -1.4289    0.8250    0.0000 C   0  0  0  0  0  0  0  2  0  0  0  0
   -0.7145    1.2375    0.0000 C   0  0  0  0  0  0  0  2  0  0  0  0
    0.0000    0.8250    0.0000 C   0  0  0  0  0  0  0  2  0  0  0  0
    0.7145   -0.4125    0.0000 C   0  0  0  0  0  0  0  2  0  0  0  0
    0.7145   -1.2375    0.0000 C   0  0  0  0  0  0  0  2  0  0  0  0
    1.4289    0.0000    0.0000 C   0  0  0  0  0  0  0  2  0  0  0  0
  1  2  4  0        0
  2  3  4  0        0
  3  4  4  0        0
  4  5  4  0        0
  5  6  4  0        0
  1  6  4  0        0
  1  7  1  0        0
  7  8  1  0        0
  7  9  1  0        0
M  END
$$$$

CDXL12

  9  9  0  0  0  0  0  0  0  0999 V2000
    0.0000   -0.0000    0.0000 C   0  0  0  0  0  0  0  2  0  0  0  0
    0.7145   -0.4125    0.0000 C   0  0  0  0  0  0  0  2  0  0  0  0
    0.7145   -1.2375    0.0000 C   0  0  0  0  0  0  0  2  0  0  0  0
    1.4289    0.0000    0.0000 C   0  0  0  0  0  0  0  2  0  0  0  0
   -0.7145   -0.4125    0.0000 C   0  0  0  0  0  0  0  2  0  0  0  0
   -1.4289    0.0000    0.0000 C   0  0  0  0  0  0  0  2  0  0  0  0
   -1.4289    0.8250    0.0000 C   0  0  0  0  0  0  0  2  0  0  0  0
   -0.7145    1.2375    0.0000 C   0  0  0  0  0  0  0  2  0  0  0  0
    0.0000    0.8250    0.0000 C   0  0  0  0  0  0  0  2  0  0  0  0
  1  2  1  0        0
  2  3  2  0        0
  2  4  1  0        0
  1  5  4  0        0
  5  6  4  0        0
  6  7  4  0        0
  7  8  4  0        0
  8  9  4  0        0
  1  9  4  0        0
M  END
$$$$

CDXL12

  9  9  0  0  0  0  0  0  0  0999 V2000
    0.7145   -1.2375    0.0000 O   0  0  0  0  0  0  0  2  0  0  0  0
    0.7145   -0.4125    0.0000 C   0  0  0  0  0  0  0  2  0  0  0  0
    0.0000   -0.0000    0.0000 C   0  0  0  0  0  0  0  2  0  0  0  0
   -0.7145   -0.4125    0.0000 C   0  0  0  0  0  0  0  2  0  0  0  0
   -1.4289    0.0000    0.0000 C   0  0  0  0  0  0  0  2  0  0  0  0
   -1.4289    0.8250    0.0000 C   0  0  0  0  0  0  0  2  0  0  0  0
   -0.7145    1.2375    0.0000 C   0  0  0  0  0  0  0  2  0  0  0  0
    0.0000    0.8250    0.0000 C   0  0  0  0  0  0  0  2  0  0  0  0
    1.4289    0.0000    0.0000 C   0  0  0  0  0  0  0  2  0  0  0  0
  1  2  1  0        0
  2  3  1  0        0
  3  4  4  0        0
  4  5  4  0        0
  5  6  4  0        0
  6  7  4  0        0
  7  8  4  0        0
  3  8  4  0        0
  2  9  1  0        0
M  END
$$$$

CDXL12

  9  9  0  0  0  0  0  0  0  0999 V2000
    0.0000   -0.0000    0.0000 C   0  0  0  0  0  0  0  2  0  0  0  0
   -0.7145   -0.4125    0.0000 C   0  0  0  0  0  0  0  2  0  0  0  0
   -1.4289    0.0000    0.0000 C   0  0  0  0  0  0  0  2  0  0  0  0
   -1.4289    0.8250    0.0000 C   0  0  0  0  0  0  0  2  0  0  0  0
   -0.7145    1.2375    0.0000 C   0  0  0  0  0  0  0  2  0  0  0  0
    0.0000    0.8250    0.0000 C   0  0  0  0  0  0  0  2  0  0  0  0
    0.7145   -0.4125    0.0000 C   0  0  0  0  0  0  0  2  0  0  0  0
    0.7145   -1.2375    0.0000 Cl  0  0  0  0  0  0  0  2  0  0  0  0
    1.4289    0.0000    0.0000 Cl  0  0  0  0  0  0  0  2  0  0  0  0
  1  2  4  0        0
  2  3  4  0        0
  3  4  4  0        0
  4  5  4  0        0
  5  6  4  0        0
  1  6  4  0        0
  1  7  1  0        0
  7  8  1  0        0
  7  9  1  0        0
M  END
$$$$

CDXL12

  9  9  0  0  0  0  0  0  0  0999 V2000
    0.7145    1.2375    0.0000 O   0  0  0  0  0  0  0  2  0  0  0  0
    0.7145    0.4125    0.0000 C   0  0  0  0  0  0  0  2  0  0  0  0
    1.4289   -0.0000    0.0000 O   0  0  0  0  0  0  0  2  0  0  0  0
    0.0000   -0.0000    0.0000 C   0  0  0  0  0  0  0  2  0  0  0  0
   -0.7145    0.4125    0.0000 C   0  0  0  0  0  0  0  2  0  0  0  0
   -1.4289   -0.0000    0.0000 C   0  0  0  0  0  0  0  2  0  0  0  0
   -1.4289   -0.8250    0.0000 C   0  0  0  0  0  0  0  2  0  0  0  0
   -0.7145   -1.2375    0.0000 C   0  0  0  0  0  0  0  2  0  0  0  0
    0.0000   -0.8250    0.0000 C   0  0  0  0  0  0  0  2  0  0  0  0
  1  2  2  0        0
  2  3  1  0        0
  2  4  1  0        0
  4  5  1  0        0
  5  6  1  0        0
  6  7  1  0        0
  7  8  1  0        0
  8  9  1  0        0
  4  9  1  0        0
M  END
$$$$

CDXL12

  9  9  0  0  0  0  0  0  0  0999 V2000
   -0.7145    1.2375    0.0000 O   0  0  0  0  0  0  0  2  0  0  0  0
   -0.7145    0.4125    0.0000 N   0  0  0  0  0  0  0  2  0  0  0  0
   -1.4289    0.0000    0.0000 O   0  0  0  0  0  0  0  2  0  0  0  0
    0.0000    0.0000    0.0000 C   0  0  0  0  0  0  0  2  0  0  0  0
    0.7145    0.4125    0.0000 C   0  0  0  0  0  0  0  2  0  0  0  0
    1.4289   -0.0000    0.0000 C   0  0  0  0  0  0  0  2  0  0  0  0
    1.4289   -0.8250    0.0000 C   0  0  0  0  0  0  0  2  0  0  0  0
    0.7145   -1.2375    0.0000 C   0  0  0  0  0  0  0  2  0  0  0  0
    0.0000   -0.8250    0.0000 C   0  0  0  0  0  0  0  2  0  0  0  0
  1  2  2  0        0
  2  3  2  0        0
  2  4  1  0        0
  4  5  4  0        0
  5  6  4  0        0
  6  7  4  0        0
  7  8  4  0        0
  8  9  4  0        0
  4  9  4  0        0
M  END
$$$$

CDXL12

 10 10  0  0  0  0  0  0  0  0999 V2000
    1.0717    1.2375    0.0000 O   0  0  0  0  0  0  0  2  0  0  0  0
    1.0717    0.4125    0.0000 C   0  0  0  0  0  0  0  2  0  0  0  0
    1.7862   -0.0000    0.0000 O   0  0  0  0  0  0  0  2  0  0  0  0
    0.3572   -0.0000    0.0000 C   0  0  0  0  0  0  0  2  0  0  0  0
    0.3572   -0.8250    0.0000 C   0  0  0  0  0  0  0  2  0  0  0  0
   -0.3572   -1.2375    0.0000 C   0  0  0  0  0  0  0  2  0  0  0  0
   -1.0717   -0.8250    0.0000 C   0  0  0  0  0  0  0  2  0  0  0  0
   -1.0717    0.0000    0.0000 C   0  0  0  0  0  0  0  2  0  0  0  0
   -1.7862    0.4125    0.0000 C   0  0  0  0  0  0  0  2  0  0  0  0
   -0.3572    0.4125    0.0000 C   0  0  0  0  0  0  0  2  0  0  0  0
  1  2  2  0        0
  2  3  1  0        0
  2  4  1  0        0
  4  5  4  0        0
  5  6  4  0        0
  6  7  4  0        0
  7  8  4  0        0
  8  9  1  0        0
  8 10  4  0        0
  4 10  4  0        0
M  END
$$$$

CDXL12

 10 10  0  0  0  0  0  0  0  0999 V2000
    1.0717    1.2375    0.0000 O   0  0  0  0  0  0  0  2  0  0  0  0
    1.0717    0.4125    0.0000 C   0  0  0  0  0  0  0  2  0  0  0  0
    1.7862   -0.0000    0.0000 O   0  0  0  0  0  0  0  2  0  0  0  0
    0.3572   -0.0000    0.0000 C   0  0  0  0  0  0  0  2  0  0  0  0
    0.3572   -0.8250    0.0000 C   0  0  0  0  0  0  0  2  0  0  0  0
   -0.3572   -1.2375    0.0000 C   0  0  0  0  0  0  0  2  0  0  0  0
   -1.0717   -0.8250    0.0000 C   0  0  0  0  0  0  0  2  0  0  0  0
   -1.0717    0.0000    0.0000 C   0  0  0  0  0  0  0  2  0  0  0  0
   -1.7862    0.4125    0.0000 N   0  0  0  0  0  0  0  2  0  0  0  0
   -0.3572    0.4125    0.0000 C   0  0  0  0  0  0  0  2  0  0  0  0
  1  2  2  0        0
  2  3  1  0        0
  2  4  1  0        0
  4  5  4  0        0
  5  6  4  0        0
  6  7  4  0        0
  7  8  4  0        0
  8  9  1  0        0
  8 10  4  0        0
  4 10  4  0        0
M  END
$$$$

CDXL12

 10 10  0  0  0  0  0  0  0  0999 V2000
    1.0717    1.2375    0.0000 O   0  0  0  0  0  0  0  2  0  0  0  0
    1.0717    0.4125    0.0000 C   0  0  0  0  0  0  0  2  0  0  0  0
    1.7862   -0.0000    0.0000 O   0  0  0  0  0  0  0  2  0  0  0  0
    0.3572   -0.0000    0.0000 C   0  0  0  0  0  0  0  2  0  0  0  0
    0.3572   -0.8250    0.0000 C   0  0  0  0  0  0  0  2  0  0  0  0
   -0.3572   -1.2375    0.0000 C   0  0  0  0  0  0  0  2  0  0  0  0
   -1.0717   -0.8250    0.0000 C   0  0  0  0  0  0  0  2  0  0  0  0
   -1.0717    0.0000    0.0000 C   0  0  0  0  0  0  0  2  0  0  0  0
   -1.7862    0.4125    0.0000 O   0  0  0  0  0  0  0  2  0  0  0  0
   -0.3572    0.4125    0.0000 C   0  0  0  0  0  0  0  2  0  0  0  0
  1  2  2  0        0
  2  3  1  0        0
  2  4  1  0        0
  4  5  4  0        0
  5  6  4  0        0
  6  7  4  0        0
  7  8  4  0        0
  8  9  1  0        0
  8 10  4  0        0
  4 10  4  0        0
M  END
$$$$

CDXL12

 10 10  0  0  0  0  0  0  0  0999 V2000
   -1.0717    1.2375    0.0000 O   0  0  0  0  0  0  0  2  0  0  0  0
   -1.0717    0.4125    0.0000 N   0  0  0  0  0  0  0  2  0  0  0  0
   -1.7862   -0.0000    0.0000 O   0  0  0  0  0  0  0  2  0  0  0  0
   -0.3572   -0.0000    0.0000 C   0  0  0  0  0  0  0  2  0  0  0  0
   -0.3572   -0.8250    0.0000 C   0  0  0  0  0  0  0  2  0  0  0  0
    0.3572   -1.2375    0.0000 C   0  0  0  0  0  0  0  2  0  0  0  0
    1.0717   -0.8250    0.0000 C   0  0  0  0  0  0  0  2  0  0  0  0
    1.0717    0.0000    0.0000 C   0  0  0  0  0  0  0  2  0  0  0  0
    1.7862    0.4125    0.0000 C   0  0  0  0  0  0  0  2  0  0  0  0
    0.3572    0.4125    0.0000 C   0  0  0  0  0  0  0  2  0  0  0  0
  1  2  2  0        0
  2  3  2  0        0
  2  4  1  0        0
  4  5  4  0        0
  5  6  4  0        0
  6  7  4  0        0
  7  8  4  0        0
  8  9  1  0        0
  8 10  4  0        0
  4 10  4  0        0
M  END
$$$$

CDXL12

 10 10  0  0  0  0  0  0  0  0999 V2000
   -1.0717    1.2375    0.0000 O   0  0  0  0  0  0  0  2  0  0  0  0
   -1.0717    0.4125    0.0000 N   0  0  0  0  0  0  0  2  0  0  0  0
   -1.7862   -0.0000    0.0000 O   0  0  0  0  0  0  0  2  0  0  0  0
   -0.3572   -0.0000    0.0000 C   0  0  0  0  0  0  0  2  0  0  0  0
   -0.3572   -0.8250    0.0000 C   0  0  0  0  0  0  0  2  0  0  0  0
    0.3572   -1.2375    0.0000 C   0  0  0  0  0  0  0  2  0  0  0  0
    1.0717   -0.8250    0.0000 C   0  0  0  0  0  0  0  2  0  0  0  0
    1.0717    0.0000    0.0000 C   0  0  0  0  0  0  0  2  0  0  0  0
    1.7862    0.4125    0.0000 N   0  0  0  0  0  0  0  2  0  0  0  0
    0.3572    0.4125    0.0000 C   0  0  0  0  0  0  0  2  0  0  0  0
  1  2  2  0        0
  2  3  2  0        0
  2  4  1  0        0
  4  5  4  0        0
  5  6  4  0        0
  6  7  4  0        0
  7  8  4  0        0
  8  9  1  0        0
  8 10  4  0        0
  4 10  4  0        0
M  END
$$$$

CDXL12

 13 13  0  0  0  0  0  0  0  0999 V2000
    0.7145    1.6500    0.0000 O   0  0  0  0  0  0  0  2  0  0  0  0
    0.7145    0.8250    0.0000 C   0  0  0  0  0  0  0  2  0  0  0  0
    1.4289    0.4125    0.0000 O   0  0  0  0  0  0  0  2  0  0  0  0
    2.1434    0.8250    0.0000 C   0  0  0  0  0  0  0  2  0  0  0  0
    0.0000    0.4125    0.0000 C   0  0  0  0  0  0  0  2  0  0  0  0
    0.0000   -0.4125    0.0000 C   0  0  0  0  0  0  0  2  0  0  0  0
   -0.7145   -0.8250    0.0000 C   0  0  0  0  0  0  0  2  0  0  0  0
   -0.7145   -1.6500    0.0000 O   0  0  0  0  0  0  0  2  0  0  0  0
   -1.4289   -0.4125    0.0000 C   0  0  0  0  0  0  0  2  0  0  0  0
   -2.1434   -0.8250    0.0000 O   0  0  0  0  0  0  0  2  0  0  0  0
   -1.4289    0.4125    0.0000 C   0  0  0  0  0  0  0  2  0  0  0  0
   -2.1434    0.8250    0.0000 O   0  0  0  0  0  0  0  2  0  0  0  0
   -0.7145    0.8250    0.0000 C   0  0  0  0  0  0  0  2  0  0  0  0
  1  2  2  0        0
  2  3  1  0        0
  3  4  1  0        0
  2  5  1  0        0
  5  6  4  0        0
  6  7  4  0        0
  7  8  1  0        0
  7  9  4  0        0
  9 10  1  0        0
  9 11  4  0        0
 11 12  1  0        0
 11 13  4  0        0
  5 13  4  0        0
M  END
$$$$

CDXL12

 12 12  0  0  0  0  0  0  0  0999 V2000
   -1.0717    1.6500    0.0000 O   0  0  0  0  0  0  0  2  0  0  0  0
   -1.0717    0.8250    0.0000 N   0  0  0  0  0  0  0  2  0  0  0  0
   -1.7862    0.4125    0.0000 O   0  0  0  0  0  0  0  2  0  0  0  0
   -0.3572    0.4125    0.0000 C   0  0  0  0  0  0  0  2  0  0  0  0
   -0.3572   -0.4125    0.0000 C   0  0  0  0  0  0  0  2  0  0  0  0
    0.3572   -0.8250    0.0000 C   0  0  0  0  0  0  0  2  0  0  0  0
    1.0717   -0.4125    0.0000 C   0  0  0  0  0  0  0  2  0  0  0  0
    1.7862   -0.8250    0.0000 N   0  0  0  0  0  0  0  2  0  0  0  0
    1.0717    0.4125    0.0000 C   0  0  0  0  0  0  0  2  0  0  0  0
    1.7862    0.8250    0.0000 Cl  0  0  0  0  0  0  0  2  0  0  0  0
    0.3572    0.8250    0.0000 C   0  0  0  0  0  0  0  2  0  0  0  0
    0.3572   -1.6500    0.0000 Cl  0  0  0  0  0  0  0  2  0  0  0  0
  1  2  2  0        0
  2  3  2  0        0
  2  4  1  0        0
  4  5  4  0        0
  5  6  4  0        0
  6  7  4  0        0
  7  8  1  0        0
  7  9  4  0        0
  9 10  1  0        0
  9 11  4  0        0
  4 11  4  0        0
  6 12  1  0        0
M  END
$$$$

CDXL12

 13 13  0  0  0  0  0  0  0  0999 V2000
    2.1434   -0.4125    0.0000 O   0  0  0  0  0  0  0  2  0  0  0  0
    1.4289   -0.8250    0.0000 C   0  0  0  0  0  0  0  2  0  0  0  0
    1.4289   -1.6500    0.0000 O   0  0  0  0  0  0  0  2  0  0  0  0
    0.7145   -0.4125    0.0000 C   0  0  0  0  0  0  0  2  0  0  0  0
    0.7145    0.4125    0.0000 C   0  0  0  0  0  0  0  2  0  0  0  0
    0.0000    0.8250    0.0000 C   0  0  0  0  0  0  0  2  0  0  0  0
    0.0000    1.6500    0.0000 O   0  0  0  0  0  0  0  2  0  0  0  0
   -0.7145    0.4125    0.0000 C   0  0  0  0  0  0  0  2  0  0  0  0
   -0.7145   -0.4125    0.0000 C   0  0  0  0  0  0  0  2  0  0  0  0
   -1.4289   -0.8250    0.0000 C   0  0  0  0  0  0  0  2  0  0  0  0
   -1.4289   -1.6500    0.0000 O   0  0  0  0  0  0  0  2  0  0  0  0
   -2.1434   -0.4125    0.0000 O   0  0  0  0  0  0  0  2  0  0  0  0
    0.0000   -0.8250    0.0000 O   0  0  0  0  0  0  0  2  0  0  0  0
  1  2  1  0        0
  2  3  2  0        0
  2  4  1  0        0
  4  5  2  0        0
  5  6  1  0        0
  6  7  2  0        0
  6  8  1  0        0
  8  9  2  0        0
  9 10  1  0        0
 10 11  2  0        0
 10 12  1  0        0
  9 13  1  0        0
  4 13  1  0        0
M  END
$$$$

CDXL12

 15 15  0  0  0  0  0  0  0  0999 V2000
    1.4289    1.8562    0.0000 O   0  0  0  0  0  0  0  2  0  0  0  0
    1.4289    1.0312    0.0000 C   0  0  0  0  0  0  0  2  0  0  0  0
    2.1434    0.6187    0.0000 O   0  0  0  0  0  0  0  2  0  0  0  0
    0.7145    0.6187    0.0000 C   0  0  0  0  0  0  0  2  0  0  0  0
    0.7145   -0.2063    0.0000 C   0  0  0  0  0  0  0  2  0  0  0  0
    0.0000   -0.6188    0.0000 C   0  0  0  0  0  0  0  2  0  0  0  0
    0.0000   -1.4437    0.0000 N   0  0  0  0  0  0  0  2  0  0  0  0
    0.7145   -1.8562    0.0000 O   0  0  0  0  0  0  0  2  0  0  0  0
   -0.7145   -1.8562    0.0000 O   0  0  0  0  0  0  0  2  0  0  0  0
   -0.7145   -0.2063    0.0000 C   0  0  0  0  0  0  0  2  0  0  0  0
   -0.7145    0.6187    0.0000 C   0  0  0  0  0  0  0  2  0  0  0  0
   -1.4289    1.0312    0.0000 N   0  0  0  0  0  0  0  2  0  0  0  0
   -1.4289    1.8562    0.0000 O   0  0  0  0  0  0  0  2  0  0  0  0
   -2.1434    0.6187    0.0000 O   0  0  0  0  0  0  0  2  0  0  0  0
    0.0000    1.0312    0.0000 C   0  0  0  0  0  0  0  2  0  0  0  0
  1  2  2  0        0
  2  3  1  0        0
  2  4  1  0        0
  4  5  4  0        0
  5  6  4  0        0
  6  7  1  0        0
  7  8  2  0        0
  7  9  2  0        0
  6 10  4  0        0
 10 11  4  0        0
 11 12  1  0        0
 12 13  2  0        0
 12 14  2  0        0
 11 15  4  0        0
  4 15  4  0        0
M  END
$$$$

CDXL12

 15 15  0  0  0  0  0  0  0  0999 V2000
   -1.4289    1.8562    0.0000 O   0  0  0  0  0  0  0  2  0  0  0  0
   -1.4289    1.0312    0.0000 N   0  0  0  0  0  0  0  2  0  0  0  0
   -2.1434    0.6187    0.0000 O   0  0  0  0  0  0  0  2  0  0  0  0
   -0.7145    0.6187    0.0000 C   0  0  0  0  0  0  0  2  0  0  0  0
   -0.7145   -0.2063    0.0000 C   0  0  0  0  0  0  0  2  0  0  0  0
    0.0000   -0.6188    0.0000 C   0  0  0  0  0  0  0  2  0  0  0  0
    0.0000   -1.4437    0.0000 N   0  0  0  0  0  0  0  2  0  0  0  0
   -0.7145   -1.8562    0.0000 O   0  0  0  0  0  0  0  2  0  0  0  0
    0.7145   -1.8562    0.0000 O   0  0  0  0  0  0  0  2  0  0  0  0
    0.7145   -0.2063    0.0000 C   0  0  0  0  0  0  0  2  0  0  0  0
    0.7145    0.6187    0.0000 C   0  0  0  0  0  0  0  2  0  0  0  0
    1.4289    1.0312    0.0000 N   0  0  0  0  0  0  0  2  0  0  0  0
    1.4289    1.8562    0.0000 O   0  0  0  0  0  0  0  2  0  0  0  0
    2.1434    0.6187    0.0000 O   0  0  0  0  0  0  0  2  0  0  0  0
    0.0000    1.0312    0.0000 C   0  0  0  0  0  0  0  2  0  0  0  0
  1  2  2  0        0
  2  3  2  0        0
  2  4  1  0        0
  4  5  4  0        0
  5  6  4  0        0
  6  7  1  0        0
  7  8  2  0        0
  7  9  2  0        0
  6 10  4  0        0
 10 11  4  0        0
 11 12  1  0        0
 12 13  2  0        0
 12 14  2  0        0
 11 15  4  0        0
  4 15  4  0        0
M  END
$$$$

CDXL12

 11 11  0  0  0  0  0  0  0  0999 V2000
    1.7862    0.4125    0.0000 O   0  0  0  0  0  0  0  2  0  0  0  0
    1.0717    0.0000    0.0000 C   0  0  0  0  0  0  0  2  0  0  0  0
    1.0717   -0.8250    0.0000 C   0  0  0  0  0  0  0  2  0  0  0  0
    0.3572   -1.2375    0.0000 C   0  0  0  0  0  0  0  2  0  0  0  0
   -0.3572   -0.8250    0.0000 C   0  0  0  0  0  0  0  2  0  0  0  0
   -0.3572   -0.0000    0.0000 C   0  0  0  0  0  0  0  2  0  0  0  0
   -1.0717    0.4125    0.0000 C   0  0  0  0  0  0  0  2  0  0  0  0
   -1.0717    1.2375    0.0000 C   0  0  0  0  0  0  0  2  0  0  0  0
   -1.7862   -0.0000    0.0000 C   0  0  0  0  0  0  0  2  0  0  0  0
    0.3572    0.4125    0.0000 C   0  0  0  0  0  0  0  2  0  0  0  0
    1.7862   -1.2375    0.0000 C   0  0  0  0  0  0  0  2  0  0  0  0
  1  2  2  0        0
  2  3  1  0        0
  3  4  2  0        0
  4  5  1  0        0
  5  6  1  0        0
  6  7  1  0        0
  7  8  2  0        0
  7  9  1  0        0
  6 10  1  0        0
  2 10  1  0        0
  3 11  1  0        0
M  END
$$$$

CDXL12

 11 11  0  0  0  0  0  0  0  0999 V2000
   -1.0717    1.2375    0.0000 O   0  0  0  0  0  0  0  2  0  0  0  0
   -1.0717    0.4125    0.0000 N   0  0  0  0  0  0  0  2  0  0  0  0
   -1.7862   -0.0000    0.0000 O   0  0  0  0  0  0  0  2  0  0  0  0
   -0.3572   -0.0000    0.0000 C   0  0  0  0  0  0  0  2  0  0  0  0
   -0.3572   -0.8250    0.0000 C   0  0  0  0  0  0  0  2  0  0  0  0
    0.3572   -1.2375    0.0000 C   0  0  0  0  0  0  0  2  0  0  0  0
    1.0717   -0.8250    0.0000 C   0  0  0  0  0  0  0  2  0  0  0  0
    1.0717    0.0000    0.0000 C   0  0  0  0  0  0  0  2  0  0  0  0
    1.7862    0.4125    0.0000 Cl  0  0  0  0  0  0  0  2  0  0  0  0
    0.3572    0.4125    0.0000 C   0  0  0  0  0  0  0  2  0  0  0  0
    1.7862   -1.2375    0.0000 Cl  0  0  0  0  0  0  0  2  0  0  0  0
  1  2  2  0        0
  2  3  2  0        0
  2  4  1  0        0
  4  5  4  0        0
  5  6  4  0        0
  6  7  4  0        0
  7  8  4  0        0
  8  9  1  0        0
  8 10  4  0        0
  4 10  4  0        0
  7 11  1  0        0
M  END
$$$$

CDXL12

 11 11  0  0  0  0  0  0  0  0999 V2000
   -2.1434   -0.0000    0.0000 O   0  0  0  0  0  0  0  2  0  0  0  0
   -1.4289    0.4125    0.0000 C   0  0  0  0  0  0  0  2  0  0  0  0
   -0.7145   -0.0000    0.0000 C   0  0  0  0  0  0  0  2  0  0  0  0
   -0.7145   -0.8250    0.0000 C   0  0  0  0  0  0  0  2  0  0  0  0
    0.0000   -1.2375    0.0000 C   0  0  0  0  0  0  0  2  0  0  0  0
    0.7145   -0.8250    0.0000 C   0  0  0  0  0  0  0  2  0  0  0  0
    0.7145   -0.0000    0.0000 C   0  0  0  0  0  0  0  2  0  0  0  0
    1.4289    0.4125    0.0000 N   0  0  0  0  0  0  0  2  0  0  0  0
    1.4289    1.2375    0.0000 O   0  0  0  0  0  0  0  2  0  0  0  0
    2.1434   -0.0000    0.0000 O   0  0  0  0  0  0  0  2  0  0  0  0
    0.0000    0.4125    0.0000 C   0  0  0  0  0  0  0  2  0  0  0  0
  1  2  2  0        0
  2  3  1  0        0
  3  4  4  0        0
  4  5  4  0        0
  5  6  4  0        0
  6  7  4  0        0
  7  8  1  0        0
  8  9  2  0        0
  8 10  2  0        0
  7 11  4  0        0
  3 11  4  0        0
M  END
$$$$

CDXL12

 10  9  0  0  0  0  0  0  0  0999 V2000
    2.1434   -0.8250    0.0000 C   0  0  0  0  0  0  0  2  0  0  0  0
    1.4289   -0.4125    0.0000 C   0  0  0  0  0  0  0  2  0  0  0  0
    0.7145   -0.8250    0.0000 C   0  0  0  0  0  0  0  2  0  0  0  0
    0.0000   -0.4125    0.0000 C   0  0  0  0  0  0  0  2  0  0  0  0
   -0.7145   -0.8250    0.0000 C   0  0  0  0  0  0  0  2  0  0  0  0
   -1.4289   -0.4125    0.0000 C   0  0  0  0  0  0  0  2  0  0  0  0
   -2.1434   -0.8250    0.0000 C   0  0  0  0  0  0  0  2  0  0  0  0
    0.0000    0.4125    0.0000 C   0  0  0  0  0  0  0  2  0  0  0  0
    0.7145    0.8250    0.0000 O   0  0  0  0  0  0  0  2  0  0  0  0
   -0.7145    0.8250    0.0000 O   0  0  0  0  0  0  0  2  0  0  0  0
  1  2  1  0        0
  2  3  1  0        0
  3  4  1  0        0
  4  5  1  0        0
  5  6  1  0        0
  6  7  1  0        0
  4  8  1  0        0
  8  9  1  0        0
  8 10  2  0        0
M  END
$$$$

CDXL12

 11 11  0  0  0  0  0  0  0  0999 V2000
   -2.1434    1.2375    0.0000 O   0  0  0  0  0  0  0  2  0  0  0  0
   -1.4289    0.8250    0.0000 C   0  0  0  0  0  0  0  2  0  0  0  0
   -0.7145    1.2375    0.0000 C   0  0  0  0  0  0  0  2  0  0  0  0
    0.0000    0.8250    0.0000 C   0  0  0  0  0  0  0  2  0  0  0  0
    0.0000   -0.0000    0.0000 C   0  0  0  0  0  0  0  2  0  0  0  0
   -0.7145   -0.4125    0.0000 C   0  0  0  0  0  0  0  2  0  0  0  0
   -1.4289    0.0000    0.0000 C   0  0  0  0  0  0  0  2  0  0  0  0
    0.7145   -0.4125    0.0000 C   0  0  0  0  0  0  0  2  0  0  0  0
    1.4289    0.0000    0.0000 C   0  0  0  0  0  0  0  2  0  0  0  0
    2.1434   -0.4125    0.0000 C   0  0  0  0  0  0  0  2  0  0  0  0
    0.7145   -1.2375    0.0000 C   0  0  0  0  0  0  0  2  0  0  0  0
  1  2  1  0        0
  2  3  4  0        0
  3  4  4  0        0
  4  5  4  0        0
  5  6  4  0        0
  6  7  4  0        0
  2  7  4  0        0
  5  8  1  0        0
  8  9  1  0        0
  9 10  1  0        0
  8 11  1  0        0
M  END
$$$$

CDXL12

 11 11  0  0  0  0  0  0  0  0999 V2000
    0.7145    1.2375    0.0000 O   0  0  0  0  0  0  0  2  0  0  0  0
    0.7145    0.4125    0.0000 C   0  0  0  0  0  0  0  2  0  0  0  0
    1.4289    0.0000    0.0000 O   0  0  0  0  0  0  0  2  0  0  0  0
    2.1434    0.4125    0.0000 C   0  0  0  0  0  0  0  2  0  0  0  0
    0.0000    0.0000    0.0000 C   0  0  0  0  0  0  0  2  0  0  0  0
   -0.7145    0.4125    0.0000 C   0  0  0  0  0  0  0  2  0  0  0  0
   -1.4289    0.0000    0.0000 C   0  0  0  0  0  0  0  2  0  0  0  0
   -1.4289   -0.8250    0.0000 C   0  0  0  0  0  0  0  2  0  0  0  0
   -2.1434   -1.2375    0.0000 O   0  0  0  0  0  0  0  2  0  0  0  0
   -0.7145   -1.2375    0.0000 C   0  0  0  0  0  0  0  2  0  0  0  0
    0.0000   -0.8250    0.0000 C   0  0  0  0  0  0  0  2  0  0  0  0
  1  2  2  0        0
  2  3  1  0        0
  3  4  1  0        0
  2  5  1  0        0
  5  6  4  0        0
  6  7  4  0        0
  7  8  4  0        0
  8  9  1  0        0
  8 10  4  0        0
 10 11  4  0        0
  5 11  4  0        0
M  END
$$$$

CDXL12

 10 10  0  0  0  0  0  0  0  0999 V2000
   -1.0717    0.8250    0.0000 C   0  0  0  0  0  0  0  2  0  0  0  0
   -0.3572    1.2375    0.0000 C   0  0  0  0  0  0  0  2  0  0  0  0
    0.3572    0.8250    0.0000 C   0  0  0  0  0  0  0  2  0  0  0  0
    0.3572   -0.0000    0.0000 C   0  0  0  0  0  0  0  2  0  0  0  0
   -0.3572   -0.4125    0.0000 C   0  0  0  0  0  0  0  2  0  0  0  0
   -1.0717    0.0000    0.0000 C   0  0  0  0  0  0  0  2  0  0  0  0
    1.0717   -0.4125    0.0000 C   0  0  0  0  0  0  0  2  0  0  0  0
    1.0717   -1.2375    0.0000 C   0  0  0  0  0  0  0  2  0  0  0  0
    1.7862    0.0000    0.0000 C   0  0  0  0  0  0  0  2  0  0  0  0
   -1.7862    1.2375    0.0000 C   0  0  0  0  0  0  0  2  0  0  0  0
  1  2  1  0        0
  2  3  1  0        0
  3  4  1  0        0
  4  5  1  0        0
  5  6  1  0        0
  1  6  1  0        0
  4  7  1  0        0
  7  8  1  0        0
  7  9  1  0        0
  1 10  1  0        0
M  END
$$$$

CDXL12

 10 10  0  0  0  0  0  0  0  0999 V2000
    0.3572   -0.0000    0.0000 C   0  0  0  0  0  0  0  2  0  0  0  0
   -0.3572   -0.4125    0.0000 C   0  0  0  0  0  0  0  2  0  0  0  0
   -1.0717    0.0000    0.0000 C   0  0  0  0  0  0  0  2  0  0  0  0
   -1.0717    0.8250    0.0000 C   0  0  0  0  0  0  0  2  0  0  0  0
   -0.3572    1.2375    0.0000 C   0  0  0  0  0  0  0  2  0  0  0  0
    0.3572    0.8250    0.0000 C   0  0  0  0  0  0  0  2  0  0  0  0
   -1.7862    1.2375    0.0000 C   0  0  0  0  0  0  0  2  0  0  0  0
    1.0717   -0.4125    0.0000 C   0  0  0  0  0  0  0  2  0  0  0  0
    1.0717   -1.2375    0.0000 C   0  0  0  0  0  0  0  2  0  0  0  0
    1.7862    0.0000    0.0000 C   0  0  0  0  0  0  0  2  0  0  0  0
  1  2  4  0        0
  2  3  4  0        0
  3  4  4  0        0
  4  5  4  0        0
  5  6  4  0        0
  1  6  4  0        0
  4  7  1  0        0
  1  8  1  0        0
  8  9  1  0        0
  8 10  1  0        0
M  END
$$$$

CDXL12

 10 10  0  0  0  0  0  0  0  0999 V2000
    1.0717    1.2375    0.0000 O   0  0  0  0  0  0  0  2  0  0  0  0
    1.0717    0.4125    0.0000 C   0  0  0  0  0  0  0  2  0  0  0  0
    0.3572   -0.0000    0.0000 C   0  0  0  0  0  0  0  2  0  0  0  0
   -0.3572    0.4125    0.0000 C   0  0  0  0  0  0  0  2  0  0  0  0
   -1.0717   -0.0000    0.0000 C   0  0  0  0  0  0  0  2  0  0  0  0
   -1.0717   -0.8250    0.0000 C   0  0  0  0  0  0  0  2  0  0  0  0
   -1.7862   -1.2375    0.0000 O   0  0  0  0  0  0  0  2  0  0  0  0
   -0.3572   -1.2375    0.0000 C   0  0  0  0  0  0  0  2  0  0  0  0
    0.3572   -0.8250    0.0000 C   0  0  0  0  0  0  0  2  0  0  0  0
    1.7862   -0.0000    0.0000 C   0  0  0  0  0  0  0  2  0  0  0  0
  1  2  2  0        0
  2  3  1  0        0
  3  4  4  0        0
  4  5  4  0        0
  5  6  4  0        0
  6  7  1  0        0
  6  8  4  0        0
  8  9  4  0        0
  3  9  4  0        0
  2 10  1  0        0
M  END
$$$$

CDXL12

 10 10  0  0  0  0  0  0  0  0999 V2000
    1.0717    1.2375    0.0000 O   0  0  0  0  0  0  0  2  0  0  0  0
    1.0717    0.4125    0.0000 C   0  0  0  0  0  0  0  2  0  0  0  0
    1.7862   -0.0000    0.0000 O   0  0  0  0  0  0  0  2  0  0  0  0
    0.3572   -0.0000    0.0000 C   0  0  0  0  0  0  0  2  0  0  0  0
   -0.3572    0.4125    0.0000 C   0  0  0  0  0  0  0  2  0  0  0  0
   -1.0717   -0.0000    0.0000 C   0  0  0  0  0  0  0  2  0  0  0  0
   -1.0717   -0.8250    0.0000 C   0  0  0  0  0  0  0  2  0  0  0  0
   -0.3572   -1.2375    0.0000 C   0  0  0  0  0  0  0  2  0  0  0  0
    0.3572   -0.8250    0.0000 C   0  0  0  0  0  0  0  2  0  0  0  0
   -1.7862   -1.2375    0.0000 C   0  0  0  0  0  0  0  2  0  0  0  0
  1  2  2  0        0
  2  3  1  0        0
  2  4  1  0        0
  4  5  4  0        0
  5  6  4  0        0
  6  7  4  0        0
  7  8  4  0        0
  8  9  4  0        0
  4  9  4  0        0
  7 10  1  0        0
M  END
$$$$

CDXL12

 10 10  0  0  0  0  0  0  0  0999 V2000
    1.0717    1.2375    0.0000 O   0  0  0  0  0  0  0  2  0  0  0  0
    1.0717    0.4125    0.0000 C   0  0  0  0  0  0  0  2  0  0  0  0
    1.7862   -0.0000    0.0000 O   0  0  0  0  0  0  0  2  0  0  0  0
    0.3572   -0.0000    0.0000 C   0  0  0  0  0  0  0  2  0  0  0  0
   -0.3572    0.4125    0.0000 C   0  0  0  0  0  0  0  2  0  0  0  0
   -1.0717   -0.0000    0.0000 C   0  0  0  0  0  0  0  2  0  0  0  0
   -1.0717   -0.8250    0.0000 C   0  0  0  0  0  0  0  2  0  0  0  0
   -1.7862   -1.2375    0.0000 O   0  0  0  0  0  0  0  2  0  0  0  0
   -0.3572   -1.2375    0.0000 C   0  0  0  0  0  0  0  2  0  0  0  0
    0.3572   -0.8250    0.0000 C   0  0  0  0  0  0  0  2  0  0  0  0
  1  2  2  0        0
  2  3  1  0        0
  2  4  1  0        0
  4  5  4  0        0
  5  6  4  0        0
  6  7  4  0        0
  7  8  1  0        0
  7  9  4  0        0
  9 10  4  0        0
  4 10  4  0        0
M  END
$$$$

CDXL12

 10 10  0  0  0  0  0  0  0  0999 V2000
   -1.0717    1.2375    0.0000 O   0  0  0  0  0  0  0  2  0  0  0  0
   -1.0717    0.4125    0.0000 N   0  0  0  0  0  0  0  2  0  0  0  0
   -1.7862    0.0000    0.0000 O   0  0  0  0  0  0  0  2  0  0  0  0
   -0.3572    0.0000    0.0000 C   0  0  0  0  0  0  0  2  0  0  0  0
    0.3572    0.4125    0.0000 C   0  0  0  0  0  0  0  2  0  0  0  0
    1.0717    0.0000    0.0000 C   0  0  0  0  0  0  0  2  0  0  0  0
    1.0717   -0.8250    0.0000 C   0  0  0  0  0  0  0  2  0  0  0  0
    0.3572   -1.2375    0.0000 C   0  0  0  0  0  0  0  2  0  0  0  0
   -0.3572   -0.8250    0.0000 C   0  0  0  0  0  0  0  2  0  0  0  0
    1.7862   -1.2375    0.0000 Cl  0  0  0  0  0  0  0  2  0  0  0  0
  1  2  2  0        0
  2  3  2  0        0
  2  4  1  0        0
  4  5  4  0        0
  5  6  4  0        0
  6  7  4  0        0
  7  8  4  0        0
  8  9  4  0        0
  4  9  4  0        0
  7 10  1  0        0
M  END
$$$$

CDXL12

 10 10  0  0  0  0  0  0  0  0999 V2000
   -1.0717    1.2375    0.0000 O   0  0  0  0  0  0  0  2  0  0  0  0
   -1.0717    0.4125    0.0000 N   0  0  0  0  0  0  0  2  0  0  0  0
   -1.7862    0.0000    0.0000 O   0  0  0  0  0  0  0  2  0  0  0  0
   -0.3572    0.0000    0.0000 C   0  0  0  0  0  0  0  2  0  0  0  0
    0.3572    0.4125    0.0000 C   0  0  0  0  0  0  0  2  0  0  0  0
    1.0717    0.0000    0.0000 C   0  0  0  0  0  0  0  2  0  0  0  0
    1.0717   -0.8250    0.0000 C   0  0  0  0  0  0  0  2  0  0  0  0
    1.7862   -1.2375    0.0000 O   0  0  0  0  0  0  0  2  0  0  0  0
    0.3572   -1.2375    0.0000 C   0  0  0  0  0  0  0  2  0  0  0  0
   -0.3572   -0.8250    0.0000 C   0  0  0  0  0  0  0  2  0  0  0  0
  1  2  2  0        0
  2  3  2  0        0
  2  4  1  0        0
  4  5  4  0        0
  5  6  4  0        0
  6  7  4  0        0
  7  8  1  0        0
  7  9  4  0        0
  9 10  4  0        0
  4 10  4  0        0
M  END
$$$$

CDXL12

 12 12  0  0  0  0  0  0  0  0999 V2000
    1.4289   -1.6500    0.0000 O   0  0  0  0  0  0  0  2  0  0  0  0
    1.4289   -0.8250    0.0000 N   0  0  0  0  0  0  0  2  0  0  0  0
    2.1434   -0.4125    0.0000 O   0  0  0  0  0  0  0  2  0  0  0  0
    0.7145   -0.4125    0.0000 C   0  0  0  0  0  0  0  2  0  0  0  0
    0.0000   -0.8250    0.0000 C   0  0  0  0  0  0  0  2  0  0  0  0
   -0.7145   -0.4125    0.0000 C   0  0  0  0  0  0  0  2  0  0  0  0
   -0.7145    0.4125    0.0000 C   0  0  0  0  0  0  0  2  0  0  0  0
   -1.4289    0.8250    0.0000 N   0  0  0  0  0  0  0  2  0  0  0  0
   -1.4289    1.6500    0.0000 O   0  0  0  0  0  0  0  2  0  0  0  0
   -2.1434    0.4125    0.0000 O   0  0  0  0  0  0  0  2  0  0  0  0
    0.0000    0.8250    0.0000 C   0  0  0  0  0  0  0  2  0  0  0  0
    0.7145    0.4125    0.0000 C   0  0  0  0  0  0  0  2  0  0  0  0
  1  2  2  0        0
  2  3  2  0        0
  2  4  1  0        0
  4  5  4  0        0
  5  6  4  0        0
  6  7  4  0        0
  7  8  1  0        0
  8  9  2  0        0
  8 10  2  0        0
  7 11  4  0        0
 11 12  4  0        0
  4 12  4  0        0
M  END
$$$$

CDXL12

  8  8  0  0  0  0  0  0  0  0999 V2000
   -1.4289   -0.4125    0.0000 C   0  0  0  0  0  0  0  2  0  0  0  0
   -1.4289    0.4125    0.0000 C   0  0  0  0  0  0  0  2  0  0  0  0
   -0.7145    0.8250    0.0000 C   0  0  0  0  0  0  0  2  0  0  0  0
    0.0000    0.4125    0.0000 C   0  0  0  0  0  0  0  2  0  0  0  0
    0.0000   -0.4125    0.0000 C   0  0  0  0  0  0  0  2  0  0  0  0
    0.7145   -0.8250    0.0000 C   0  0  0  0  0  0  0  2  0  0  0  0
    1.4289   -0.4125    0.0000 C   0  0  0  0  0  0  0  2  0  0  0  0
   -0.7145   -0.8250    0.0000 C   0  0  0  0  0  0  0  2  0  0  0  0
  1  2  2  0        0
  2  3  1  0        0
  3  4  1  0        0
  4  5  1  0        0
  5  6  1  0        0
  6  7  2  0        0
  5  8  1  0        0
  1  8  1  0        0
M  END
$$$$

CDXL12

  8  8  0  0  0  0  0  0  0  0999 V2000
    0.0000   -0.4125    0.0000 C   0  0  0  0  0  0  0  2  0  0  0  0
   -0.7145   -0.8250    0.0000 C   0  0  0  0  0  0  0  2  0  0  0  0
   -1.4289   -0.4125    0.0000 C   0  0  0  0  0  0  0  2  0  0  0  0
   -1.4289    0.4125    0.0000 C   0  0  0  0  0  0  0  2  0  0  0  0
   -0.7145    0.8250    0.0000 C   0  0  0  0  0  0  0  2  0  0  0  0
    0.0000    0.4125    0.0000 C   0  0  0  0  0  0  0  2  0  0  0  0
    0.7145   -0.8250    0.0000 C   0  0  0  0  0  0  0  2  0  0  0  0
    1.4289   -0.4125    0.0000 C   0  0  0  0  0  0  0  2  0  0  0  0
  1  2  4  0        0
  2  3  4  0        0
  3  4  4  0        0
  4  5  4  0        0
  5  6  4  0        0
  1  6  4  0        0
  1  7  1  0        0
  7  8  1  0        0
M  END
$$$$

CDXL12

  8  8  0  0  0  0  0  0  0  0999 V2000
    0.0000   -0.4125    0.0000 C   0  0  0  0  0  0  0  2  0  0  0  0
   -0.7145   -0.8250    0.0000 C   0  0  0  0  0  0  0  2  0  0  0  0
   -1.4289   -0.4125    0.0000 C   0  0  0  0  0  0  0  2  0  0  0  0
   -1.4289    0.4125    0.0000 C   0  0  0  0  0  0  0  2  0  0  0  0
   -0.7145    0.8250    0.0000 C   0  0  0  0  0  0  0  2  0  0  0  0
    0.0000    0.4125    0.0000 C   0  0  0  0  0  0  0  2  0  0  0  0
    0.7145   -0.8250    0.0000 C   0  0  0  0  0  0  0  2  0  0  0  0
    1.4289   -0.4125    0.0000 C   0  0  0  0  0  0  0  2  0  0  0  0
  1  2  4  0        0
  2  3  4  0        0
  3  4  4  0        0
  4  5  4  0        0
  5  6  4  0        0
  1  6  4  0        0
  1  7  1  0        0
  7  8  2  0        0
M  END
$$$$

CDXL12

  8  8  0  0  0  0  0  0  0  0999 V2000
   -1.4289    0.4125    0.0000 N   0  0  0  0  0  0  0  2  0  0  0  0
   -0.7145    0.8250    0.0000 C   0  0  0  0  0  0  0  2  0  0  0  0
    0.0000    0.4125    0.0000 C   0  0  0  0  0  0  0  2  0  0  0  0
    0.0000   -0.4125    0.0000 C   0  0  0  0  0  0  0  2  0  0  0  0
   -0.7145   -0.8250    0.0000 C   0  0  0  0  0  0  0  2  0  0  0  0
   -1.4289   -0.4125    0.0000 C   0  0  0  0  0  0  0  2  0  0  0  0
    0.7145   -0.8250    0.0000 C   0  0  0  0  0  0  0  2  0  0  0  0
    1.4289   -0.4125    0.0000 C   0  0  0  0  0  0  0  2  0  0  0  0
  1  2  4  0        0
  2  3  4  0        0
  3  4  4  0        0
  4  5  4  0        0
  5  6  4  0        0
  1  6  4  0        0
  4  7  1  0        0
  7  8  2  0        0
M  END
$$$$

CDXL12

  8  8  0  0  0  0  0  0  0  0999 V2000
    0.0000   -0.4125    0.0000 C   0  0  0  0  0  0  0  2  0  0  0  0
   -0.7145   -0.8250    0.0000 C   0  0  0  0  0  0  0  2  0  0  0  0
   -1.4289   -0.4125    0.0000 C   0  0  0  0  0  0  0  2  0  0  0  0
   -1.4289    0.4125    0.0000 C   0  0  0  0  0  0  0  2  0  0  0  0
   -0.7145    0.8250    0.0000 C   0  0  0  0  0  0  0  2  0  0  0  0
    0.0000    0.4125    0.0000 C   0  0  0  0  0  0  0  2  0  0  0  0
    0.7145   -0.8250    0.0000 C   0  0  0  0  0  0  0  2  0  0  0  0
    1.4289   -0.4125    0.0000 Cl  0  0  0  0  0  0  0  2  0  0  0  0
  1  2  4  0        0
  2  3  4  0        0
  3  4  4  0        0
  4  5  4  0        0
  5  6  4  0        0
  1  6  4  0        0
  1  7  1  0        0
  7  8  1  0        0
M  END
$$$$

CDXL12

  8  8  0  0  0  0  0  0  0  0999 V2000
    1.4289   -0.4125    0.0000 N   0  0  0  0  0  0  0  2  0  0  0  0
    0.7145   -0.8250    0.0000 C   0  0  0  0  0  0  0  2  0  0  0  0
    0.0000   -0.4125    0.0000 C   0  0  0  0  0  0  0  2  0  0  0  0
   -0.7145   -0.8250    0.0000 C   0  0  0  0  0  0  0  2  0  0  0  0
   -1.4289   -0.4125    0.0000 C   0  0  0  0  0  0  0  2  0  0  0  0
   -1.4289    0.4125    0.0000 C   0  0  0  0  0  0  0  2  0  0  0  0
   -0.7145    0.8250    0.0000 C   0  0  0  0  0  0  0  2  0  0  0  0
    0.0000    0.4125    0.0000 C   0  0  0  0  0  0  0  2  0  0  0  0
  1  2  1  0        0
  2  3  1  0        0
  3  4  4  0        0
  4  5  4  0        0
  5  6  4  0        0
  6  7  4  0        0
  7  8  4  0        0
  3  8  4  0        0
M  END
$$$$

CDXL12

  8  8  0  0  0  0  0  0  0  0999 V2000
    1.4289   -0.4125    0.0000 O   0  0  0  0  0  0  0  2  0  0  0  0
    0.7145   -0.8250    0.0000 C   0  0  0  0  0  0  0  2  0  0  0  0
    0.0000   -0.4125    0.0000 C   0  0  0  0  0  0  0  2  0  0  0  0
   -0.7145   -0.8250    0.0000 C   0  0  0  0  0  0  0  2  0  0  0  0
   -1.4289   -0.4125    0.0000 C   0  0  0  0  0  0  0  2  0  0  0  0
   -1.4289    0.4125    0.0000 C   0  0  0  0  0  0  0  2  0  0  0  0
   -0.7145    0.8250    0.0000 C   0  0  0  0  0  0  0  2  0  0  0  0
    0.0000    0.4125    0.0000 C   0  0  0  0  0  0  0  2  0  0  0  0
  1  2  1  0        0
  2  3  1  0        0
  3  4  4  0        0
  4  5  4  0        0
  5  6  4  0        0
  6  7  4  0        0
  7  8  4  0        0
  3  8  4  0        0
M  END
$$$$

CDXL12

  8  8  0  0  0  0  0  0  0  0999 V2000
    1.4289   -0.4125    0.0000 O   0  0  0  0  0  0  0  2  0  0  0  0
    0.7145   -0.8250    0.0000 C   0  0  0  0  0  0  0  2  0  0  0  0
    0.0000   -0.4125    0.0000 C   0  0  0  0  0  0  0  2  0  0  0  0
   -0.7145   -0.8250    0.0000 C   0  0  0  0  0  0  0  2  0  0  0  0
   -1.4289   -0.4125    0.0000 C   0  0  0  0  0  0  0  2  0  0  0  0
   -1.4289    0.4125    0.0000 C   0  0  0  0  0  0  0  2  0  0  0  0
   -0.7145    0.8250    0.0000 C   0  0  0  0  0  0  0  2  0  0  0  0
    0.0000    0.4125    0.0000 C   0  0  0  0  0  0  0  2  0  0  0  0
  1  2  2  0        0
  2  3  1  0        0
  3  4  4  0        0
  4  5  4  0        0
  5  6  4  0        0
  6  7  4  0        0
  7  8  4  0        0
  3  8  4  0        0
M  END
$$$$

CDXL12

  8  8  0  0  0  0  0  0  0  0999 V2000
    1.4289   -0.4125    0.0000 O   0  0  0  0  0  0  0  2  0  0  0  0
    0.7145   -0.8250    0.0000 Hg  0  0  0  0  0  0  0  2  0  0  0  0
    0.0000   -0.4125    0.0000 C   0  0  0  0  0  0  0  2  0  0  0  0
   -0.7145   -0.8250    0.0000 C   0  0  0  0  0  0  0  2  0  0  0  0
   -1.4289   -0.4125    0.0000 C   0  0  0  0  0  0  0  2  0  0  0  0
   -1.4289    0.4125    0.0000 C   0  0  0  0  0  0  0  2  0  0  0  0
   -0.7145    0.8250    0.0000 C   0  0  0  0  0  0  0  2  0  0  0  0
    0.0000    0.4125    0.0000 C   0  0  0  0  0  0  0  2  0  0  0  0
  1  2  1  0        0
  2  3  1  0        0
  3  4  4  0        0
  4  5  4  0        0
  5  6  4  0        0
  6  7  4  0        0
  7  8  4  0        0
  3  8  4  0        0
M  END
$$$$

CDXL12

  8  8  0  0  0  0  0  0  0  0999 V2000
    0.7145   -0.8250    0.0000 N   0  0  0  0  0  0  0  2  0  0  0  0
    0.0000   -0.4125    0.0000 C   0  0  0  0  0  0  0  2  0  0  0  0
   -0.7145   -0.8250    0.0000 C   0  0  0  0  0  0  0  2  0  0  0  0
   -1.4289   -0.4125    0.0000 C   0  0  0  0  0  0  0  2  0  0  0  0
   -1.4289    0.4125    0.0000 C   0  0  0  0  0  0  0  2  0  0  0  0
   -0.7145    0.8250    0.0000 C   0  0  0  0  0  0  0  2  0  0  0  0
    0.0000    0.4125    0.0000 C   0  0  0  0  0  0  0  2  0  0  0  0
    1.4289   -0.4125    0.0000 C   0  0  0  0  0  0  0  2  0  0  0  0
  1  2  1  0        0
  2  3  4  0        0
  3  4  4  0        0
  4  5  4  0        0
  5  6  4  0        0
  6  7  4  0        0
  2  7  4  0        0
  1  8  1  0        0
M  END
$$$$

CDXL12

  8  8  0  0  0  0  0  0  0  0999 V2000
    0.7145   -0.8250    0.0000 N   0  0  0  0  0  0  0  2  0  0  0  0
    1.4289   -0.4125    0.0000 N   0  0  0  0  0  0  0  2  0  0  0  0
    0.0000   -0.4125    0.0000 C   0  0  0  0  0  0  0  2  0  0  0  0
   -0.7145   -0.8250    0.0000 C   0  0  0  0  0  0  0  2  0  0  0  0
   -1.4289   -0.4125    0.0000 C   0  0  0  0  0  0  0  2  0  0  0  0
   -1.4289    0.4125    0.0000 C   0  0  0  0  0  0  0  2  0  0  0  0
   -0.7145    0.8250    0.0000 C   0  0  0  0  0  0  0  2  0  0  0  0
    0.0000    0.4125    0.0000 C   0  0  0  0  0  0  0  2  0  0  0  0
  1  2  1  0        0
  1  3  1  0        0
  3  4  4  0        0
  4  5  4  0        0
  5  6  4  0        0
  6  7  4  0        0
  7  8  4  0        0
  3  8  4  0        0
M  END
$$$$

CDXL12

  8  8  0  0  0  0  0  0  0  0999 V2000
    0.7145   -0.8250    0.0000 O   0  0  0  0  0  0  0  2  0  0  0  0
    0.0000   -0.4125    0.0000 C   0  0  0  0  0  0  0  2  0  0  0  0
   -0.7145   -0.8250    0.0000 C   0  0  0  0  0  0  0  2  0  0  0  0
   -1.4289   -0.4125    0.0000 C   0  0  0  0  0  0  0  2  0  0  0  0
   -1.4289    0.4125    0.0000 C   0  0  0  0  0  0  0  2  0  0  0  0
   -0.7145    0.8250    0.0000 C   0  0  0  0  0  0  0  2  0  0  0  0
    0.0000    0.4125    0.0000 C   0  0  0  0  0  0  0  2  0  0  0  0
    1.4289   -0.4125    0.0000 C   0  0  0  0  0  0  0  2  0  0  0  0
  1  2  1  0        0
  2  3  4  0        0
  3  4  4  0        0
  4  5  4  0        0
  5  6  4  0        0
  6  7  4  0        0
  2  7  4  0        0
  1  8  1  0        0
M  END
$$$$

CDXL12

  8  8  0  0  0  0  0  0  0  0999 V2000
    0.7145   -0.8250    0.0000 S   0  0  0  0  0  0  0  2  0  0  0  0
    0.0000   -0.4125    0.0000 C   0  0  0  0  0  0  0  2  0  0  0  0
   -0.7145   -0.8250    0.0000 C   0  0  0  0  0  0  0  2  0  0  0  0
   -1.4289   -0.4125    0.0000 C   0  0  0  0  0  0  0  2  0  0  0  0
   -1.4289    0.4125    0.0000 C   0  0  0  0  0  0  0  2  0  0  0  0
   -0.7145    0.8250    0.0000 C   0  0  0  0  0  0  0  2  0  0  0  0
    0.0000    0.4125    0.0000 C   0  0  0  0  0  0  0  2  0  0  0  0
    1.4289   -0.4125    0.0000 C   0  0  0  0  0  0  0  2  0  0  0  0
  1  2  1  0        0
  2  3  4  0        0
  3  4  4  0        0
  4  5  4  0        0
  5  6  4  0        0
  6  7  4  0        0
  2  7  4  0        0
  1  8  1  0        0
M  END
$$$$

CDXL12

  8  8  0  0  0  0  0  0  0  0999 V2000
    0.0000    0.4125    0.0000 N   0  0  0  0  0  0  0  2  0  0  0  0
    0.0000   -0.4125    0.0000 C   0  0  0  0  0  0  0  2  0  0  0  0
   -0.7145   -0.8250    0.0000 C   0  0  0  0  0  0  0  2  0  0  0  0
   -1.4289   -0.4125    0.0000 C   0  0  0  0  0  0  0  2  0  0  0  0
   -1.4289    0.4125    0.0000 C   0  0  0  0  0  0  0  2  0  0  0  0
   -0.7145    0.8250    0.0000 C   0  0  0  0  0  0  0  2  0  0  0  0
    0.7145   -0.8250    0.0000 C   0  0  0  0  0  0  0  2  0  0  0  0
    1.4289   -0.4125    0.0000 C   0  0  0  0  0  0  0  2  0  0  0  0
  1  2  4  0        0
  2  3  4  0        0
  3  4  4  0        0
  4  5  4  0        0
  5  6  4  0        0
  1  6  4  0        0
  2  7  1  0        0
  7  8  2  0        0
M  END
$$$$

CDXL12

  8  8  0  0  0  0  0  0  0  0999 V2000
    0.0000    0.4125    0.0000 N   0  0  0  0  0  0  0  2  0  0  0  0
    0.0000   -0.4125    0.0000 C   0  0  0  0  0  0  0  2  0  0  0  0
    0.7145   -0.8250    0.0000 C   0  0  0  0  0  0  0  2  0  0  0  0
    1.4289   -0.4125    0.0000 C   0  0  0  0  0  0  0  2  0  0  0  0
   -0.7145   -0.8250    0.0000 C   0  0  0  0  0  0  0  2  0  0  0  0
   -1.4289   -0.4125    0.0000 C   0  0  0  0  0  0  0  2  0  0  0  0
   -1.4289    0.4125    0.0000 C   0  0  0  0  0  0  0  2  0  0  0  0
   -0.7145    0.8250    0.0000 C   0  0  0  0  0  0  0  2  0  0  0  0
  1  2  4  0        0
  2  3  1  0        0
  3  4  1  0        0
  2  5  4  0        0
  5  6  4  0        0
  6  7  4  0        0
  7  8  4  0        0
  1  8  4  0        0
M  END
$$$$

CDXL12

  8  8  0  0  0  0  0  0  0  0999 V2000
    1.4289   -0.4125    0.0000 O   0  0  0  0  0  0  0  2  0  0  0  0
    0.7145   -0.8250    0.0000 C   0  0  0  0  0  0  0  2  0  0  0  0
    0.0000   -0.4125    0.0000 C   0  0  0  0  0  0  0  2  0  0  0  0
   -0.7145   -0.8250    0.0000 C   0  0  0  0  0  0  0  2  0  0  0  0
   -1.4289   -0.4125    0.0000 C   0  0  0  0  0  0  0  2  0  0  0  0
   -1.4289    0.4125    0.0000 C   0  0  0  0  0  0  0  2  0  0  0  0
   -0.7145    0.8250    0.0000 C   0  0  0  0  0  0  0  2  0  0  0  0
    0.0000    0.4125    0.0000 O   0  0  0  0  0  0  0  2  0  0  0  0
  1  2  1  0        0
  2  3  1  0        0
  3  4  1  0        0
  4  5  1  0        0
  5  6  1  0        0
  6  7  1  0        0
  7  8  1  0        0
  3  8  1  0        0
M  END
$$$$

CDXL12

  8  8  0  0  0  0  0  0  0  0999 V2000
   -1.4289    0.4125    0.0000 O   0  0  0  0  0  0  0  2  0  0  0  0
   -0.7145    0.8250    0.0000 C   0  0  0  0  0  0  0  2  0  0  0  0
    0.0000    0.4125    0.0000 C   0  0  0  0  0  0  0  2  0  0  0  0
    0.0000   -0.4125    0.0000 N   0  0  0  0  0  0  0  2  0  0  0  0
   -0.7145   -0.8250    0.0000 C   0  0  0  0  0  0  0  2  0  0  0  0
   -1.4289   -0.4125    0.0000 C   0  0  0  0  0  0  0  2  0  0  0  0
    0.7145   -0.8250    0.0000 C   0  0  0  0  0  0  0  2  0  0  0  0
    1.4289   -0.4125    0.0000 C   0  0  0  0  0  0  0  2  0  0  0  0
  1  2  1  0        0
  2  3  1  0        0
  3  4  1  0        0
  4  5  1  0        0
  5  6  1  0        0
  1  6  1  0        0
  4  7  1  0        0
  7  8  1  0        0
M  END
$$$$

CDXL12

  8  8  0  0  0  0  0  0  0  0999 V2000
    1.4289   -0.4125    0.0000 O   0  0  0  0  0  0  0  2  0  0  0  0
    0.7145   -0.8250    0.0000 N   0  0  0  0  0  0  0  2  0  0  0  0
    0.0000   -0.4125    0.0000 N   0  0  0  0  0  0  0  2  0  0  0  0
   -0.7145   -0.8250    0.0000 C   0  0  0  0  0  0  0  2  0  0  0  0
   -1.4289   -0.4125    0.0000 C   0  0  0  0  0  0  0  2  0  0  0  0
   -1.4289    0.4125    0.0000 C   0  0  0  0  0  0  0  2  0  0  0  0
   -0.7145    0.8250    0.0000 C   0  0  0  0  0  0  0  2  0  0  0  0
    0.0000    0.4125    0.0000 C   0  0  0  0  0  0  0  2  0  0  0  0
  1  2  2  0        0
  2  3  1  0        0
  3  4  1  0        0
  4  5  1  0        0
  5  6  1  0        0
  6  7  1  0        0
  7  8  1  0        0
  3  8  1  0        0
M  END
$$$$

CDXL12

  9  9  0  0  0  0  0  0  0  0999 V2000
    1.7862   -0.4125    0.0000 O   0  0  0  0  0  0  0  2  0  0  0  0
    1.0717   -0.8250    0.0000 C   0  0  0  0  0  0  0  2  0  0  0  0
    0.3572   -0.4125    0.0000 C   0  0  0  0  0  0  0  2  0  0  0  0
    0.3572    0.4125    0.0000 C   0  0  0  0  0  0  0  2  0  0  0  0
   -0.3572    0.8250    0.0000 C   0  0  0  0  0  0  0  2  0  0  0  0
   -1.0717    0.4125    0.0000 C   0  0  0  0  0  0  0  2  0  0  0  0
   -1.0717   -0.4125    0.0000 C   0  0  0  0  0  0  0  2  0  0  0  0
   -1.7862   -0.8250    0.0000 O   0  0  0  0  0  0  0  2  0  0  0  0
   -0.3572   -0.8250    0.0000 C   0  0  0  0  0  0  0  2  0  0  0  0
  1  2  2  0        0
  2  3  1  0        0
  3  4  4  0        0
  4  5  4  0        0
  5  6  4  0        0
  6  7  4  0        0
  7  8  1  0        0
  7  9  4  0        0
  3  9  4  0        0
M  END
$$$$

CDXL12

 10 12  0  0  0  0  0  0  0  0999 V2000
    1.0589   -0.6069    0.0000 N   0  0  0  0  0  0  0  2  0  0  0  0
   -0.1965   -0.3417    0.0000 C   0  0  0  0  0  0  0  2  0  0  0  0
   -1.0538    0.6128    0.0000 N   0  0  0  0  0  0  0  2  0  0  0  0
   -0.3597    1.0194    0.0000 C   0  0  0  0  0  0  0  2  0  0  0  0
    0.3444    0.6306    0.0000 N   0  0  0  0  0  0  0  2  0  0  0  0
   -0.3701    0.2181    0.0000 C   0  0  0  0  0  0  0  2  0  0  0  0
   -0.3701   -0.6069    0.0000 N   0  0  0  0  0  0  0  2  0  0  0  0
   -1.0589   -0.1915    0.0000 C   0  0  0  0  0  0  0  2  0  0  0  0
    0.3444   -1.0194    0.0000 C   0  0  0  0  0  0  0  2  0  0  0  0
    1.0589    0.2181    0.0000 C   0  0  0  0  0  0  0  2  0  0  0  0
  1  2  1  0        0
  2  3  1  0        0
  3  4  1  0        0
  4  5  1  0        0
  5  6  1  0        0
  6  7  1  0        0
  7  8  1  0        0
  3  8  1  0        0
  7  9  1  0        0
  1  9  1  0        0
  5 10  1  0        0
  1 10  1  0        0
M  END
$$$$

CDXL12

 16 17  0  0  0  0  0  0  0  0999 V2000
    2.5006    1.2375    0.0000 Cl  0  0  0  0  0  0  0  2  0  0  0  0
    1.7862    0.8250    0.0000 C   0  0  0  0  0  0  0  2  0  0  0  0
    1.7862   -0.0000    0.0000 N   0  0  0  0  0  0  0  2  0  0  0  0
    1.0717   -0.4125    0.0000 C   0  0  0  0  0  0  0  2  0  0  0  0
    1.0717   -1.2375    0.0000 Cl  0  0  0  0  0  0  0  2  0  0  0  0
    0.3572   -0.0000    0.0000 N   0  0  0  0  0  0  0  2  0  0  0  0
    0.3572    0.8250    0.0000 C   0  0  0  0  0  0  0  2  0  0  0  0
   -0.3572    1.2375    0.0000 N   0  0  0  0  0  0  0  2  0  0  0  0
   -1.0717    0.8250    0.0000 C   0  0  0  0  0  0  0  2  0  0  0  0
   -1.7862    1.2375    0.0000 C   0  0  0  0  0  0  0  2  0  0  0  0
   -2.5006    0.8250    0.0000 C   0  0  0  0  0  0  0  2  0  0  0  0
   -2.5006   -0.0000    0.0000 C   0  0  0  0  0  0  0  2  0  0  0  0
   -1.7862   -0.4125    0.0000 C   0  0  0  0  0  0  0  2  0  0  0  0
   -1.0717   -0.0000    0.0000 C   0  0  0  0  0  0  0  2  0  0  0  0
   -0.3572   -0.4125    0.0000 Cl  0  0  0  0  0  0  0  2  0  0  0  0
    1.0717    1.2375    0.0000 N   0  0  0  0  0  0  0  2  0  0  0  0
  1  2  1  0        0
  2  3  4  0        0
  3  4  4  0        0
  4  5  1  0        0
  4  6  4  0        0
  6  7  4  0        0
  7  8  1  0        0
  8  9  1  0        0
  9 10  4  0        0
 10 11  4  0        0
 11 12  4  0        0
 12 13  4  0        0
 13 14  4  0        0
  9 14  4  0        0
 14 15  1  0        0
  7 16  4  0        0
  2 16  4  0        0
M  END
$$$$

CDXL12

 17 18  0  0  0  0  0  0  0  0999 V2000
    2.8579    0.8250    0.0000 N   0  0  0  0  0  0  0  2  0  0  0  0
    2.1434    0.4125    0.0000 C   0  0  0  0  0  0  0  2  0  0  0  0
    2.1434   -0.4125    0.0000 C   0  0  0  0  0  0  0  2  0  0  0  0
    1.4289   -0.8250    0.0000 C   0  0  0  0  0  0  0  2  0  0  0  0
    0.7145   -0.4125    0.0000 C   0  0  0  0  0  0  0  2  0  0  0  0
    0.7145    0.4125    0.0000 C   0  0  0  0  0  0  0  2  0  0  0  0
    1.4289    0.8250    0.0000 C   0  0  0  0  0  0  0  2  0  0  0  0
    0.0000   -0.8250    0.0000 C   0  0  0  0  0  0  0  2  0  0  0  0
   -0.7145   -0.4125    0.0000 C   0  0  0  0  0  0  0  2  0  0  0  0
   -0.7145    0.4125    0.0000 C   0  0  0  0  0  0  0  2  0  0  0  0
   -1.4289    0.8250    0.0000 C   0  0  0  0  0  0  0  2  0  0  0  0
   -2.1434    0.4125    0.0000 C   0  0  0  0  0  0  0  2  0  0  0  0
   -2.8579    0.8250    0.0000 N   0  0  0  0  0  0  0  2  0  0  0  0
   -2.1434   -0.4125    0.0000 C   0  0  0  0  0  0  0  2  0  0  0  0
   -2.8579   -0.8250    0.0000 Cl  0  0  0  0  0  0  0  2  0  0  0  0
   -1.4289   -0.8250    0.0000 C   0  0  0  0  0  0  0  2  0  0  0  0
    2.8579   -0.8250    0.0000 Cl  0  0  0  0  0  0  0  2  0  0  0  0
  1  2  1  0        0
  2  3  4  0        0
  3  4  4  0        0
  4  5  4  0        0
  5  6  4  0        0
  6  7  4  0        0
  2  7  4  0        0
  5  8  1  0        0
  8  9  1  0        0
  9 10  4  0        0
 10 11  4  0        0
 11 12  4  0        0
 12 13  1  0        0
 12 14  4  0        0
 14 15  1  0        0
 14 16  4  0        0
  9 16  4  0        0
  3 17  1  0        0
M  END
$$$$

CDXL12

 14 14  0  0  0  0  0  0  0  0999 V2000
    2.1434    0.4125    0.0000 C   0  0  0  0  0  0  0  2  0  0  0  0
    2.1434   -0.4125    0.0000 C   0  0  0  0  0  0  0  2  0  0  0  0
    2.8579   -0.8250    0.0000 C   0  0  0  0  0  0  0  2  0  0  0  0
    1.4289   -0.8250    0.0000 O   0  0  0  0  0  0  0  2  0  0  0  0
    0.7145   -0.4125    0.0000 C   0  0  0  0  0  0  0  2  0  0  0  0
    0.7145    0.4125    0.0000 O   0  0  0  0  0  0  0  2  0  0  0  0
   -0.0000   -0.8250    0.0000 N   0  0  0  0  0  0  0  2  0  0  0  0
   -0.7145   -0.4125    0.0000 C   0  0  0  0  0  0  0  2  0  0  0  0
   -0.7145    0.4125    0.0000 C   0  0  0  0  0  0  0  2  0  0  0  0
   -1.4289    0.8250    0.0000 C   0  0  0  0  0  0  0  2  0  0  0  0
   -2.1434    0.4125    0.0000 C   0  0  0  0  0  0  0  2  0  0  0  0
   -2.1434   -0.4125    0.0000 C   0  0  0  0  0  0  0  2  0  0  0  0
   -2.8579   -0.8250    0.0000 Cl  0  0  0  0  0  0  0  2  0  0  0  0
   -1.4289   -0.8250    0.0000 C   0  0  0  0  0  0  0  2  0  0  0  0
  1  2  1  0        0
  2  3  1  0        0
  2  4  1  0        0
  4  5  1  0        0
  5  6  2  0        0
  5  7  1  0        0
  7  8  1  0        0
  8  9  4  0        0
  9 10  4  0        0
 10 11  4  0        0
 11 12  4  0        0
 12 13  1  0        0
 12 14  4  0        0
  8 14  4  0        0
M  END
$$$$

CDXL12

 13 14  0  0  0  0  0  0  0  0999 V2000
   -2.4853   -0.6099    0.0000 O   0  0  0  0  0  0  0  2  0  0  0  0
   -1.7708   -1.0224    0.0000 N   0  0  0  0  0  0  0  2  0  0  0  0
   -1.0563   -0.6099    0.0000 N   0  0  0  0  0  0  0  2  0  0  0  0
   -0.3623   -1.0165    0.0000 C   0  0  0  0  0  0  0  2  0  0  0  0
    0.3419   -0.6276    0.0000 N   0  0  0  0  0  0  0  2  0  0  0  0
   -0.3726   -0.2151    0.0000 C   0  0  0  0  0  0  0  2  0  0  0  0
   -0.3726    0.6099    0.0000 N   0  0  0  0  0  0  0  2  0  0  0  0
    0.3419    1.0224    0.0000 C   0  0  0  0  0  0  0  2  0  0  0  0
    1.0563    0.6099    0.0000 N   0  0  0  0  0  0  0  2  0  0  0  0
    1.7708    1.0224    0.0000 N   0  0  0  0  0  0  0  2  0  0  0  0
    2.4853    0.6099    0.0000 O   0  0  0  0  0  0  0  2  0  0  0  0
    1.0563   -0.2151    0.0000 C   0  0  0  0  0  0  0  2  0  0  0  0
   -1.0614    0.1945    0.0000 C   0  0  0  0  0  0  0  2  0  0  0  0
  1  2  2  0        0
  2  3  1  0        0
  3  4  1  0        0
  4  5  1  0        0
  5  6  1  0        0
  6  7  1  0        0
  7  8  1  0        0
  8  9  1  0        0
  9 10  1  0        0
 10 11  2  0        0
  9 12  1  0        0
  5 12  1  0        0
  7 13  1  0        0
  3 13  1  0        0
M  END
$$$$

CDXL12

 16 16  0  0  0  0  0  0  0  0999 V2000
    3.9296   -0.8250    0.0000 Cl  0  0  0  0  0  0  0  2  0  0  0  0
    3.2151   -1.2375    0.0000 C   0  0  0  0  0  0  0  2  0  0  0  0
    2.5006   -0.8250    0.0000 C   0  0  0  0  0  0  0  2  0  0  0  0
    1.7862   -0.4125    0.0000 C   0  0  0  0  0  0  0  2  0  0  0  0
    1.0717    0.0000    0.0000 C   0  0  0  0  0  0  0  2  0  0  0  0
    0.3572   -0.4125    0.0000 O   0  0  0  0  0  0  0  2  0  0  0  0
   -0.3572    0.0000    0.0000 C   0  0  0  0  0  0  0  2  0  0  0  0
   -0.3572    0.8250    0.0000 O   0  0  0  0  0  0  0  2  0  0  0  0
   -1.0717   -0.4125    0.0000 N   0  0  0  0  0  0  0  2  0  0  0  0
   -1.7862    0.0000    0.0000 C   0  0  0  0  0  0  0  2  0  0  0  0
   -1.7862    0.8250    0.0000 C   0  0  0  0  0  0  0  2  0  0  0  0
   -2.5006    1.2375    0.0000 C   0  0  0  0  0  0  0  2  0  0  0  0
   -3.2151    0.8250    0.0000 C   0  0  0  0  0  0  0  2  0  0  0  0
   -3.2151    0.0000    0.0000 C   0  0  0  0  0  0  0  2  0  0  0  0
   -3.9296   -0.4125    0.0000 Cl  0  0  0  0  0  0  0  2  0  0  0  0
   -2.5006   -0.4125    0.0000 C   0  0  0  0  0  0  0  2  0  0  0  0
  1  2  1  0        0
  2  3  1  0        0
  3  4  3  0        0
  4  5  1  0        0
  5  6  1  0        0
  6  7  1  0        0
  7  8  2  0        0
  7  9  1  0        0
  9 10  1  0        0
 10 11  4  0        0
 11 12  4  0        0
 12 13  4  0        0
 13 14  4  0        0
 14 15  1  0        0
 14 16  4  0        0
 10 16  4  0        0
M  END
$$$$

CDXL12

 12 12  0  0  0  0  0  0  0  0999 V2000
   -0.7145    0.8250    0.0000 O   0  0  0  0  0  0  0  2  0  0  0  0
   -0.7145    0.0000    0.0000 C   0  0  0  0  0  0  0  2  0  0  0  0
   -1.4289   -0.4125    0.0000 N   0  0  0  0  0  0  0  2  0  0  0  0
   -1.4289   -1.2375    0.0000 C   0  0  0  0  0  0  0  2  0  0  0  0
   -2.1434    0.0000    0.0000 C   0  0  0  0  0  0  0  2  0  0  0  0
    0.0000   -0.4125    0.0000 N   0  0  0  0  0  0  0  2  0  0  0  0
    0.7145    0.0000    0.0000 C   0  0  0  0  0  0  0  2  0  0  0  0
    0.7145    0.8250    0.0000 C   0  0  0  0  0  0  0  2  0  0  0  0
    1.4289    1.2375    0.0000 C   0  0  0  0  0  0  0  2  0  0  0  0
    2.1434    0.8250    0.0000 C   0  0  0  0  0  0  0  2  0  0  0  0
    2.1434    0.0000    0.0000 C   0  0  0  0  0  0  0  2  0  0  0  0
    1.4289   -0.4125    0.0000 C   0  0  0  0  0  0  0  2  0  0  0  0
  1  2  2  0        0
  2  3  1  0        0
  3  4  1  0        0
  3  5  1  0        0
  2  6  1  0        0
  6  7  1  0        0
  7  8  4  0        0
  8  9  4  0        0
  9 10  4  0        0
 10 11  4  0        0
 11 12  4  0        0
  7 12  4  0        0
M  END
$$$$

CDXL12

 14 15  0  0  0  0  0  0  0  0999 V2000
    2.5006    0.8250    0.0000 O   0  0  0  0  0  0  0  2  0  0  0  0
    1.7862    0.4125    0.0000 C   0  0  0  0  0  0  0  2  0  0  0  0
    1.7862   -0.4125    0.0000 C   0  0  0  0  0  0  0  2  0  0  0  0
    1.0717   -0.8250    0.0000 C   0  0  0  0  0  0  0  2  0  0  0  0
    0.3572   -0.4125    0.0000 C   0  0  0  0  0  0  0  2  0  0  0  0
    0.3572    0.4125    0.0000 C   0  0  0  0  0  0  0  2  0  0  0  0
    1.0717    0.8250    0.0000 C   0  0  0  0  0  0  0  2  0  0  0  0
   -0.3572   -0.8250    0.0000 C   0  0  0  0  0  0  0  2  0  0  0  0
   -1.0717   -0.4125    0.0000 C   0  0  0  0  0  0  0  2  0  0  0  0
   -1.7862   -0.8250    0.0000 C   0  0  0  0  0  0  0  2  0  0  0  0
   -2.5006   -0.4125    0.0000 C   0  0  0  0  0  0  0  2  0  0  0  0
   -2.5006    0.4125    0.0000 C   0  0  0  0  0  0  0  2  0  0  0  0
   -1.7862    0.8250    0.0000 C   0  0  0  0  0  0  0  2  0  0  0  0
   -1.0717    0.4125    0.0000 C   0  0  0  0  0  0  0  2  0  0  0  0
  1  2  1  0        0
  2  3  4  0        0
  3  4  4  0        0
  4  5  4  0        0
  5  6  4  0        0
  6  7  4  0        0
  2  7  4  0        0
  5  8  1  0        0
  8  9  1  0        0
  9 10  4  0        0
 10 11  4  0        0
 11 12  4  0        0
 12 13  4  0        0
 13 14  4  0        0
  9 14  4  0        0
M  END
$$$$

CDXL12

 14 15  0  0  0  0  0  0  0  0999 V2000
    0.3572    0.8250    0.0000 N   0  0  0  0  0  0  0  2  0  0  0  0
   -0.3572    0.4125    0.0000 C   0  0  0  0  0  0  0  2  0  0  0  0
   -0.3572   -0.4125    0.0000 C   0  0  0  0  0  0  0  2  0  0  0  0
   -1.0717   -0.8250    0.0000 C   0  0  0  0  0  0  0  2  0  0  0  0
   -1.7862   -0.4125    0.0000 C   0  0  0  0  0  0  0  2  0  0  0  0
   -2.5006   -0.8250    0.0000 N   0  0  0  0  0  0  0  2  0  0  0  0
   -1.7862    0.4125    0.0000 C   0  0  0  0  0  0  0  2  0  0  0  0
   -1.0717    0.8250    0.0000 C   0  0  0  0  0  0  0  2  0  0  0  0
    1.0717    0.4125    0.0000 C   0  0  0  0  0  0  0  2  0  0  0  0
    1.7862    0.8250    0.0000 C   0  0  0  0  0  0  0  2  0  0  0  0
    2.5006    0.4125    0.0000 C   0  0  0  0  0  0  0  2  0  0  0  0
    2.5006   -0.4125    0.0000 C   0  0  0  0  0  0  0  2  0  0  0  0
    1.7862   -0.8250    0.0000 C   0  0  0  0  0  0  0  2  0  0  0  0
    1.0717   -0.4125    0.0000 C   0  0  0  0  0  0  0  2  0  0  0  0
  1  2  1  0        0
  2  3  4  0        0
  3  4  4  0        0
  4  5  4  0        0
  5  6  1  0        0
  5  7  4  0        0
  7  8  4  0        0
  2  8  4  0        0
  1  9  1  0        0
  9 10  4  0        0
 10 11  4  0        0
 11 12  4  0        0
 12 13  4  0        0
 13 14  4  0        0
  9 14  4  0        0
M  END
$$$$

CDXL12

 15 16  0  0  0  0  0  0  0  0999 V2000
    2.8579    0.8250    0.0000 N   0  0  0  0  0  0  0  2  0  0  0  0
    2.1434    0.4125    0.0000 C   0  0  0  0  0  0  0  2  0  0  0  0
    2.1434   -0.4125    0.0000 C   0  0  0  0  0  0  0  2  0  0  0  0
    1.4289   -0.8250    0.0000 C   0  0  0  0  0  0  0  2  0  0  0  0
    0.7145   -0.4125    0.0000 C   0  0  0  0  0  0  0  2  0  0  0  0
    0.7145    0.4125    0.0000 C   0  0  0  0  0  0  0  2  0  0  0  0
    1.4289    0.8250    0.0000 C   0  0  0  0  0  0  0  2  0  0  0  0
    0.0000   -0.8250    0.0000 C   0  0  0  0  0  0  0  2  0  0  0  0
   -0.7145   -0.4125    0.0000 C   0  0  0  0  0  0  0  2  0  0  0  0
   -1.4289   -0.8250    0.0000 C   0  0  0  0  0  0  0  2  0  0  0  0
   -2.1434   -0.4125    0.0000 C   0  0  0  0  0  0  0  2  0  0  0  0
   -2.1434    0.4125    0.0000 C   0  0  0  0  0  0  0  2  0  0  0  0
   -2.8579    0.8250    0.0000 N   0  0  0  0  0  0  0  2  0  0  0  0
   -1.4289    0.8250    0.0000 C   0  0  0  0  0  0  0  2  0  0  0  0
   -0.7145    0.4125    0.0000 C   0  0  0  0  0  0  0  2  0  0  0  0
  1  2  1  0        0
  2  3  4  0        0
  3  4  4  0        0
  4  5  4  0        0
  5  6  4  0        0
  6  7  4  0        0
  2  7  4  0        0
  5  8  1  0        0
  8  9  1  0        0
  9 10  4  0        0
 10 11  4  0        0
 11 12  4  0        0
 12 13  1  0        0
 12 14  4  0        0
 14 15  4  0        0
  9 15  4  0        0
M  END
$$$$

CDXL12

 13 14  0  0  0  0  0  0  0  0999 V2000
   -0.7145    0.4125    0.0000 C   0  0  0  0  0  0  0  2  0  0  0  0
   -0.7145   -0.4125    0.0000 C   0  0  0  0  0  0  0  2  0  0  0  0
   -1.4289   -0.8250    0.0000 C   0  0  0  0  0  0  0  2  0  0  0  0
   -2.1434   -0.4125    0.0000 C   0  0  0  0  0  0  0  2  0  0  0  0
   -2.1434    0.4125    0.0000 C   0  0  0  0  0  0  0  2  0  0  0  0
   -1.4289    0.8250    0.0000 C   0  0  0  0  0  0  0  2  0  0  0  0
    0.0000    0.8250    0.0000 C   0  0  0  0  0  0  0  2  0  0  0  0
    0.7145    0.4125    0.0000 C   0  0  0  0  0  0  0  2  0  0  0  0
    1.4289    0.8250    0.0000 C   0  0  0  0  0  0  0  2  0  0  0  0
    2.1434    0.4125    0.0000 C   0  0  0  0  0  0  0  2  0  0  0  0
    2.1434   -0.4125    0.0000 C   0  0  0  0  0  0  0  2  0  0  0  0
    1.4289   -0.8250    0.0000 C   0  0  0  0  0  0  0  2  0  0  0  0
    0.7145   -0.4125    0.0000 C   0  0  0  0  0  0  0  2  0  0  0  0
  1  2  4  0        0
  2  3  4  0        0
  3  4  4  0        0
  4  5  4  0        0
  5  6  4  0        0
  1  6  4  0        0
  1  7  1  0        0
  7  8  1  0        0
  8  9  4  0        0
  9 10  4  0        0
 10 11  4  0        0
 11 12  4  0        0
 12 13  4  0        0
  8 13  4  0        0
M  END
$$$$

CDXL12

 13 14  0  0  0  0  0  0  0  0999 V2000
    0.0000    0.8250    0.0000 O   0  0  0  0  0  0  0  2  0  0  0  0
   -0.7145    0.4125    0.0000 C   0  0  0  0  0  0  0  2  0  0  0  0
   -0.7145   -0.4125    0.0000 C   0  0  0  0  0  0  0  2  0  0  0  0
   -1.4289   -0.8250    0.0000 C   0  0  0  0  0  0  0  2  0  0  0  0
   -2.1434   -0.4125    0.0000 C   0  0  0  0  0  0  0  2  0  0  0  0
   -2.1434    0.4125    0.0000 C   0  0  0  0  0  0  0  2  0  0  0  0
   -1.4289    0.8250    0.0000 C   0  0  0  0  0  0  0  2  0  0  0  0
    0.7145    0.4125    0.0000 C   0  0  0  0  0  0  0  2  0  0  0  0
    1.4289    0.8250    0.0000 C   0  0  0  0  0  0  0  2  0  0  0  0
    2.1434    0.4125    0.0000 C   0  0  0  0  0  0  0  2  0  0  0  0
    2.1434   -0.4125    0.0000 C   0  0  0  0  0  0  0  2  0  0  0  0
    1.4289   -0.8250    0.0000 C   0  0  0  0  0  0  0  2  0  0  0  0
    0.7145   -0.4125    0.0000 C   0  0  0  0  0  0  0  2  0  0  0  0
  1  2  1  0        0
  2  3  4  0        0
  3  4  4  0        0
  4  5  4  0        0
  5  6  4  0        0
  6  7  4  0        0
  2  7  4  0        0
  1  8  1  0        0
  8  9  4  0        0
  9 10  4  0        0
 10 11  4  0        0
 11 12  4  0        0
 12 13  4  0        0
  8 13  4  0        0
M  END
$$$$

CDXL12

 12 12  0  0  0  0  0  0  0  0999 V2000
    0.3572    0.4125    0.0000 O   0  0  0  0  0  0  0  2  0  0  0  0
    0.3572   -0.4125    0.0000 C   0  0  0  0  0  0  0  2  0  0  0  0
    1.0717   -0.8250    0.0000 O   0  0  0  0  0  0  0  2  0  0  0  0
    1.7862   -0.4125    0.0000 C   0  0  0  0  0  0  0  2  0  0  0  0
    2.5006   -0.8250    0.0000 C   0  0  0  0  0  0  0  2  0  0  0  0
   -0.3572   -0.8250    0.0000 N   0  0  0  0  0  0  0  2  0  0  0  0
   -1.0717   -0.4125    0.0000 C   0  0  0  0  0  0  0  2  0  0  0  0
   -1.0717    0.4125    0.0000 C   0  0  0  0  0  0  0  2  0  0  0  0
   -1.7862    0.8250    0.0000 C   0  0  0  0  0  0  0  2  0  0  0  0
   -2.5006    0.4125    0.0000 C   0  0  0  0  0  0  0  2  0  0  0  0
   -2.5006   -0.4125    0.0000 C   0  0  0  0  0  0  0  2  0  0  0  0
   -1.7862   -0.8250    0.0000 C   0  0  0  0  0  0  0  2  0  0  0  0
  1  2  2  0        0
  2  3  1  0        0
  3  4  1  0        0
  4  5  1  0        0
  2  6  1  0        0
  6  7  1  0        0
  7  8  4  0        0
  8  9  4  0        0
  9 10  4  0        0
 10 11  4  0        0
 11 12  4  0        0
  7 12  4  0        0
M  END
$$$$

CDXL12

 16 17  0  0  0  0  0  0  0  0999 V2000
    0.0000    0.4125    0.0000 N   0  0  0  0  0  0  0  2  0  0  0  0
    0.0000   -0.4125    0.0000 C   0  0  0  0  0  0  0  2  0  0  0  0
    0.7145   -0.8250    0.0000 N   0  0  0  0  0  0  0  2  0  0  0  0
    1.4289   -0.4125    0.0000 C   0  0  0  0  0  0  0  2  0  0  0  0
    1.4289    0.4125    0.0000 C   0  0  0  0  0  0  0  2  0  0  0  0
    2.1434    0.8250    0.0000 C   0  0  0  0  0  0  0  2  0  0  0  0
    2.8579    0.4125    0.0000 C   0  0  0  0  0  0  0  2  0  0  0  0
    2.8579   -0.4125    0.0000 C   0  0  0  0  0  0  0  2  0  0  0  0
    2.1434   -0.8250    0.0000 C   0  0  0  0  0  0  0  2  0  0  0  0
   -0.7145   -0.8250    0.0000 N   0  0  0  0  0  0  0  2  0  0  0  0
   -1.4289   -0.4125    0.0000 C   0  0  0  0  0  0  0  2  0  0  0  0
   -2.1434   -0.8250    0.0000 C   0  0  0  0  0  0  0  2  0  0  0  0
   -2.8579   -0.4125    0.0000 C   0  0  0  0  0  0  0  2  0  0  0  0
   -2.8579    0.4125    0.0000 C   0  0  0  0  0  0  0  2  0  0  0  0
   -2.1434    0.8250    0.0000 C   0  0  0  0  0  0  0  2  0  0  0  0
   -1.4289    0.4125    0.0000 C   0  0  0  0  0  0  0  2  0  0  0  0
  1  2  2  0        0
  2  3  1  0        0
  3  4  1  0        0
  4  5  4  0        0
  5  6  4  0        0
  6  7  4  0        0
  7  8  4  0        0
  8  9  4  0        0
  4  9  4  0        0
  2 10  1  0        0
 10 11  1  0        0
 11 12  4  0        0
 12 13  4  0        0
 13 14  4  0        0
 14 15  4  0        0
 15 16  4  0        0
 11 16  4  0        0
M  END
$$$$

CDXL12

 16 17  0  0  0  0  0  0  0  0999 V2000
    0.0000    0.4125    0.0000 O   0  0  0  0  0  0  0  2  0  0  0  0
    0.0000   -0.4125    0.0000 C   0  0  0  0  0  0  0  2  0  0  0  0
    0.7145   -0.8250    0.0000 N   0  0  0  0  0  0  0  2  0  0  0  0
    1.4289   -0.4125    0.0000 C   0  0  0  0  0  0  0  2  0  0  0  0
    1.4289    0.4125    0.0000 C   0  0  0  0  0  0  0  2  0  0  0  0
    2.1434    0.8250    0.0000 C   0  0  0  0  0  0  0  2  0  0  0  0
    2.8579    0.4125    0.0000 C   0  0  0  0  0  0  0  2  0  0  0  0
    2.8579   -0.4125    0.0000 C   0  0  0  0  0  0  0  2  0  0  0  0
    2.1434   -0.8250    0.0000 C   0  0  0  0  0  0  0  2  0  0  0  0
   -0.7145   -0.8250    0.0000 N   0  0  0  0  0  0  0  2  0  0  0  0
   -1.4289   -0.4125    0.0000 C   0  0  0  0  0  0  0  2  0  0  0  0
   -2.1434   -0.8250    0.0000 C   0  0  0  0  0  0  0  2  0  0  0  0
   -2.8579   -0.4125    0.0000 C   0  0  0  0  0  0  0  2  0  0  0  0
   -2.8579    0.4125    0.0000 C   0  0  0  0  0  0  0  2  0  0  0  0
   -2.1434    0.8250    0.0000 C   0  0  0  0  0  0  0  2  0  0  0  0
   -1.4289    0.4125    0.0000 C   0  0  0  0  0  0  0  2  0  0  0  0
  1  2  2  0        0
  2  3  1  0        0
  3  4  1  0        0
  4  5  4  0        0
  5  6  4  0        0
  6  7  4  0        0
  7  8  4  0        0
  8  9  4  0        0
  4  9  4  0        0
  2 10  1  0        0
 10 11  1  0        0
 11 12  4  0        0
 12 13  4  0        0
 13 14  4  0        0
 14 15  4  0        0
 15 16  4  0        0
 11 16  4  0        0
M  END
$$$$

CDXL12

 12 12  0  0  0  0  0  0  0  0999 V2000
    0.0000    0.2062    0.0000 C   0  0  0  0  0  0  0  2  0  0  0  0
   -0.7145   -0.2062    0.0000 C   0  0  0  0  0  0  0  2  0  0  0  0
   -0.7145   -1.0313    0.0000 C   0  0  0  0  0  0  0  2  0  0  0  0
    0.0000   -1.4438    0.0000 C   0  0  0  0  0  0  0  2  0  0  0  0
    0.7145   -1.0313    0.0000 C   0  0  0  0  0  0  0  2  0  0  0  0
    1.4289   -1.4438    0.0000 C   0  0  0  0  0  0  0  2  0  0  0  0
    2.1434   -1.0313    0.0000 C   0  0  0  0  0  0  0  2  0  0  0  0
    0.7145   -0.2063    0.0000 C   0  0  0  0  0  0  0  2  0  0  0  0
   -1.4289   -1.4438    0.0000 C   0  0  0  0  0  0  0  2  0  0  0  0
   -2.1434   -1.0313    0.0000 C   0  0  0  0  0  0  0  2  0  0  0  0
    0.0000    1.0313    0.0000 C   0  0  0  0  0  0  0  2  0  0  0  0
   -0.7145    1.4438    0.0000 C   0  0  0  0  0  0  0  2  0  0  0  0
  1  2  4  0        0
  2  3  4  0        0
  3  4  4  0        0
  4  5  4  0        0
  5  6  1  0        0
  6  7  1  0        0
  5  8  4  0        0
  1  8  4  0        0
  3  9  1  0        0
  9 10  1  0        0
  1 11  1  0        0
 11 12  1  0        0
M  END
$$$$

CDXL12

 24 24  0  0  0  0  0  0  0  0999 V2000
    6.0730    0.8250    0.0000 Cl  0  0  0  0  0  0  0  2  0  0  0  0
    5.3585    0.4125    0.0000 C   0  0  0  0  0  0  0  2  0  0  0  0
    5.3585   -0.4125    0.0000 C   0  0  0  0  0  0  0  2  0  0  0  0
    6.0730   -0.8250    0.0000 Cl  0  0  0  0  0  0  0  2  0  0  0  0
    4.6441   -0.8250    0.0000 C   0  0  0  0  0  0  0  2  0  0  0  0
    3.9296   -0.4125    0.0000 C   0  0  0  0  0  0  0  2  0  0  0  0
    3.2151   -0.8250    0.0000 C   0  0  0  0  0  0  0  2  0  0  0  0
    2.5006   -0.4125    0.0000 N   0  0  0  0  0  0  0  2  0  0  0  0
    2.9131    0.3020    0.0000 C   0  0  0  0  0  0  0  2  0  0  0  0
    2.0881    0.3020    0.0000 C   0  0  0  0  0  0  0  2  0  0  0  0
    1.7862   -0.8250    0.0000 C   0  0  0  0  0  0  0  2  0  0  0  0
    1.0717   -0.4125    0.0000 C   0  0  0  0  0  0  0  2  0  0  0  0
    0.3572   -0.8250    0.0000 C   0  0  0  0  0  0  0  2  0  0  0  0
   -0.3572   -0.4125    0.0000 C   0  0  0  0  0  0  0  2  0  0  0  0
   -1.0717   -0.8250    0.0000 C   0  0  0  0  0  0  0  2  0  0  0  0
   -1.7862   -0.4125    0.0000 C   0  0  0  0  0  0  0  2  0  0  0  0
   -2.5006   -0.8250    0.0000 C   0  0  0  0  0  0  0  2  0  0  0  0
   -3.2151   -0.4125    0.0000 C   0  0  0  0  0  0  0  2  0  0  0  0
   -3.9296   -0.8250    0.0000 C   0  0  0  0  0  0  0  2  0  0  0  0
   -4.6441   -0.4125    0.0000 C   0  0  0  0  0  0  0  2  0  0  0  0
   -5.3585   -0.8250    0.0000 C   0  0  0  0  0  0  0  2  0  0  0  0
   -6.0730   -0.4125    0.0000 C   0  0  0  0  0  0  0  2  0  0  0  0
    3.9296    0.4125    0.0000 C   0  0  0  0  0  0  0  2  0  0  0  0
    4.6441    0.8250    0.0000 C   0  0  0  0  0  0  0  2  0  0  0  0
  1  2  1  0        0
  2  3  4  0        0
  3  4  1  0        0
  3  5  4  0        0
  5  6  4  0        0
  6  7  1  0        0
  7  8  1  0        0
  8  9  1  0        0
  8 10  1  0        0
  8 11  1  0        0
 11 12  1  0        0
 12 13  1  0        0
 13 14  1  0        0
 14 15  1  0        0
 15 16  1  0        0
 16 17  1  0        0
 17 18  1  0        0
 18 19  1  0        0
 19 20  1  0        0
 20 21  1  0        0
 21 22  1  0        0
  6 23  4  0        0
 23 24  4  0        0
  2 24  4  0        0
M  END
$$$$

CDXL12

 10  9  0  0  0  0  0  0  0  0999 V2000
   -2.1434   -1.2375    0.0000 O   0  0  0  0  0  0  0  2  0  0  0  0
   -1.4289   -0.8250    0.0000 C   0  0  0  0  0  0  0  2  0  0  0  0
   -0.7145   -1.2375    0.0000 C   0  0  0  0  0  0  0  2  0  0  0  0
    0.0000   -0.8250    0.0000 N   0  0  0  0  0  0  0  2  0  0  0  0
    0.7145   -1.2375    0.0000 C   0  0  0  0  0  0  0  2  0  0  0  0
    1.4289   -0.8250    0.0000 C   0  0  0  0  0  0  0  2  0  0  0  0
    2.1434   -1.2375    0.0000 O   0  0  0  0  0  0  0  2  0  0  0  0
    0.0000    0.0000    0.0000 C   0  0  0  0  0  0  0  2  0  0  0  0
   -0.7145    0.4125    0.0000 C   0  0  0  0  0  0  0  2  0  0  0  0
   -0.7145    1.2375    0.0000 O   0  0  0  0  0  0  0  2  0  0  0  0
  1  2  1  0        0
  2  3  1  0        0
  3  4  1  0        0
  4  5  1  0        0
  5  6  1  0        0
  6  7  1  0        0
  4  8  1  0        0
  8  9  1  0        0
  9 10  1  0        0
M  END
$$$$

CDXL12

 15 14  0  0  0  0  0  0  0  0999 V2000
   -2.1434   -1.6500    0.0000 O   0  0  0  0  0  0  0  2  0  0  0  0
   -2.1434   -0.8250    0.0000 C   0  0  0  0  0  0  0  2  0  0  0  0
   -1.4289   -0.4125    0.0000 O   0  0  0  0  0  0  0  2  0  0  0  0
   -0.7145   -0.8250    0.0000 C   0  0  0  0  0  0  0  2  0  0  0  0
    0.0000   -0.4125    0.0000 C   0  0  0  0  0  0  0  2  0  0  0  0
    0.0000    0.4125    0.0000 O   0  0  0  0  0  0  0  2  0  0  0  0
   -0.7145    0.8250    0.0000 C   0  0  0  0  0  0  0  2  0  0  0  0
   -0.7145    1.6500    0.0000 O   0  0  0  0  0  0  0  2  0  0  0  0
   -1.4289    0.4125    0.0000 C   0  0  0  0  0  0  0  2  0  0  0  0
    0.7145   -0.8250    0.0000 C   0  0  0  0  0  0  0  2  0  0  0  0
    1.4289   -0.4125    0.0000 O   0  0  0  0  0  0  0  2  0  0  0  0
    2.1434   -0.8250    0.0000 C   0  0  0  0  0  0  0  2  0  0  0  0
    2.1434   -1.6500    0.0000 O   0  0  0  0  0  0  0  2  0  0  0  0
    2.8579   -0.4125    0.0000 C   0  0  0  0  0  0  0  2  0  0  0  0
   -2.8579   -0.4125    0.0000 C   0  0  0  0  0  0  0  2  0  0  0  0
  1  2  2  0        0
  2  3  1  0        0
  3  4  1  0        0
  4  5  1  0        0
  5  6  1  0        0
  6  7  1  0        0
  7  8  2  0        0
  7  9  1  0        0
  5 10  1  0        0
 10 11  1  0        0
 11 12  1  0        0
 12 13  2  0        0
 12 14  1  0        0
  2 15  1  0        0
M  END
$$$$

CDXL12

 13 12  0  0  0  0  0  0  0  0999 V2000
    0.0000   -1.0313    0.0000 N   0  0  0  0  0  0  0  2  0  0  0  0
    0.7145   -1.4438    0.0000 C   0  0  0  0  0  0  0  2  0  0  0  0
    1.4289   -1.0313    0.0000 C   0  0  0  0  0  0  0  2  0  0  0  0
    2.1434   -1.4438    0.0000 C   0  0  0  0  0  0  0  2  0  0  0  0
    2.8579   -1.0313    0.0000 C   0  0  0  0  0  0  0  2  0  0  0  0
   -0.7145   -1.4438    0.0000 C   0  0  0  0  0  0  0  2  0  0  0  0
   -1.4289   -1.0313    0.0000 C   0  0  0  0  0  0  0  2  0  0  0  0
   -2.1434   -1.4438    0.0000 C   0  0  0  0  0  0  0  2  0  0  0  0
   -2.8579   -1.0312    0.0000 C   0  0  0  0  0  0  0  2  0  0  0  0
    0.0000   -0.2062    0.0000 C   0  0  0  0  0  0  0  2  0  0  0  0
   -0.7145    0.2062    0.0000 C   0  0  0  0  0  0  0  2  0  0  0  0
   -0.7145    1.0313    0.0000 C   0  0  0  0  0  0  0  2  0  0  0  0
   -1.4289    1.4438    0.0000 C   0  0  0  0  0  0  0  2  0  0  0  0
  1  2  1  0        0
  2  3  1  0        0
  3  4  1  0        0
  4  5  1  0        0
  1  6  1  0        0
  6  7  1  0        0
  7  8  1  0        0
  8  9  1  0        0
  1 10  1  0        0
 10 11  1  0        0
 11 12  1  0        0
 12 13  1  0        0
M  END
$$$$

CDXL12

 13 12  0  0  0  0  0  0  0  0999 V2000
   -1.7862    1.2375    0.0000 O   0  0  0  0  0  0  0  2  0  0  0  0
   -1.7862    0.4125    0.0000 C   0  0  0  0  0  0  0  2  0  0  0  0
   -1.0717    0.0000    0.0000 O   0  0  0  0  0  0  0  2  0  0  0  0
   -0.3572    0.4125    0.0000 C   0  0  0  0  0  0  0  2  0  0  0  0
    0.3572    0.0000    0.0000 C   0  0  0  0  0  0  0  2  0  0  0  0
    1.0717    0.4125    0.0000 C   0  0  0  0  0  0  0  2  0  0  0  0
    1.7862    0.0000    0.0000 C   0  0  0  0  0  0  0  2  0  0  0  0
    2.5006    0.4125    0.0000 C   0  0  0  0  0  0  0  2  0  0  0  0
    3.2151    0.0000    0.0000 C   0  0  0  0  0  0  0  2  0  0  0  0
    0.3572   -0.8250    0.0000 C   0  0  0  0  0  0  0  2  0  0  0  0
    1.0717   -1.2375    0.0000 C   0  0  0  0  0  0  0  2  0  0  0  0
   -2.5006    0.0000    0.0000 C   0  0  0  0  0  0  0  2  0  0  0  0
   -3.2151    0.4125    0.0000 C   0  0  0  0  0  0  0  2  0  0  0  0
  1  2  2  0        0
  2  3  1  0        0
  3  4  1  0        0
  4  5  1  0        0
  5  6  1  0        0
  6  7  1  0        0
  7  8  1  0        0
  8  9  1  0        0
  5 10  1  0        0
 10 11  1  0        0
  2 12  1  0        0
 12 13  2  0        0
M  END
$$$$

CDXL12

 26 25  0  0  0  0  0  0  0  0999 V2000
   -1.7862    1.0312    0.0000 O   0  0  0  0  0  0  0  2  0  0  0  0
   -1.7862    0.2062    0.0000 C   0  0  0  0  0  0  0  2  0  0  0  0
   -2.5006   -0.2062    0.0000 O   0  0  0  0  0  0  0  2  0  0  0  0
   -3.2151    0.2063    0.0000 C   0  0  0  0  0  0  0  2  0  0  0  0
   -3.9296   -0.2062    0.0000 C   0  0  0  0  0  0  0  2  0  0  0  0
   -4.6441    0.2062    0.0000 C   0  0  0  0  0  0  0  2  0  0  0  0
   -5.3585   -0.2062    0.0000 C   0  0  0  0  0  0  0  2  0  0  0  0
   -6.0730    0.2062    0.0000 C   0  0  0  0  0  0  0  2  0  0  0  0
   -6.7875   -0.2062    0.0000 C   0  0  0  0  0  0  0  2  0  0  0  0
   -3.9296   -1.0312    0.0000 C   0  0  0  0  0  0  0  2  0  0  0  0
   -4.6441   -1.4437    0.0000 C   0  0  0  0  0  0  0  2  0  0  0  0
   -1.0717   -0.2062    0.0000 C   0  0  0  0  0  0  0  2  0  0  0  0
   -0.3572    0.2062    0.0000 C   0  0  0  0  0  0  0  2  0  0  0  0
    0.3572   -0.2062    0.0000 C   0  0  0  0  0  0  0  2  0  0  0  0
    1.0717    0.2062    0.0000 C   0  0  0  0  0  0  0  2  0  0  0  0
    1.7862   -0.2062    0.0000 C   0  0  0  0  0  0  0  2  0  0  0  0
    1.7862   -1.0312    0.0000 O   0  0  0  0  0  0  0  2  0  0  0  0
    2.5006    0.2062    0.0000 O   0  0  0  0  0  0  0  2  0  0  0  0
    3.2151   -0.2062    0.0000 C   0  0  0  0  0  0  0  2  0  0  0  0
    3.9296    0.2062    0.0000 C   0  0  0  0  0  0  0  2  0  0  0  0
    4.6441   -0.2062    0.0000 C   0  0  0  0  0  0  0  2  0  0  0  0
    5.3585    0.2062    0.0000 C   0  0  0  0  0  0  0  2  0  0  0  0
    6.0730   -0.2062    0.0000 C   0  0  0  0  0  0  0  2  0  0  0  0
    6.7875    0.2062    0.0000 C   0  0  0  0  0  0  0  2  0  0  0  0
    3.9296    1.0312    0.0000 C   0  0  0  0  0  0  0  2  0  0  0  0
    4.6441    1.4437    0.0000 C   0  0  0  0  0  0  0  2  0  0  0  0
  1  2  2  0        0
  2  3  1  0        0
  3  4  1  0        0
  4  5  1  0        0
  5  6  1  0        0
  6  7  1  0        0
  7  8  1  0        0
  8  9  1  0        0
  5 10  1  0        0
 10 11  1  0        0
  2 12  1  0        0
 12 13  1  0        0
 13 14  1  0        0
 14 15  1  0        0
 15 16  1  0        0
 16 17  2  0        0
 16 18  1  0        0
 18 19  1  0        0
 19 20  1  0        0
 20 21  1  0        0
 21 22  1  0        0
 22 23  1  0        0
 23 24  1  0        0
 20 25  1  0        0
 25 26  1  0        0
M  END
$$$$

CDXL12

 14 15  0  0  0  0  0  0  0  0999 V2000
   -1.0717   -0.2063    0.0000 C   0  0  0  0  0  0  0  2  0  0  0  0
   -1.0717   -1.0313    0.0000 C   0  0  0  0  0  0  0  2  0  0  0  0
   -1.7862   -1.4437    0.0000 C   0  0  0  0  0  0  0  2  0  0  0  0
   -2.5006   -1.0313    0.0000 C   0  0  0  0  0  0  0  2  0  0  0  0
   -2.5006   -0.2063    0.0000 C   0  0  0  0  0  0  0  2  0  0  0  0
   -1.7862    0.2062    0.0000 C   0  0  0  0  0  0  0  2  0  0  0  0
   -0.3572    0.2062    0.0000 C   0  0  0  0  0  0  0  2  0  0  0  0
    0.3572   -0.2063    0.0000 C   0  0  0  0  0  0  0  2  0  0  0  0
    1.0717    0.2062    0.0000 C   0  0  0  0  0  0  0  2  0  0  0  0
    1.0717    1.0312    0.0000 C   0  0  0  0  0  0  0  2  0  0  0  0
    1.7862    1.4437    0.0000 C   0  0  0  0  0  0  0  2  0  0  0  0
    2.5006    1.0312    0.0000 C   0  0  0  0  0  0  0  2  0  0  0  0
    2.5006    0.2062    0.0000 C   0  0  0  0  0  0  0  2  0  0  0  0
    1.7862   -0.2063    0.0000 C   0  0  0  0  0  0  0  2  0  0  0  0
  1  2  4  0        0
  2  3  4  0        0
  3  4  4  0        0
  4  5  4  0        0
  5  6  4  0        0
  1  6  4  0        0
  1  7  1  0        0
  7  8  1  0        0
  8  9  1  0        0
  9 10  4  0        0
 10 11  4  0        0
 11 12  4  0        0
 12 13  4  0        0
 13 14  4  0        0
  9 14  4  0        0
M  END
$$$$

CDXL12

 14 15  0  0  0  0  0  0  0  0999 V2000
   -1.0717   -0.2063    0.0000 C   0  0  0  0  0  0  0  2  0  0  0  0
   -1.0717   -1.0313    0.0000 C   0  0  0  0  0  0  0  2  0  0  0  0
   -1.7862   -1.4437    0.0000 C   0  0  0  0  0  0  0  2  0  0  0  0
   -2.5006   -1.0313    0.0000 C   0  0  0  0  0  0  0  2  0  0  0  0
   -2.5006   -0.2063    0.0000 C   0  0  0  0  0  0  0  2  0  0  0  0
   -1.7862    0.2062    0.0000 C   0  0  0  0  0  0  0  2  0  0  0  0
   -0.3572    0.2062    0.0000 C   0  0  0  0  0  0  0  2  0  0  0  0
    0.3572   -0.2063    0.0000 C   0  0  0  0  0  0  0  2  0  0  0  0
    1.0717    0.2062    0.0000 C   0  0  0  0  0  0  0  2  0  0  0  0
    1.0717    1.0312    0.0000 C   0  0  0  0  0  0  0  2  0  0  0  0
    1.7862    1.4437    0.0000 C   0  0  0  0  0  0  0  2  0  0  0  0
    2.5006    1.0312    0.0000 C   0  0  0  0  0  0  0  2  0  0  0  0
    2.5006    0.2062    0.0000 C   0  0  0  0  0  0  0  2  0  0  0  0
    1.7862   -0.2063    0.0000 C   0  0  0  0  0  0  0  2  0  0  0  0
  1  2  4  0        0
  2  3  4  0        0
  3  4  4  0        0
  4  5  4  0        0
  5  6  4  0        0
  1  6  4  0        0
  1  7  1  0        0
  7  8  2  0        0
  8  9  1  0        0
  9 10  4  0        0
 10 11  4  0        0
 11 12  4  0        0
 12 13  4  0        0
 13 14  4  0        0
  9 14  4  0        0
M  END
$$$$

CDXL12

 14 15  0  0  0  0  0  0  0  0999 V2000
    0.3572   -0.2063    0.0000 N   0  0  0  0  0  0  0  2  0  0  0  0
   -0.3572    0.2062    0.0000 N   0  0  0  0  0  0  0  2  0  0  0  0
   -1.0717   -0.2063    0.0000 C   0  0  0  0  0  0  0  2  0  0  0  0
   -1.0717   -1.0313    0.0000 C   0  0  0  0  0  0  0  2  0  0  0  0
   -1.7862   -1.4437    0.0000 C   0  0  0  0  0  0  0  2  0  0  0  0
   -2.5006   -1.0313    0.0000 C   0  0  0  0  0  0  0  2  0  0  0  0
   -2.5006   -0.2063    0.0000 C   0  0  0  0  0  0  0  2  0  0  0  0
   -1.7862    0.2062    0.0000 C   0  0  0  0  0  0  0  2  0  0  0  0
    1.0717    0.2062    0.0000 C   0  0  0  0  0  0  0  2  0  0  0  0
    1.0717    1.0312    0.0000 C   0  0  0  0  0  0  0  2  0  0  0  0
    1.7862    1.4437    0.0000 C   0  0  0  0  0  0  0  2  0  0  0  0
    2.5006    1.0312    0.0000 C   0  0  0  0  0  0  0  2  0  0  0  0
    2.5006    0.2062    0.0000 C   0  0  0  0  0  0  0  2  0  0  0  0
    1.7862   -0.2063    0.0000 C   0  0  0  0  0  0  0  2  0  0  0  0
  1  2  2  0        0
  2  3  1  0        0
  3  4  4  0        0
  4  5  4  0        0
  5  6  4  0        0
  6  7  4  0        0
  7  8  4  0        0
  3  8  4  0        0
  1  9  1  0        0
  9 10  4  0        0
 10 11  4  0        0
 11 12  4  0        0
 12 13  4  0        0
 13 14  4  0        0
  9 14  4  0        0
M  END
$$$$

CDXL12

 13 13  0  0  0  0  0  0  0  0999 V2000
    0.7145   -1.2375    0.0000 O   0  0  0  0  0  0  0  2  0  0  0  0
    0.7145   -0.4125    0.0000 C   0  0  0  0  0  0  0  2  0  0  0  0
    1.4289    0.0000    0.0000 O   0  0  0  0  0  0  0  2  0  0  0  0
    2.1434   -0.4125    0.0000 C   0  0  0  0  0  0  0  2  0  0  0  0
    2.8579   -0.0000    0.0000 C   0  0  0  0  0  0  0  2  0  0  0  0
    0.0000   -0.0000    0.0000 C   0  0  0  0  0  0  0  2  0  0  0  0
   -0.7145   -0.4125    0.0000 C   0  0  0  0  0  0  0  2  0  0  0  0
   -1.4289   -0.0000    0.0000 C   0  0  0  0  0  0  0  2  0  0  0  0
   -2.1434   -0.4125    0.0000 C   0  0  0  0  0  0  0  2  0  0  0  0
   -2.8579    0.0000    0.0000 C   0  0  0  0  0  0  0  2  0  0  0  0
   -2.8579    0.8250    0.0000 C   0  0  0  0  0  0  0  2  0  0  0  0
   -2.1434    1.2375    0.0000 C   0  0  0  0  0  0  0  2  0  0  0  0
   -1.4289    0.8250    0.0000 C   0  0  0  0  0  0  0  2  0  0  0  0
  1  2  2  0        0
  2  3  1  0        0
  3  4  1  0        0
  4  5  1  0        0
  2  6  1  0        0
  6  7  2  0        0
  7  8  1  0        0
  8  9  4  0        0
  9 10  4  0        0
 10 11  4  0        0
 11 12  4  0        0
 12 13  4  0        0
  8 13  4  0        0
M  END
$$$$

CDXL12

 11 10  0  0  0  0  0  0  0  0999 V2000
   -1.4289   -0.4125    0.0000 O   0  0  0  0  0  0  0  2  0  0  0  0
   -0.7145   -0.8250    0.0000 C   0  0  0  0  0  0  0  2  0  0  0  0
    0.0000   -0.4125    0.0000 C   0  0  0  0  0  0  0  2  0  0  0  0
    0.7145   -0.8250    0.0000 C   0  0  0  0  0  0  0  2  0  0  0  0
    1.4289   -0.4125    0.0000 C   0  0  0  0  0  0  0  2  0  0  0  0
    2.1434   -0.8250    0.0000 C   0  0  0  0  0  0  0  2  0  0  0  0
    2.8579   -0.4125    0.0000 C   0  0  0  0  0  0  0  2  0  0  0  0
    0.0000    0.4125    0.0000 C   0  0  0  0  0  0  0  2  0  0  0  0
   -0.7145    0.8250    0.0000 C   0  0  0  0  0  0  0  2  0  0  0  0
   -2.1434   -0.8250    0.0000 C   0  0  0  0  0  0  0  2  0  0  0  0
   -2.8579   -0.4125    0.0000 C   0  0  0  0  0  0  0  2  0  0  0  0
  1  2  1  0        0
  2  3  1  0        0
  3  4  1  0        0
  4  5  1  0        0
  5  6  1  0        0
  6  7  1  0        0
  3  8  1  0        0
  8  9  1  0        0
  1 10  1  0        0
 10 11  2  0        0
M  END
$$$$

CDXL12

 15 16  0  0  0  0  0  0  0  0999 V2000
   -0.0000   -0.4125    0.0000 O   0  0  0  0  0  0  0  2  0  0  0  0
    0.7145   -0.8250    0.0000 C   0  0  0  0  0  0  0  2  0  0  0  0
    1.4289   -0.4125    0.0000 C   0  0  0  0  0  0  0  2  0  0  0  0
    1.4289    0.4125    0.0000 C   0  0  0  0  0  0  0  2  0  0  0  0
    2.1434    0.8250    0.0000 C   0  0  0  0  0  0  0  2  0  0  0  0
    2.8579    0.4125    0.0000 C   0  0  0  0  0  0  0  2  0  0  0  0
    2.8579   -0.4125    0.0000 C   0  0  0  0  0  0  0  2  0  0  0  0
    2.1434   -0.8250    0.0000 C   0  0  0  0  0  0  0  2  0  0  0  0
   -0.7145   -0.8250    0.0000 C   0  0  0  0  0  0  0  2  0  0  0  0
   -1.4289   -0.4125    0.0000 C   0  0  0  0  0  0  0  2  0  0  0  0
   -2.1434   -0.8250    0.0000 C   0  0  0  0  0  0  0  2  0  0  0  0
   -2.8579   -0.4125    0.0000 C   0  0  0  0  0  0  0  2  0  0  0  0
   -2.8579    0.4125    0.0000 C   0  0  0  0  0  0  0  2  0  0  0  0
   -2.1434    0.8250    0.0000 C   0  0  0  0  0  0  0  2  0  0  0  0
   -1.4289    0.4125    0.0000 C   0  0  0  0  0  0  0  2  0  0  0  0
  1  2  1  0        0
  2  3  1  0        0
  3  4  4  0        0
  4  5  4  0        0
  5  6  4  0        0
  6  7  4  0        0
  7  8  4  0        0
  3  8  4  0        0
  1  9  1  0        0
  9 10  1  0        0
 10 11  4  0        0
 11 12  4  0        0
 12 13  4  0        0
 13 14  4  0        0
 14 15  4  0        0
 10 15  4  0        0
M  END
$$$$

CDXL12

  9  9  0  0  0  0  0  0  0  0999 V2000
    1.7862   -0.8250    0.0000 Br  0  0  0  0  0  0  0  2  0  0  0  0
    1.0717   -0.4125    0.0000 C   0  0  0  0  0  0  0  2  0  0  0  0
    0.3572   -0.8250    0.0000 C   0  0  0  0  0  0  0  2  0  0  0  0
   -0.3572   -0.4125    0.0000 C   0  0  0  0  0  0  0  2  0  0  0  0
   -1.0717   -0.8250    0.0000 C   0  0  0  0  0  0  0  2  0  0  0  0
   -1.7862   -0.4125    0.0000 C   0  0  0  0  0  0  0  2  0  0  0  0
   -1.7862    0.4125    0.0000 C   0  0  0  0  0  0  0  2  0  0  0  0
   -1.0717    0.8250    0.0000 C   0  0  0  0  0  0  0  2  0  0  0  0
   -0.3572    0.4125    0.0000 C   0  0  0  0  0  0  0  2  0  0  0  0
  1  2  1  0        0
  2  3  1  0        0
  3  4  1  0        0
  4  5  4  0        0
  5  6  4  0        0
  6  7  4  0        0
  7  8  4  0        0
  8  9  4  0        0
  4  9  4  0        0
M  END
$$$$

CDXL12

  9  9  0  0  0  0  0  0  0  0999 V2000
   -0.3572   -0.4125    0.0000 C   0  0  0  0  0  0  0  2  0  0  0  0
   -1.0717   -0.8250    0.0000 C   0  0  0  0  0  0  0  2  0  0  0  0
   -1.7862   -0.4125    0.0000 C   0  0  0  0  0  0  0  2  0  0  0  0
   -1.7862    0.4125    0.0000 C   0  0  0  0  0  0  0  2  0  0  0  0
   -1.0717    0.8250    0.0000 C   0  0  0  0  0  0  0  2  0  0  0  0
   -0.3572    0.4125    0.0000 C   0  0  0  0  0  0  0  2  0  0  0  0
    0.3572   -0.8250    0.0000 C   0  0  0  0  0  0  0  2  0  0  0  0
    1.0717   -0.4125    0.0000 C   0  0  0  0  0  0  0  2  0  0  0  0
    1.7862   -0.8250    0.0000 C   0  0  0  0  0  0  0  2  0  0  0  0
  1  2  4  0        0
  2  3  4  0        0
  3  4  4  0        0
  4  5  4  0        0
  5  6  4  0        0
  1  6  4  0        0
  1  7  1  0        0
  7  8  1  0        0
  8  9  1  0        0
M  END
$$$$

CDXL12

  9  9  0  0  0  0  0  0  0  0999 V2000
    0.3572   -0.8250    0.0000 N   0  0  0  0  0  0  0  2  0  0  0  0
   -0.3572   -0.4125    0.0000 C   0  0  0  0  0  0  0  2  0  0  0  0
   -1.0717   -0.8250    0.0000 C   0  0  0  0  0  0  0  2  0  0  0  0
   -1.7862   -0.4125    0.0000 C   0  0  0  0  0  0  0  2  0  0  0  0
   -1.7862    0.4125    0.0000 C   0  0  0  0  0  0  0  2  0  0  0  0
   -1.0717    0.8250    0.0000 C   0  0  0  0  0  0  0  2  0  0  0  0
   -0.3572    0.4125    0.0000 C   0  0  0  0  0  0  0  2  0  0  0  0
    1.0717   -0.4125    0.0000 C   0  0  0  0  0  0  0  2  0  0  0  0
    1.7862   -0.8250    0.0000 C   0  0  0  0  0  0  0  2  0  0  0  0
  1  2  1  0        0
  2  3  4  0        0
  3  4  4  0        0
  4  5  4  0        0
  5  6  4  0        0
  6  7  4  0        0
  2  7  4  0        0
  1  8  1  0        0
  8  9  1  0        0
M  END
$$$$

CDXL12

  9  9  0  0  0  0  0  0  0  0999 V2000
    0.3572   -0.8250    0.0000 N   0  0  0  0  0  0  0  2  0  0  0  0
   -0.3572   -0.4125    0.0000 C   0  0  0  0  0  0  0  2  0  0  0  0
   -1.0717   -0.8250    0.0000 C   0  0  0  0  0  0  0  2  0  0  0  0
   -1.7862   -0.4125    0.0000 C   0  0  0  0  0  0  0  2  0  0  0  0
   -1.7862    0.4125    0.0000 C   0  0  0  0  0  0  0  2  0  0  0  0
   -1.0717    0.8250    0.0000 C   0  0  0  0  0  0  0  2  0  0  0  0
   -0.3572    0.4125    0.0000 C   0  0  0  0  0  0  0  2  0  0  0  0
    1.0717   -0.4125    0.0000 C   0  0  0  0  0  0  0  2  0  0  0  0
    1.7862    0.0000    0.0000 S   0  0  0  0  0  0  0  2  0  0  0  0
  1  2  1  0        0
  2  3  4  0        0
  3  4  4  0        0
  4  5  4  0        0
  5  6  4  0        0
  6  7  4  0        0
  2  7  4  0        0
  1  8  2  0        0
  8  9  2  0        0
M  END
$$$$

CDXL12

  9  9  0  0  0  0  0  0  0  0999 V2000
    0.3572   -0.8250    0.0000 O   0  0  0  0  0  0  0  2  0  0  0  0
   -0.3572   -0.4125    0.0000 C   0  0  0  0  0  0  0  2  0  0  0  0
   -1.0717   -0.8250    0.0000 C   0  0  0  0  0  0  0  2  0  0  0  0
   -1.7862   -0.4125    0.0000 C   0  0  0  0  0  0  0  2  0  0  0  0
   -1.7862    0.4125    0.0000 C   0  0  0  0  0  0  0  2  0  0  0  0
   -1.0717    0.8250    0.0000 C   0  0  0  0  0  0  0  2  0  0  0  0
   -0.3572    0.4125    0.0000 C   0  0  0  0  0  0  0  2  0  0  0  0
    1.0717   -0.4125    0.0000 C   0  0  0  0  0  0  0  2  0  0  0  0
    1.7862   -0.8250    0.0000 C   0  0  0  0  0  0  0  2  0  0  0  0
  1  2  1  0        0
  2  3  4  0        0
  3  4  4  0        0
  4  5  4  0        0
  5  6  4  0        0
  6  7  4  0        0
  2  7  4  0        0
  1  8  1  0        0
  8  9  1  0        0
M  END
$$$$

CDXL12

 10 10  0  0  0  0  0  0  0  0999 V2000
    1.0717    0.4125    0.0000 O   0  0  0  0  0  0  0  2  0  0  0  0
    1.0717   -0.4125    0.0000 C   0  0  0  0  0  0  0  2  0  0  0  0
    1.7862   -0.8250    0.0000 O   0  0  0  0  0  0  0  2  0  0  0  0
    0.3572   -0.8250    0.0000 C   0  0  0  0  0  0  0  2  0  0  0  0
   -0.3572   -0.4125    0.0000 C   0  0  0  0  0  0  0  2  0  0  0  0
   -1.0717   -0.8250    0.0000 C   0  0  0  0  0  0  0  2  0  0  0  0
   -1.7862   -0.4125    0.0000 C   0  0  0  0  0  0  0  2  0  0  0  0
   -1.7862    0.4125    0.0000 C   0  0  0  0  0  0  0  2  0  0  0  0
   -1.0717    0.8250    0.0000 C   0  0  0  0  0  0  0  2  0  0  0  0
   -0.3572    0.4125    0.0000 C   0  0  0  0  0  0  0  2  0  0  0  0
  1  2  2  0        0
  2  3  1  0        0
  2  4  1  0        0
  4  5  1  0        0
  5  6  4  0        0
  6  7  4  0        0
  7  8  4  0        0
  8  9  4  0        0
  9 10  4  0        0
  5 10  4  0        0
M  END
$$$$

CDXL12

 10 10  0  0  0  0  0  0  0  0999 V2000
   -1.0717   -0.4125    0.0000 N   0  0  0  0  0  0  0  2  0  0  0  0
   -0.3572   -0.8250    0.0000 C   0  0  0  0  0  0  0  2  0  0  0  0
    0.3572   -0.4125    0.0000 C   0  0  0  0  0  0  0  2  0  0  0  0
    0.3572    0.4125    0.0000 C   0  0  0  0  0  0  0  2  0  0  0  0
    1.0717    0.8250    0.0000 C   0  0  0  0  0  0  0  2  0  0  0  0
    1.7862    0.4125    0.0000 C   0  0  0  0  0  0  0  2  0  0  0  0
    1.7862   -0.4125    0.0000 C   0  0  0  0  0  0  0  2  0  0  0  0
    1.0717   -0.8250    0.0000 C   0  0  0  0  0  0  0  2  0  0  0  0
   -1.7862   -0.8250    0.0000 C   0  0  0  0  0  0  0  2  0  0  0  0
   -1.0717    0.4125    0.0000 C   0  0  0  0  0  0  0  2  0  0  0  0
  1  2  1  0        0
  2  3  1  0        0
  3  4  4  0        0
  4  5  4  0        0
  5  6  4  0        0
  6  7  4  0        0
  7  8  4  0        0
  3  8  4  0        0
  1  9  1  0        0
  1 10  1  0        0
M  END
$$$$

CDXL12

 10 10  0  0  0  0  0  0  0  0999 V2000
   -1.0717    0.4125    0.0000 O   0  0  0  0  0  0  0  2  0  0  0  0
   -1.0717   -0.4125    0.0000 C   0  0  0  0  0  0  0  2  0  0  0  0
   -0.3572   -0.8250    0.0000 N   0  0  0  0  0  0  0  2  0  0  0  0
    0.3572   -0.4125    0.0000 C   0  0  0  0  0  0  0  2  0  0  0  0
    1.0717   -0.8250    0.0000 C   0  0  0  0  0  0  0  2  0  0  0  0
    1.7862   -0.4125    0.0000 C   0  0  0  0  0  0  0  2  0  0  0  0
    1.7862    0.4125    0.0000 C   0  0  0  0  0  0  0  2  0  0  0  0
    1.0717    0.8250    0.0000 C   0  0  0  0  0  0  0  2  0  0  0  0
    0.3572    0.4125    0.0000 C   0  0  0  0  0  0  0  2  0  0  0  0
   -1.7862   -0.8250    0.0000 C   0  0  0  0  0  0  0  2  0  0  0  0
  1  2  2  0        0
  2  3  1  0        0
  3  4  1  0        0
  4  5  4  0        0
  5  6  4  0        0
  6  7  4  0        0
  7  8  4  0        0
  8  9  4  0        0
  4  9  4  0        0
  2 10  1  0        0
M  END
$$$$

CDXL12

 10 10  0  0  0  0  0  0  0  0999 V2000
    1.7862   -0.8250    0.0000 N   0  0  0  0  0  0  0  2  0  0  0  0
    1.0717   -0.4125    0.0000 C   0  0  0  0  0  0  0  2  0  0  0  0
    1.0717    0.4125    0.0000 S   0  0  0  0  0  0  0  2  0  0  0  0
    0.3572   -0.8250    0.0000 N   0  0  0  0  0  0  0  2  0  0  0  0
   -0.3572   -0.4125    0.0000 C   0  0  0  0  0  0  0  2  0  0  0  0
   -0.3572    0.4125    0.0000 C   0  0  0  0  0  0  0  2  0  0  0  0
   -1.0717    0.8250    0.0000 C   0  0  0  0  0  0  0  2  0  0  0  0
   -1.7862    0.4125    0.0000 C   0  0  0  0  0  0  0  2  0  0  0  0
   -1.7862   -0.4125    0.0000 C   0  0  0  0  0  0  0  2  0  0  0  0
   -1.0717   -0.8250    0.0000 C   0  0  0  0  0  0  0  2  0  0  0  0
  1  2  1  0        0
  2  3  2  0        0
  2  4  1  0        0
  4  5  1  0        0
  5  6  4  0        0
  6  7  4  0        0
  7  8  4  0        0
  8  9  4  0        0
  9 10  4  0        0
  5 10  4  0        0
M  END
$$$$

CDXL12

 11 11  0  0  0  0  0  0  0  0999 V2000
   -1.4289    0.4125    0.0000 O   0  0  0  0  0  0  0  2  0  0  0  0
   -1.4289   -0.4125    0.0000 C   0  0  0  0  0  0  0  2  0  0  0  0
   -0.7145   -0.8250    0.0000 N   0  0  0  0  0  0  0  2  0  0  0  0
   -0.0000   -0.4125    0.0000 C   0  0  0  0  0  0  0  2  0  0  0  0
    0.7145   -0.8250    0.0000 C   0  0  0  0  0  0  0  2  0  0  0  0
    1.4289   -0.4125    0.0000 C   0  0  0  0  0  0  0  2  0  0  0  0
    1.4289    0.4125    0.0000 C   0  0  0  0  0  0  0  2  0  0  0  0
    2.1434    0.8250    0.0000 O   0  0  0  0  0  0  0  2  0  0  0  0
    0.7145    0.8250    0.0000 C   0  0  0  0  0  0  0  2  0  0  0  0
   -0.0000    0.4125    0.0000 C   0  0  0  0  0  0  0  2  0  0  0  0
   -2.1434   -0.8250    0.0000 C   0  0  0  0  0  0  0  2  0  0  0  0
  1  2  2  0        0
  2  3  1  0        0
  3  4  1  0        0
  4  5  4  0        0
  5  6  4  0        0
  6  7  4  0        0
  7  8  1  0        0
  7  9  4  0        0
  9 10  4  0        0
  4 10  4  0        0
  2 11  1  0        0
M  END
$$$$

CDXL12

 13 13  0  0  0  0  0  0  0  0999 V2000
   -1.7862    0.0000    0.0000 O   0  0  0  0  0  0  0  2  0  0  0  0
   -1.7862   -0.8250    0.0000 C   0  0  0  0  0  0  0  2  0  0  0  0
   -1.0717   -1.2375    0.0000 N   0  0  0  0  0  0  0  2  0  0  0  0
   -0.3572   -0.8250    0.0000 C   0  0  0  0  0  0  0  2  0  0  0  0
    0.3572   -1.2375    0.0000 C   0  0  0  0  0  0  0  2  0  0  0  0
    1.0717   -0.8250    0.0000 C   0  0  0  0  0  0  0  2  0  0  0  0
    1.0717    0.0000    0.0000 C   0  0  0  0  0  0  0  2  0  0  0  0
    1.7862    0.4125    0.0000 N   0  0  0  0  0  0  0  2  0  0  0  0
    1.7862    1.2375    0.0000 O   0  0  0  0  0  0  0  2  0  0  0  0
    2.5006    0.0000    0.0000 O   0  0  0  0  0  0  0  2  0  0  0  0
    0.3572    0.4125    0.0000 C   0  0  0  0  0  0  0  2  0  0  0  0
   -0.3572    0.0000    0.0000 C   0  0  0  0  0  0  0  2  0  0  0  0
   -2.5006   -1.2375    0.0000 C   0  0  0  0  0  0  0  2  0  0  0  0
  1  2  2  0        0
  2  3  1  0        0
  3  4  1  0        0
  4  5  4  0        0
  5  6  4  0        0
  6  7  4  0        0
  7  8  1  0        0
  8  9  2  0        0
  8 10  2  0        0
  7 11  4  0        0
 11 12  4  0        0
  4 12  4  0        0
  2 13  1  0        0
M  END
$$$$

CDXL12

 16 16  0  0  0  0  0  0  0  0999 V2000
   -0.7145   -0.8250    0.0000 C   0  0  0  0  0  0  0  2  0  0  0  0
   -1.4289   -0.4125    0.0000 C   0  0  0  0  0  0  0  2  0  0  0  0
   -1.4289    0.4125    0.0000 C   0  0  0  0  0  0  0  2  0  0  0  0
   -2.1434    0.8250    0.0000 N   0  0  0  0  0  0  0  2  0  0  0  0
   -2.8579    0.4125    0.0000 C   0  0  0  0  0  0  0  2  0  0  0  0
   -2.8579   -0.4125    0.0000 O   0  0  0  0  0  0  0  2  0  0  0  0
   -3.5724    0.8250    0.0000 C   0  0  0  0  0  0  0  2  0  0  0  0
   -0.7145    0.8250    0.0000 C   0  0  0  0  0  0  0  2  0  0  0  0
    0.0000    0.4125    0.0000 C   0  0  0  0  0  0  0  2  0  0  0  0
    0.0000   -0.4125    0.0000 C   0  0  0  0  0  0  0  2  0  0  0  0
    0.7145   -0.8250    0.0000 C   0  0  0  0  0  0  0  2  0  0  0  0
    1.4289   -0.4125    0.0000 N   0  0  0  0  0  0  0  2  0  0  0  0
    2.1434   -0.8250    0.0000 N   0  0  0  0  0  0  0  2  0  0  0  0
    2.8579   -0.4125    0.0000 C   0  0  0  0  0  0  0  2  0  0  0  0
    2.8579    0.4125    0.0000 S   0  0  0  0  0  0  0  2  0  0  0  0
    3.5724   -0.8250    0.0000 N   0  0  0  0  0  0  0  2  0  0  0  0
  1  2  4  0        0
  2  3  4  0        0
  3  4  1  0        0
  4  5  1  0        0
  5  6  2  0        0
  5  7  1  0        0
  3  8  4  0        0
  8  9  4  0        0
  9 10  4  0        0
  1 10  4  0        0
 10 11  1  0        0
 11 12  2  0        0
 12 13  1  0        0
 13 14  1  0        0
 14 15  2  0        0
 14 16  1  0        0
M  END
$$$$

CDXL12

 11 11  0  0  0  0  0  0  0  0999 V2000
    1.4842   -0.2467    0.0000 O   0  0  0  0  0  0  0  2  0  0  0  0
    1.0717    0.4678    0.0000 S   0  0  0  0  0  0  0  2  0  0  0  0
    0.6592    1.1822    0.0000 O   0  0  0  0  0  0  0  2  0  0  0  0
    1.7862    0.8803    0.0000 O   0  0  0  0  0  0  0  2  0  0  0  0
    0.3572    0.0553    0.0000 C   0  0  0  0  0  0  0  2  0  0  0  0
    0.3572   -0.7697    0.0000 C   0  0  0  0  0  0  0  2  0  0  0  0
   -0.3572   -1.1822    0.0000 C   0  0  0  0  0  0  0  2  0  0  0  0
   -1.0717   -0.7697    0.0000 C   0  0  0  0  0  0  0  2  0  0  0  0
   -1.0717    0.0553    0.0000 C   0  0  0  0  0  0  0  2  0  0  0  0
   -0.3572    0.4678    0.0000 C   0  0  0  0  0  0  0  2  0  0  0  0
   -1.7862   -1.1822    0.0000 C   0  0  0  0  0  0  0  2  0  0  0  0
  1  2  2  0        0
  2  3  2  0        0
  2  4  1  0        0
  2  5  1  0        0
  5  6  4  0        0
  6  7  4  0        0
  7  8  4  0        0
  8  9  4  0        0
  9 10  4  0        0
  5 10  4  0        0
  8 11  1  0        0
M  END
$$$$

CDXL12

 11 11  0  0  0  0  0  0  0  0999 V2000
   -1.7862    0.8250    0.0000 O   0  0  0  0  0  0  0  2  0  0  0  0
   -1.0717    0.4125    0.0000 C   0  0  0  0  0  0  0  2  0  0  0  0
   -0.3572    0.8250    0.0000 C   0  0  0  0  0  0  0  2  0  0  0  0
    0.3572    0.4125    0.0000 C   0  0  0  0  0  0  0  2  0  0  0  0
    0.3572   -0.4125    0.0000 C   0  0  0  0  0  0  0  2  0  0  0  0
   -0.3572   -0.8250    0.0000 C   0  0  0  0  0  0  0  2  0  0  0  0
   -1.0717   -0.4125    0.0000 C   0  0  0  0  0  0  0  2  0  0  0  0
    1.0717   -0.8250    0.0000 C   0  0  0  0  0  0  0  2  0  0  0  0
    1.7862   -0.4125    0.0000 C   0  0  0  0  0  0  0  2  0  0  0  0
    2.5006   -0.8250    0.0000 C   0  0  0  0  0  0  0  2  0  0  0  0
   -2.5006    0.4125    0.0000 C   0  0  0  0  0  0  0  2  0  0  0  0
  1  2  1  0        0
  2  3  4  0        0
  3  4  4  0        0
  4  5  4  0        0
  5  6  4  0        0
  6  7  4  0        0
  2  7  4  0        0
  5  8  1  0        0
  8  9  2  0        0
  9 10  1  0        0
  1 11  1  0        0
M  END
$$$$

CDXL12

 10 10  0  0  0  0  0  0  0  0999 V2000
    0.7145   -0.4125    0.0000 C   0  0  0  0  0  0  0  2  0  0  0  0
    0.7145    0.4125    0.0000 C   0  0  0  0  0  0  0  2  0  0  0  0
    1.4289    0.8250    0.0000 C   0  0  0  0  0  0  0  2  0  0  0  0
    2.1434    0.4125    0.0000 C   0  0  0  0  0  0  0  2  0  0  0  0
    2.1434   -0.4125    0.0000 C   0  0  0  0  0  0  0  2  0  0  0  0
    1.4289   -0.8250    0.0000 C   0  0  0  0  0  0  0  2  0  0  0  0
    0.0000   -0.8250    0.0000 C   0  0  0  0  0  0  0  2  0  0  0  0
   -0.7145   -0.4125    0.0000 C   0  0  0  0  0  0  0  2  0  0  0  0
   -1.4289   -0.8250    0.0000 C   0  0  0  0  0  0  0  2  0  0  0  0
   -2.1434   -0.4125    0.0000 C   0  0  0  0  0  0  0  2  0  0  0  0
  1  2  4  0        0
  2  3  4  0        0
  3  4  4  0        0
  4  5  4  0        0
  5  6  4  0        0
  1  6  4  0        0
  1  7  1  0        0
  7  8  1  0        0
  8  9  1  0        0
  9 10  1  0        0
M  END
$$$$

CDXL12

 10 10  0  0  0  0  0  0  0  0999 V2000
    2.1434   -0.4125    0.0000 O   0  0  0  0  0  0  0  2  0  0  0  0
    1.4289   -0.8250    0.0000 C   0  0  0  0  0  0  0  2  0  0  0  0
    0.7145   -0.4125    0.0000 C   0  0  0  0  0  0  0  2  0  0  0  0
    0.0000   -0.8250    0.0000 C   0  0  0  0  0  0  0  2  0  0  0  0
   -0.7145   -0.4125    0.0000 C   0  0  0  0  0  0  0  2  0  0  0  0
   -1.4289   -0.8250    0.0000 C   0  0  0  0  0  0  0  2  0  0  0  0
   -2.1434   -0.4125    0.0000 C   0  0  0  0  0  0  0  2  0  0  0  0
   -2.1434    0.4125    0.0000 C   0  0  0  0  0  0  0  2  0  0  0  0
   -1.4289    0.8250    0.0000 C   0  0  0  0  0  0  0  2  0  0  0  0
   -0.7145    0.4125    0.0000 C   0  0  0  0  0  0  0  2  0  0  0  0
  1  2  2  0        0
  2  3  1  0        0
  3  4  2  0        0
  4  5  1  0        0
  5  6  4  0        0
  6  7  4  0        0
  7  8  4  0        0
  8  9  4  0        0
  9 10  4  0        0
  5 10  4  0        0
M  END
$$$$

CDXL12

 16 16  0  0  0  0  0  0  0  0999 V2000
    2.8579   -0.4125    0.0000 C   0  0  0  0  0  0  0  2  0  0  0  0
    2.8579    0.4125    0.0000 C   0  0  0  0  0  0  0  2  0  0  0  0
    3.5724    0.8250    0.0000 C   0  0  0  0  0  0  0  2  0  0  0  0
    4.2868    0.4125    0.0000 C   0  0  0  0  0  0  0  2  0  0  0  0
    4.2868   -0.4125    0.0000 C   0  0  0  0  0  0  0  2  0  0  0  0
    3.5724   -0.8250    0.0000 C   0  0  0  0  0  0  0  2  0  0  0  0
    2.1434   -0.8250    0.0000 C   0  0  0  0  0  0  0  2  0  0  0  0
    1.4289   -0.4125    0.0000 C   0  0  0  0  0  0  0  2  0  0  0  0
    0.7145   -0.8250    0.0000 C   0  0  0  0  0  0  0  2  0  0  0  0
    0.0000   -0.4125    0.0000 C   0  0  0  0  0  0  0  2  0  0  0  0
   -0.7145   -0.8250    0.0000 C   0  0  0  0  0  0  0  2  0  0  0  0
   -1.4289   -0.4125    0.0000 C   0  0  0  0  0  0  0  2  0  0  0  0
   -2.1434   -0.8250    0.0000 C   0  0  0  0  0  0  0  2  0  0  0  0
   -2.8579   -0.4125    0.0000 C   0  0  0  0  0  0  0  2  0  0  0  0
   -3.5724   -0.8250    0.0000 C   0  0  0  0  0  0  0  2  0  0  0  0
   -4.2868   -0.4125    0.0000 C   0  0  0  0  0  0  0  2  0  0  0  0
  1  2  4  0        0
  2  3  4  0        0
  3  4  4  0        0
  4  5  4  0        0
  5  6  4  0        0
  1  6  4  0        0
  1  7  1  0        0
  7  8  1  0        0
  8  9  1  0        0
  9 10  1  0        0
 10 11  1  0        0
 11 12  1  0        0
 12 13  1  0        0
 13 14  1  0        0
 14 15  1  0        0
 15 16  1  0        0
M  END
$$$$

CDXL12

  9  9  0  0  0  0  0  0  0  0999 V2000
    1.7862   -0.4125    0.0000 O   0  0  0  0  0  0  0  2  0  0  0  0
    1.0717   -0.8250    0.0000 C   0  0  0  0  0  0  0  2  0  0  0  0
    0.3572   -0.4125    0.0000 C   0  0  0  0  0  0  0  2  0  0  0  0
   -0.3572   -0.8250    0.0000 C   0  0  0  0  0  0  0  2  0  0  0  0
   -1.0717   -0.4125    0.0000 C   0  0  0  0  0  0  0  2  0  0  0  0
   -1.0717    0.4125    0.0000 C   0  0  0  0  0  0  0  2  0  0  0  0
   -0.3572    0.8250    0.0000 C   0  0  0  0  0  0  0  2  0  0  0  0
    0.3572    0.4125    0.0000 C   0  0  0  0  0  0  0  2  0  0  0  0
   -1.7862    0.8250    0.0000 C   0  0  0  0  0  0  0  2  0  0  0  0
  1  2  2  0        0
  2  3  1  0        0
  3  4  4  0        0
  4  5  4  0        0
  5  6  4  0        0
  6  7  4  0        0
  7  8  4  0        0
  3  8  4  0        0
  6  9  1  0        0
M  END
$$$$

CDXL12

  9  9  0  0  0  0  0  0  0  0999 V2000
   -1.0717   -0.4125    0.0000 N   0  0  0  0  0  0  0  2  0  0  0  0
   -1.0717    0.4125    0.0000 C   0  0  0  0  0  0  0  2  0  0  0  0
   -0.3572    0.8250    0.0000 C   0  0  0  0  0  0  0  2  0  0  0  0
    0.3572    0.4125    0.0000 C   0  0  0  0  0  0  0  2  0  0  0  0
    0.3572   -0.4125    0.0000 C   0  0  0  0  0  0  0  2  0  0  0  0
    1.0717   -0.8250    0.0000 C   0  0  0  0  0  0  0  2  0  0  0  0
    1.7862   -0.4125    0.0000 C   0  0  0  0  0  0  0  2  0  0  0  0
   -0.3572   -0.8250    0.0000 C   0  0  0  0  0  0  0  2  0  0  0  0
   -1.7862    0.8250    0.0000 C   0  0  0  0  0  0  0  2  0  0  0  0
  1  2  4  0        0
  2  3  4  0        0
  3  4  4  0        0
  4  5  4  0        0
  5  6  1  0        0
  6  7  1  0        0
  5  8  4  0        0
  1  8  4  0        0
  2  9  1  0        0
M  END
$$$$

CDXL12

 10 10  0  0  0  0  0  0  0  0999 V2000
   -0.7145    0.4125    0.0000 C   0  0  0  0  0  0  0  2  0  0  0  0
    0.0000    0.8250    0.0000 C   0  0  0  0  0  0  0  2  0  0  0  0
    0.7145    0.4125    0.0000 C   0  0  0  0  0  0  0  2  0  0  0  0
    0.7145   -0.4125    0.0000 C   0  0  0  0  0  0  0  2  0  0  0  0
    0.0000   -0.8250    0.0000 C   0  0  0  0  0  0  0  2  0  0  0  0
   -0.7145   -0.4125    0.0000 C   0  0  0  0  0  0  0  2  0  0  0  0
    1.4289   -0.8250    0.0000 C   0  0  0  0  0  0  0  2  0  0  0  0
    2.1434   -0.4125    0.0000 C   0  0  0  0  0  0  0  2  0  0  0  0
   -1.4289    0.8250    0.0000 C   0  0  0  0  0  0  0  2  0  0  0  0
   -2.1434    0.4125    0.0000 C   0  0  0  0  0  0  0  2  0  0  0  0
  1  2  4  0        0
  2  3  4  0        0
  3  4  4  0        0
  4  5  4  0        0
  5  6  4  0        0
  1  6  4  0        0
  4  7  1  0        0
  7  8  1  0        0
  1  9  1  0        0
  9 10  1  0        0
M  END
$$$$

CDXL12

  7  6  0  0  0  0  0  0  0  0999 V2000
    1.7862   -0.2062    0.0000 O   0  0  0  0  0  0  0  2  0  0  0  0
    1.0717   -0.6187    0.0000 C   0  0  0  0  0  0  0  2  0  0  0  0
    0.3572   -0.2062    0.0000 C   0  0  0  0  0  0  0  2  0  0  0  0
   -0.3572   -0.6187    0.0000 C   0  0  0  0  0  0  0  2  0  0  0  0
   -1.0717   -0.2062    0.0000 C   0  0  0  0  0  0  0  2  0  0  0  0
   -1.7862   -0.6187    0.0000 C   0  0  0  0  0  0  0  2  0  0  0  0
    0.3572    0.6187    0.0000 C   0  0  0  0  0  0  0  2  0  0  0  0
  1  2  1  0        0
  2  3  1  0        0
  3  4  1  0        0
  4  5  1  0        0
  5  6  1  0        0
  3  7  1  0        0
M  END
$$$$

CDXL12

  7  6  0  0  0  0  0  0  0  0999 V2000
    0.3572    0.8250    0.0000 O   0  0  0  0  0  0  0  2  0  0  0  0
    0.3572    0.0000    0.0000 C   0  0  0  0  0  0  0  2  0  0  0  0
    1.0717   -0.4125    0.0000 C   0  0  0  0  0  0  0  2  0  0  0  0
    1.7862   -0.8250    0.0000 C   0  0  0  0  0  0  0  2  0  0  0  0
   -0.3572   -0.4125    0.0000 C   0  0  0  0  0  0  0  2  0  0  0  0
   -1.0717    0.0000    0.0000 C   0  0  0  0  0  0  0  2  0  0  0  0
   -1.7862   -0.4125    0.0000 C   0  0  0  0  0  0  0  2  0  0  0  0
  1  2  1  0        0
  2  3  1  0        0
  3  4  3  0        0
  2  5  1  0        0
  5  6  1  0        0
  6  7  1  0        0
M  END
$$$$

CDXL12

  7  6  0  0  0  0  0  0  0  0999 V2000
   -0.3572    0.6187    0.0000 O   0  0  0  0  0  0  0  2  0  0  0  0
   -0.3572   -0.2062    0.0000 C   0  0  0  0  0  0  0  2  0  0  0  0
    0.3572   -0.6187    0.0000 O   0  0  0  0  0  0  0  2  0  0  0  0
    1.0717   -0.2062    0.0000 C   0  0  0  0  0  0  0  2  0  0  0  0
    1.7862   -0.6187    0.0000 C   0  0  0  0  0  0  0  2  0  0  0  0
   -1.0717   -0.6187    0.0000 C   0  0  0  0  0  0  0  2  0  0  0  0
   -1.7862   -0.2062    0.0000 Cl  0  0  0  0  0  0  0  2  0  0  0  0
  1  2  2  0        0
  2  3  1  0        0
  3  4  1  0        0
  4  5  1  0        0
  2  6  1  0        0
  6  7  1  0        0
M  END
$$$$

CDXL12

  7  6  0  0  0  0  0  0  0  0999 V2000
   -0.3572    0.6187    0.0000 O   0  0  0  0  0  0  0  2  0  0  0  0
   -0.3572   -0.2062    0.0000 C   0  0  0  0  0  0  0  2  0  0  0  0
    0.3572   -0.6187    0.0000 O   0  0  0  0  0  0  0  2  0  0  0  0
    1.0717   -0.2062    0.0000 C   0  0  0  0  0  0  0  2  0  0  0  0
    1.7862   -0.6187    0.0000 C   0  0  0  0  0  0  0  2  0  0  0  0
   -1.0717   -0.6187    0.0000 N   0  0  0  0  0  0  0  2  0  0  0  0
   -1.7862   -0.2062    0.0000 C   0  0  0  0  0  0  0  2  0  0  0  0
  1  2  2  0        0
  2  3  1  0        0
  3  4  1  0        0
  4  5  1  0        0
  2  6  1  0        0
  6  7  1  0        0
M  END
$$$$

CDXL12

  8  7  0  0  0  0  0  0  0  0999 V2000
   -1.0717    0.6187    0.0000 O   0  0  0  0  0  0  0  2  0  0  0  0
   -1.0717   -0.2062    0.0000 C   0  0  0  0  0  0  0  2  0  0  0  0
   -0.3572   -0.6187    0.0000 O   0  0  0  0  0  0  0  2  0  0  0  0
    0.3572   -0.2062    0.0000 C   0  0  0  0  0  0  0  2  0  0  0  0
    1.0717   -0.6187    0.0000 C   0  0  0  0  0  0  0  2  0  0  0  0
    1.7862   -0.2062    0.0000 C   0  0  0  0  0  0  0  2  0  0  0  0
    0.3572    0.6187    0.0000 C   0  0  0  0  0  0  0  2  0  0  0  0
   -1.7862   -0.6187    0.0000 C   0  0  0  0  0  0  0  2  0  0  0  0
  1  2  2  0        0
  2  3  1  0        0
  3  4  1  0        0
  4  5  1  0        0
  5  6  1  0        0
  4  7  1  0        0
  2  8  1  0        0
M  END
$$$$

CDXL12

  8  7  0  0  0  0  0  0  0  0999 V2000
    0.0000    0.6188    0.0000 O   0  0  0  0  0  0  0  2  0  0  0  0
    0.0000   -0.2062    0.0000 C   0  0  0  0  0  0  0  2  0  0  0  0
    0.7145   -0.6187    0.0000 O   0  0  0  0  0  0  0  2  0  0  0  0
    1.4289   -0.2062    0.0000 C   0  0  0  0  0  0  0  2  0  0  0  0
    2.1434   -0.6187    0.0000 C   0  0  0  0  0  0  0  2  0  0  0  0
   -0.7145   -0.6188    0.0000 C   0  0  0  0  0  0  0  2  0  0  0  0
   -1.4289   -0.2062    0.0000 C   0  0  0  0  0  0  0  2  0  0  0  0
   -2.1434   -0.6187    0.0000 C   0  0  0  0  0  0  0  2  0  0  0  0
  1  2  2  0        0
  2  3  1  0        0
  3  4  1  0        0
  4  5  1  0        0
  2  6  1  0        0
  6  7  1  0        0
  7  8  1  0        0
M  END
$$$$

CDXL12

  8  7  0  0  0  0  0  0  0  0999 V2000
    0.7145   -0.6188    0.0000 N   0  0  0  0  0  0  0  2  0  0  0  0
    0.0000   -0.2062    0.0000 C   0  0  0  0  0  0  0  2  0  0  0  0
    0.0000    0.6188    0.0000 S   0  0  0  0  0  0  0  2  0  0  0  0
   -0.7145   -0.6187    0.0000 N   0  0  0  0  0  0  0  2  0  0  0  0
   -1.4289   -0.2062    0.0000 C   0  0  0  0  0  0  0  2  0  0  0  0
   -2.1434   -0.6187    0.0000 C   0  0  0  0  0  0  0  2  0  0  0  0
    1.4289   -0.2062    0.0000 C   0  0  0  0  0  0  0  2  0  0  0  0
    2.1434   -0.6188    0.0000 C   0  0  0  0  0  0  0  2  0  0  0  0
  1  2  1  0        0
  2  3  2  0        0
  2  4  1  0        0
  4  5  1  0        0
  5  6  1  0        0
  1  7  1  0        0
  7  8  1  0        0
M  END
$$$$

CDXL12

  8  7  0  0  0  0  0  0  0  0999 V2000
    0.0000    0.6188    0.0000 O   0  0  0  0  0  0  0  2  0  0  0  0
    0.0000   -0.2062    0.0000 C   0  0  0  0  0  0  0  2  0  0  0  0
    0.7145   -0.6187    0.0000 O   0  0  0  0  0  0  0  2  0  0  0  0
    1.4289   -0.2062    0.0000 C   0  0  0  0  0  0  0  2  0  0  0  0
    2.1434   -0.6187    0.0000 C   0  0  0  0  0  0  0  2  0  0  0  0
   -0.7145   -0.6188    0.0000 C   0  0  0  0  0  0  0  2  0  0  0  0
   -1.4289   -0.2062    0.0000 C   0  0  0  0  0  0  0  2  0  0  0  0
   -2.1434    0.2062    0.0000 N   0  0  0  0  0  0  0  2  0  0  0  0
  1  2  2  0        0
  2  3  1  0        0
  3  4  1  0        0
  4  5  1  0        0
  2  6  1  0        0
  6  7  1  0        0
  7  8  3  0        0
M  END
$$$$

CDXL12

  8  7  0  0  0  0  0  0  0  0999 V2000
    0.7145   -0.6188    0.0000 O   0  0  0  0  0  0  0  2  0  0  0  0
    0.0000   -0.2062    0.0000 C   0  0  0  0  0  0  0  2  0  0  0  0
   -0.7145   -0.6187    0.0000 O   0  0  0  0  0  0  0  2  0  0  0  0
   -1.4289   -0.2062    0.0000 C   0  0  0  0  0  0  0  2  0  0  0  0
   -2.1434   -0.6187    0.0000 C   0  0  0  0  0  0  0  2  0  0  0  0
    0.0000    0.6188    0.0000 C   0  0  0  0  0  0  0  2  0  0  0  0
    1.4289   -0.2062    0.0000 C   0  0  0  0  0  0  0  2  0  0  0  0
    2.1434   -0.6188    0.0000 C   0  0  0  0  0  0  0  2  0  0  0  0
  1  2  1  0        0
  2  3  1  0        0
  3  4  1  0        0
  4  5  1  0        0
  2  6  1  0        0
  1  7  1  0        0
  7  8  1  0        0
M  END
$$$$

CDXL12

  8  7  0  0  0  0  0  0  0  0999 V2000
    0.0000    0.6188    0.0000 O   0  0  0  0  0  0  0  2  0  0  0  0
    0.0000   -0.2062    0.0000 C   0  0  0  0  0  0  0  2  0  0  0  0
   -0.7145   -0.6187    0.0000 O   0  0  0  0  0  0  0  2  0  0  0  0
   -1.4289   -0.2062    0.0000 C   0  0  0  0  0  0  0  2  0  0  0  0
   -2.1434   -0.6187    0.0000 C   0  0  0  0  0  0  0  2  0  0  0  0
    0.7145   -0.6188    0.0000 O   0  0  0  0  0  0  0  2  0  0  0  0
    1.4289   -0.2062    0.0000 C   0  0  0  0  0  0  0  2  0  0  0  0
    2.1434   -0.6188    0.0000 C   0  0  0  0  0  0  0  2  0  0  0  0
  1  2  2  0        0
  2  3  1  0        0
  3  4  1  0        0
  4  5  1  0        0
  2  6  1  0        0
  6  7  1  0        0
  7  8  1  0        0
M  END
$$$$

CDXL12

  8  7  0  0  0  0  0  0  0  0999 V2000
   -2.1434   -0.6187    0.0000 O   0  0  0  0  0  0  0  2  0  0  0  0
   -1.4289   -0.2062    0.0000 C   0  0  0  0  0  0  0  2  0  0  0  0
   -0.7145   -0.6187    0.0000 C   0  0  0  0  0  0  0  2  0  0  0  0
    0.0000   -0.2062    0.0000 N   0  0  0  0  0  0  0  2  0  0  0  0
    0.7145   -0.6188    0.0000 C   0  0  0  0  0  0  0  2  0  0  0  0
    1.4289   -0.2062    0.0000 C   0  0  0  0  0  0  0  2  0  0  0  0
    2.1434   -0.6188    0.0000 O   0  0  0  0  0  0  0  2  0  0  0  0
    0.0000    0.6188    0.0000 C   0  0  0  0  0  0  0  2  0  0  0  0
  1  2  1  0        0
  2  3  1  0        0
  3  4  1  0        0
  4  5  1  0        0
  5  6  1  0        0
  6  7  1  0        0
  4  8  1  0        0
M  END
$$$$

CDXL12

  8  8  0  0  0  0  0  0  0  0999 V2000
    1.1576    0.9819    0.0000 O   0  0  0  0  0  0  0  2  0  0  0  0
    0.5126    0.4675    0.0000 C   0  0  0  0  0  0  0  2  0  0  0  0
    0.6962   -0.3368    0.0000 N   0  0  0  0  0  0  0  2  0  0  0  0
    0.1818   -0.9819    0.0000 C   0  0  0  0  0  0  0  2  0  0  0  0
   -0.6432   -0.9819    0.0000 C   0  0  0  0  0  0  0  2  0  0  0  0
   -1.1576   -0.3368    0.0000 C   0  0  0  0  0  0  0  2  0  0  0  0
   -0.9740    0.4675    0.0000 C   0  0  0  0  0  0  0  2  0  0  0  0
   -0.2307    0.8254    0.0000 C   0  0  0  0  0  0  0  2  0  0  0  0
  1  2  2  0        0
  2  3  1  0        0
  3  4  1  0        0
  4  5  1  0        0
  5  6  1  0        0
  6  7  1  0        0
  7  8  1  0        0
  2  8  1  0        0
M  END
$$$$

CDXL12

  9  8  0  0  0  0  0  0  0  0999 V2000
   -0.3572    0.6188    0.0000 O   0  0  0  0  0  0  0  2  0  0  0  0
   -0.3572   -0.2062    0.0000 C   0  0  0  0  0  0  0  2  0  0  0  0
    0.3572   -0.6188    0.0000 O   0  0  0  0  0  0  0  2  0  0  0  0
    1.0717   -0.2062    0.0000 C   0  0  0  0  0  0  0  2  0  0  0  0
    1.7862   -0.6188    0.0000 C   0  0  0  0  0  0  0  2  0  0  0  0
    2.5006   -0.2062    0.0000 C   0  0  0  0  0  0  0  2  0  0  0  0
   -1.0717   -0.6187    0.0000 C   0  0  0  0  0  0  0  2  0  0  0  0
   -1.7862   -0.2062    0.0000 C   0  0  0  0  0  0  0  2  0  0  0  0
   -2.5006   -0.6187    0.0000 C   0  0  0  0  0  0  0  2  0  0  0  0
  1  2  2  0        0
  2  3  1  0        0
  3  4  1  0        0
  4  5  1  0        0
  5  6  1  0        0
  2  7  1  0        0
  7  8  1  0        0
  8  9  1  0        0
M  END
$$$$

CDXL12

 11 10  0  0  0  0  0  0  0  0999 V2000
   -2.8579   -0.6187    0.0000 O   0  0  0  0  0  0  0  2  0  0  0  0
   -2.1434   -0.2062    0.0000 C   0  0  0  0  0  0  0  2  0  0  0  0
   -1.4289   -0.6187    0.0000 C   0  0  0  0  0  0  0  2  0  0  0  0
   -0.7145   -0.2062    0.0000 C   0  0  0  0  0  0  0  2  0  0  0  0
    0.0000   -0.6187    0.0000 C   0  0  0  0  0  0  0  2  0  0  0  0
    0.7145   -0.2062    0.0000 C   0  0  0  0  0  0  0  2  0  0  0  0
    1.4289   -0.6187    0.0000 C   0  0  0  0  0  0  0  2  0  0  0  0
    2.1434   -0.2062    0.0000 C   0  0  0  0  0  0  0  2  0  0  0  0
    2.1434    0.6187    0.0000 C   0  0  0  0  0  0  0  2  0  0  0  0
    2.8579   -0.6187    0.0000 C   0  0  0  0  0  0  0  2  0  0  0  0
   -0.7145    0.6187    0.0000 C   0  0  0  0  0  0  0  2  0  0  0  0
  1  2  1  0        0
  2  3  1  0        0
  3  4  2  0        0
  4  5  1  0        0
  5  6  1  0        0
  6  7  1  0        0
  7  8  2  0        0
  8  9  1  0        0
  8 10  1  0        0
  4 11  1  0        0
M  END
$$$$

CDXL12

 11 10  0  0  0  0  0  0  0  0999 V2000
    1.0717    0.6187    0.0000 O   0  0  0  0  0  0  0  2  0  0  0  0
    1.0717   -0.2062    0.0000 C   0  0  0  0  0  0  0  2  0  0  0  0
    1.7862   -0.6187    0.0000 O   0  0  0  0  0  0  0  2  0  0  0  0
    2.5006   -0.2062    0.0000 C   0  0  0  0  0  0  0  2  0  0  0  0
    3.2151   -0.6187    0.0000 C   0  0  0  0  0  0  0  2  0  0  0  0
    0.3572   -0.6187    0.0000 C   0  0  0  0  0  0  0  2  0  0  0  0
   -0.3572   -0.2062    0.0000 C   0  0  0  0  0  0  0  2  0  0  0  0
   -1.0717   -0.6187    0.0000 C   0  0  0  0  0  0  0  2  0  0  0  0
   -1.7862   -0.2062    0.0000 C   0  0  0  0  0  0  0  2  0  0  0  0
   -2.5006   -0.6187    0.0000 C   0  0  0  0  0  0  0  2  0  0  0  0
   -3.2151   -0.2062    0.0000 C   0  0  0  0  0  0  0  2  0  0  0  0
  1  2  2  0        0
  2  3  1  0        0
  3  4  1  0        0
  4  5  1  0        0
  2  6  1  0        0
  6  7  1  0        0
  7  8  1  0        0
  8  9  1  0        0
  9 10  1  0        0
 10 11  1  0        0
M  END
$$$$

CDXL12

 12 11  0  0  0  0  0  0  0  0999 V2000
    1.4289    0.6187    0.0000 O   0  0  0  0  0  0  0  2  0  0  0  0
    1.4289   -0.2062    0.0000 C   0  0  0  0  0  0  0  2  0  0  0  0
    2.1434   -0.6187    0.0000 O   0  0  0  0  0  0  0  2  0  0  0  0
    2.8579   -0.2062    0.0000 C   0  0  0  0  0  0  0  2  0  0  0  0
    3.5724   -0.6187    0.0000 C   0  0  0  0  0  0  0  2  0  0  0  0
    0.7145   -0.6187    0.0000 C   0  0  0  0  0  0  0  2  0  0  0  0
    0.0000   -0.2062    0.0000 C   0  0  0  0  0  0  0  2  0  0  0  0
   -0.7145   -0.6187    0.0000 C   0  0  0  0  0  0  0  2  0  0  0  0
   -1.4289   -0.2062    0.0000 C   0  0  0  0  0  0  0  2  0  0  0  0
   -2.1434   -0.6187    0.0000 C   0  0  0  0  0  0  0  2  0  0  0  0
   -2.8579   -0.2062    0.0000 C   0  0  0  0  0  0  0  2  0  0  0  0
   -3.5724   -0.6187    0.0000 C   0  0  0  0  0  0  0  2  0  0  0  0
  1  2  2  0        0
  2  3  1  0        0
  3  4  1  0        0
  4  5  1  0        0
  2  6  1  0        0
  6  7  1  0        0
  7  8  1  0        0
  8  9  1  0        0
  9 10  1  0        0
 10 11  1  0        0
 11 12  1  0        0
M  END
$$$$

CDXL12

  8  7  0  0  0  0  0  0  0  0999 V2000
   -0.7145    0.6188    0.0000 O   0  0  0  0  0  0  0  2  0  0  0  0
   -0.7145   -0.2062    0.0000 C   0  0  0  0  0  0  0  2  0  0  0  0
    0.0000   -0.6188    0.0000 C   0  0  0  0  0  0  0  2  0  0  0  0
    0.7145   -0.2062    0.0000 C   0  0  0  0  0  0  0  2  0  0  0  0
    1.4289   -0.6188    0.0000 C   0  0  0  0  0  0  0  2  0  0  0  0
    2.1434   -0.2062    0.0000 C   0  0  0  0  0  0  0  2  0  0  0  0
   -1.4289   -0.6187    0.0000 C   0  0  0  0  0  0  0  2  0  0  0  0
   -2.1434   -0.2062    0.0000 C   0  0  0  0  0  0  0  2  0  0  0  0
  1  2  2  0        0
  2  3  1  0        0
  3  4  1  0        0
  4  5  1  0        0
  5  6  1  0        0
  2  7  1  0        0
  7  8  1  0        0
M  END
$$$$

CDXL12

  8  8  0  0  0  0  0  0  0  0999 V2000
    0.7145    0.4125    0.0000 C   0  0  0  0  0  0  0  2  0  0  0  0
    0.7145   -0.4125    0.0000 C   0  0  0  0  0  0  0  2  0  0  0  0
    0.0000   -0.8250    0.0000 C   0  0  0  0  0  0  0  2  0  0  0  0
   -0.7145   -0.4125    0.0000 C   0  0  0  0  0  0  0  2  0  0  0  0
   -0.7145    0.4125    0.0000 C   0  0  0  0  0  0  0  2  0  0  0  0
    0.0000    0.8250    0.0000 C   0  0  0  0  0  0  0  2  0  0  0  0
   -1.4289   -0.8250    0.0000 Br  0  0  0  0  0  0  0  2  0  0  0  0
    1.4289    0.8250    0.0000 Br  0  0  0  0  0  0  0  2  0  0  0  0
  1  2  4  0        0
  2  3  4  0        0
  3  4  4  0        0
  4  5  4  0        0
  5  6  4  0        0
  1  6  4  0        0
  4  7  1  0        0
  1  8  1  0        0
M  END
$$$$

CDXL12

  8  8  0  0  0  0  0  0  0  0999 V2000
    0.7145    0.4125    0.0000 C   0  0  0  0  0  0  0  2  0  0  0  0
    0.7145   -0.4125    0.0000 C   0  0  0  0  0  0  0  2  0  0  0  0
    0.0000   -0.8250    0.0000 C   0  0  0  0  0  0  0  2  0  0  0  0
   -0.7145   -0.4125    0.0000 C   0  0  0  0  0  0  0  2  0  0  0  0
   -0.7145    0.4125    0.0000 C   0  0  0  0  0  0  0  2  0  0  0  0
    0.0000    0.8250    0.0000 C   0  0  0  0  0  0  0  2  0  0  0  0
   -1.4289   -0.8250    0.0000 Br  0  0  0  0  0  0  0  2  0  0  0  0
    1.4289    0.8250    0.0000 C   0  0  0  0  0  0  0  2  0  0  0  0
  1  2  4  0        0
  2  3  4  0        0
  3  4  4  0        0
  4  5  4  0        0
  5  6  4  0        0
  1  6  4  0        0
  4  7  1  0        0
  1  8  1  0        0
M  END
$$$$

CDXL12

  8  8  0  0  0  0  0  0  0  0999 V2000
    0.7145    0.4125    0.0000 C   0  0  0  0  0  0  0  2  0  0  0  0
    0.7145   -0.4125    0.0000 C   0  0  0  0  0  0  0  2  0  0  0  0
    0.0000   -0.8250    0.0000 C   0  0  0  0  0  0  0  2  0  0  0  0
   -0.7145   -0.4125    0.0000 C   0  0  0  0  0  0  0  2  0  0  0  0
   -0.7145    0.4125    0.0000 C   0  0  0  0  0  0  0  2  0  0  0  0
    0.0000    0.8250    0.0000 C   0  0  0  0  0  0  0  2  0  0  0  0
   -1.4289   -0.8250    0.0000 Br  0  0  0  0  0  0  0  2  0  0  0  0
    1.4289    0.8250    0.0000 Cl  0  0  0  0  0  0  0  2  0  0  0  0
  1  2  4  0        0
  2  3  4  0        0
  3  4  4  0        0
  4  5  4  0        0
  5  6  4  0        0
  1  6  4  0        0
  4  7  1  0        0
  1  8  1  0        0
M  END
$$$$

CDXL12

  8  8  0  0  0  0  0  0  0  0999 V2000
    1.4289    0.8250    0.0000 O   0  0  0  0  0  0  0  2  0  0  0  0
    0.7145    0.4125    0.0000 C   0  0  0  0  0  0  0  2  0  0  0  0
    0.7145   -0.4125    0.0000 C   0  0  0  0  0  0  0  2  0  0  0  0
    0.0000   -0.8250    0.0000 C   0  0  0  0  0  0  0  2  0  0  0  0
   -0.7145   -0.4125    0.0000 C   0  0  0  0  0  0  0  2  0  0  0  0
   -0.7145    0.4125    0.0000 C   0  0  0  0  0  0  0  2  0  0  0  0
    0.0000    0.8250    0.0000 C   0  0  0  0  0  0  0  2  0  0  0  0
   -1.4289   -0.8250    0.0000 Br  0  0  0  0  0  0  0  2  0  0  0  0
  1  2  1  0        0
  2  3  4  0        0
  3  4  4  0        0
  4  5  4  0        0
  5  6  4  0        0
  6  7  4  0        0
  2  7  4  0        0
  5  8  1  0        0
M  END
$$$$

CDXL12

  8  8  0  0  0  0  0  0  0  0999 V2000
    0.7145    0.4125    0.0000 C   0  0  0  0  0  0  0  2  0  0  0  0
    0.7145   -0.4125    0.0000 C   0  0  0  0  0  0  0  2  0  0  0  0
    0.0000   -0.8250    0.0000 C   0  0  0  0  0  0  0  2  0  0  0  0
   -0.7145   -0.4125    0.0000 C   0  0  0  0  0  0  0  2  0  0  0  0
   -0.7145    0.4125    0.0000 C   0  0  0  0  0  0  0  2  0  0  0  0
    0.0000    0.8250    0.0000 C   0  0  0  0  0  0  0  2  0  0  0  0
   -1.4289   -0.8250    0.0000 C   0  0  0  0  0  0  0  2  0  0  0  0
    1.4289    0.8250    0.0000 C   0  0  0  0  0  0  0  2  0  0  0  0
  1  2  4  0        0
  2  3  4  0        0
  3  4  4  0        0
  4  5  4  0        0
  5  6  4  0        0
  1  6  4  0        0
  4  7  1  0        0
  1  8  1  0        0
M  END
$$$$

CDXL12

  8  8  0  0  0  0  0  0  0  0999 V2000
    0.7145    0.4125    0.0000 C   0  0  0  0  0  0  0  2  0  0  0  0
    0.7145   -0.4125    0.0000 C   0  0  0  0  0  0  0  2  0  0  0  0
    0.0000   -0.8250    0.0000 C   0  0  0  0  0  0  0  2  0  0  0  0
   -0.7145   -0.4125    0.0000 C   0  0  0  0  0  0  0  2  0  0  0  0
   -0.7145    0.4125    0.0000 C   0  0  0  0  0  0  0  2  0  0  0  0
    0.0000    0.8250    0.0000 C   0  0  0  0  0  0  0  2  0  0  0  0
   -1.4289   -0.8250    0.0000 Cl  0  0  0  0  0  0  0  2  0  0  0  0
    1.4289    0.8250    0.0000 C   0  0  0  0  0  0  0  2  0  0  0  0
  1  2  4  0        0
  2  3  4  0        0
  3  4  4  0        0
  4  5  4  0        0
  5  6  4  0        0
  1  6  4  0        0
  4  7  1  0        0
  1  8  1  0        0
M  END
$$$$

CDXL12

  8  8  0  0  0  0  0  0  0  0999 V2000
    1.4289    0.8250    0.0000 O   0  0  0  0  0  0  0  2  0  0  0  0
    0.7145    0.4125    0.0000 C   0  0  0  0  0  0  0  2  0  0  0  0
    0.7145   -0.4125    0.0000 C   0  0  0  0  0  0  0  2  0  0  0  0
    0.0000   -0.8250    0.0000 C   0  0  0  0  0  0  0  2  0  0  0  0
   -0.7145   -0.4125    0.0000 C   0  0  0  0  0  0  0  2  0  0  0  0
   -0.7145    0.4125    0.0000 C   0  0  0  0  0  0  0  2  0  0  0  0
    0.0000    0.8250    0.0000 C   0  0  0  0  0  0  0  2  0  0  0  0
   -1.4289   -0.8250    0.0000 C   0  0  0  0  0  0  0  2  0  0  0  0
  1  2  1  0        0
  2  3  4  0        0
  3  4  4  0        0
  4  5  4  0        0
  5  6  4  0        0
  6  7  4  0        0
  2  7  4  0        0
  5  8  1  0        0
M  END
$$$$

CDXL12

  8  8  0  0  0  0  0  0  0  0999 V2000
    0.7145    0.4125    0.0000 C   0  0  0  0  0  0  0  2  0  0  0  0
    0.7145   -0.4125    0.0000 C   0  0  0  0  0  0  0  2  0  0  0  0
    0.0000   -0.8250    0.0000 C   0  0  0  0  0  0  0  2  0  0  0  0
   -0.7145   -0.4125    0.0000 C   0  0  0  0  0  0  0  2  0  0  0  0
   -0.7145    0.4125    0.0000 C   0  0  0  0  0  0  0  2  0  0  0  0
    0.0000    0.8250    0.0000 C   0  0  0  0  0  0  0  2  0  0  0  0
   -1.4289   -0.8250    0.0000 Cl  0  0  0  0  0  0  0  2  0  0  0  0
    1.4289    0.8250    0.0000 Cl  0  0  0  0  0  0  0  2  0  0  0  0
  1  2  4  0        0
  2  3  4  0        0
  3  4  4  0        0
  4  5  4  0        0
  5  6  4  0        0
  1  6  4  0        0
  4  7  1  0        0
  1  8  1  0        0
M  END
$$$$

CDXL12

  8  8  0  0  0  0  0  0  0  0999 V2000
    1.4289    0.8250    0.0000 N   0  0  0  0  0  0  0  2  0  0  0  0
    0.7145    0.4125    0.0000 C   0  0  0  0  0  0  0  2  0  0  0  0
    0.7145   -0.4125    0.0000 C   0  0  0  0  0  0  0  2  0  0  0  0
    0.0000   -0.8250    0.0000 C   0  0  0  0  0  0  0  2  0  0  0  0
   -0.7145   -0.4125    0.0000 C   0  0  0  0  0  0  0  2  0  0  0  0
   -0.7145    0.4125    0.0000 C   0  0  0  0  0  0  0  2  0  0  0  0
    0.0000    0.8250    0.0000 C   0  0  0  0  0  0  0  2  0  0  0  0
   -1.4289   -0.8250    0.0000 Cl  0  0  0  0  0  0  0  2  0  0  0  0
  1  2  1  0        0
  2  3  4  0        0
  3  4  4  0        0
  4  5  4  0        0
  5  6  4  0        0
  6  7  4  0        0
  2  7  4  0        0
  5  8  1  0        0
M  END
$$$$

CDXL12

  8  8  0  0  0  0  0  0  0  0999 V2000
    1.4289    0.8250    0.0000 O   0  0  0  0  0  0  0  2  0  0  0  0
    0.7145    0.4125    0.0000 C   0  0  0  0  0  0  0  2  0  0  0  0
    0.7145   -0.4125    0.0000 C   0  0  0  0  0  0  0  2  0  0  0  0
    0.0000   -0.8250    0.0000 C   0  0  0  0  0  0  0  2  0  0  0  0
   -0.7145   -0.4125    0.0000 C   0  0  0  0  0  0  0  2  0  0  0  0
   -0.7145    0.4125    0.0000 C   0  0  0  0  0  0  0  2  0  0  0  0
    0.0000    0.8250    0.0000 C   0  0  0  0  0  0  0  2  0  0  0  0
   -1.4289   -0.8250    0.0000 Cl  0  0  0  0  0  0  0  2  0  0  0  0
  1  2  1  0        0
  2  3  4  0        0
  3  4  4  0        0
  4  5  4  0        0
  5  6  4  0        0
  6  7  4  0        0
  2  7  4  0        0
  5  8  1  0        0
M  END
$$$$

CDXL12

  8  8  0  0  0  0  0  0  0  0999 V2000
    1.4289    0.8250    0.0000 N   0  0  0  0  0  0  0  2  0  0  0  0
    0.7145    0.4125    0.0000 C   0  0  0  0  0  0  0  2  0  0  0  0
    0.7145   -0.4125    0.0000 C   0  0  0  0  0  0  0  2  0  0  0  0
    0.0000   -0.8250    0.0000 C   0  0  0  0  0  0  0  2  0  0  0  0
   -0.7145   -0.4125    0.0000 C   0  0  0  0  0  0  0  2  0  0  0  0
   -1.4289   -0.8250    0.0000 N   0  0  0  0  0  0  0  2  0  0  0  0
   -0.7145    0.4125    0.0000 C   0  0  0  0  0  0  0  2  0  0  0  0
    0.0000    0.8250    0.0000 C   0  0  0  0  0  0  0  2  0  0  0  0
  1  2  1  0        0
  2  3  4  0        0
  3  4  4  0        0
  4  5  4  0        0
  5  6  1  0        0
  5  7  4  0        0
  7  8  4  0        0
  2  8  4  0        0
M  END
$$$$

CDXL12

  8  8  0  0  0  0  0  0  0  0999 V2000
    0.7145    0.4125    0.0000 C   0  0  0  0  0  0  0  2  0  0  0  0
    1.4289    0.8250    0.0000 O   0  0  0  0  0  0  0  2  0  0  0  0
    0.7145   -0.4125    0.0000 C   0  0  0  0  0  0  0  2  0  0  0  0
    0.0000   -0.8250    0.0000 C   0  0  0  0  0  0  0  2  0  0  0  0
   -0.7145   -0.4125    0.0000 C   0  0  0  0  0  0  0  2  0  0  0  0
   -1.4289   -0.8250    0.0000 O   0  0  0  0  0  0  0  2  0  0  0  0
   -0.7145    0.4125    0.0000 C   0  0  0  0  0  0  0  2  0  0  0  0
    0.0000    0.8250    0.0000 C   0  0  0  0  0  0  0  2  0  0  0  0
  1  2  2  0        0
  1  3  1  0        0
  3  4  1  0        0
  4  5  1  0        0
  5  6  2  0        0
  5  7  1  0        0
  7  8  1  0        0
  1  8  1  0        0
M  END
$$$$

CDXL12

 10  9  0  0  0  0  0  0  0  0999 V2000
   -1.0717   -1.0312    0.0000 O   0  0  0  0  0  0  0  2  0  0  0  0
   -1.0717   -0.2062    0.0000 C   0  0  0  0  0  0  0  2  0  0  0  0
   -1.7862    0.2062    0.0000 O   0  0  0  0  0  0  0  2  0  0  0  0
   -2.5006   -0.2062    0.0000 C   0  0  0  0  0  0  0  2  0  0  0  0
   -0.3572    0.2063    0.0000 C   0  0  0  0  0  0  0  2  0  0  0  0
    0.3572   -0.2062    0.0000 C   0  0  0  0  0  0  0  2  0  0  0  0
    1.0717    0.2062    0.0000 C   0  0  0  0  0  0  0  2  0  0  0  0
    1.0717    1.0312    0.0000 O   0  0  0  0  0  0  0  2  0  0  0  0
    1.7862   -0.2062    0.0000 O   0  0  0  0  0  0  0  2  0  0  0  0
    2.5006    0.2062    0.0000 C   0  0  0  0  0  0  0  2  0  0  0  0
  1  2  2  0        0
  2  3  1  0        0
  3  4  1  0        0
  2  5  1  0        0
  5  6  1  0        0
  6  7  1  0        0
  7  8  2  0        0
  7  9  1  0        0
  9 10  1  0        0
M  END
$$$$

CDXL12

  9  8  0  0  0  0  0  0  0  0999 V2000
    1.0717    0.6187    0.0000 O   0  0  0  0  0  0  0  2  0  0  0  0
    1.0717   -0.2062    0.0000 C   0  0  0  0  0  0  0  2  0  0  0  0
    0.3572   -0.6187    0.0000 C   0  0  0  0  0  0  0  2  0  0  0  0
   -0.3572   -0.2062    0.0000 C   0  0  0  0  0  0  0  2  0  0  0  0
   -1.0717   -0.6187    0.0000 C   0  0  0  0  0  0  0  2  0  0  0  0
   -1.7862   -0.2062    0.0000 C   0  0  0  0  0  0  0  2  0  0  0  0
   -2.5006   -0.6187    0.0000 C   0  0  0  0  0  0  0  2  0  0  0  0
    1.7862   -0.6187    0.0000 C   0  0  0  0  0  0  0  2  0  0  0  0
    2.5006   -0.2062    0.0000 C   0  0  0  0  0  0  0  2  0  0  0  0
  1  2  2  0        0
  2  3  1  0        0
  3  4  1  0        0
  4  5  1  0        0
  5  6  1  0        0
  6  7  1  0        0
  2  8  1  0        0
  8  9  1  0        0
M  END
$$$$

CDXL12

  9  8  0  0  0  0  0  0  0  0999 V2000
    1.0717    0.6187    0.0000 O   0  0  0  0  0  0  0  2  0  0  0  0
    1.0717   -0.2062    0.0000 C   0  0  0  0  0  0  0  2  0  0  0  0
    1.7862   -0.6187    0.0000 O   0  0  0  0  0  0  0  2  0  0  0  0
    2.5006   -0.2062    0.0000 C   0  0  0  0  0  0  0  2  0  0  0  0
    0.3572   -0.6187    0.0000 C   0  0  0  0  0  0  0  2  0  0  0  0
   -0.3572   -0.2062    0.0000 C   0  0  0  0  0  0  0  2  0  0  0  0
   -1.0717   -0.6187    0.0000 C   0  0  0  0  0  0  0  2  0  0  0  0
   -1.7862   -0.2062    0.0000 C   0  0  0  0  0  0  0  2  0  0  0  0
   -2.5006   -0.6187    0.0000 C   0  0  0  0  0  0  0  2  0  0  0  0
  1  2  2  0        0
  2  3  1  0        0
  3  4  1  0        0
  2  5  1  0        0
  5  6  1  0        0
  6  7  1  0        0
  7  8  1  0        0
  8  9  1  0        0
M  END
$$$$

CDXL12

  5  5  0  0  0  0  0  0  0  0999 V2000
   -0.7145    0.5635    0.0000 O   0  0  0  0  0  0  0  2  0  0  0  0
   -0.3020   -0.1510    0.0000 C   0  0  0  0  0  0  0  2  0  0  0  0
    0.4125   -0.5635    0.0000 C   0  0  0  0  0  0  0  2  0  0  0  0
    1.1270   -0.1510    0.0000 C   0  0  0  0  0  0  0  2  0  0  0  0
   -1.1270   -0.1510    0.0000 C   0  0  0  0  0  0  0  2  0  0  0  0
  1  2  1  0        0
  2  3  1  0        0
  3  4  1  0        0
  2  5  1  0        0
  1  5  1  0        0
M  END
$$$$

CDXL12

  4  3  0  0  0  0  0  0  0  0999 V2000
   -1.0717    0.2062    0.0000 Br  0  0  0  0  0  0  0  2  0  0  0  0
   -0.3572   -0.2062    0.0000 C   0  0  0  0  0  0  0  2  0  0  0  0
    0.3572    0.2062    0.0000 C   0  0  0  0  0  0  0  2  0  0  0  0
    1.0717   -0.2062    0.0000 Br  0  0  0  0  0  0  0  2  0  0  0  0
  1  2  1  0        0
  2  3  1  0        0
  3  4  1  0        0
M  END
$$$$

CDXL12

  4  3  0  0  0  0  0  0  0  0999 V2000
   -1.0717    0.2062    0.0000 Br  0  0  0  0  0  0  0  2  0  0  0  0
   -0.3572   -0.2062    0.0000 C   0  0  0  0  0  0  0  2  0  0  0  0
    0.3572    0.2062    0.0000 C   0  0  0  0  0  0  0  2  0  0  0  0
    1.0717   -0.2062    0.0000 C   0  0  0  0  0  0  0  2  0  0  0  0
  1  2  1  0        0
  2  3  1  0        0
  3  4  1  0        0
M  END
$$$$

CDXL12

  4  3  0  0  0  0  0  0  0  0999 V2000
   -1.0717    0.2062    0.0000 Br  0  0  0  0  0  0  0  2  0  0  0  0
   -0.3572   -0.2062    0.0000 C   0  0  0  0  0  0  0  2  0  0  0  0
    0.3572    0.2062    0.0000 C   0  0  0  0  0  0  0  2  0  0  0  0
    1.0717   -0.2062    0.0000 C   0  0  0  0  0  0  0  2  0  0  0  0
  1  2  1  0        0
  2  3  1  0        0
  3  4  2  0        0
M  END
$$$$

CDXL12

  4  3  0  0  0  0  0  0  0  0999 V2000
   -0.3572   -0.2062    0.0000 C   0  0  0  0  0  0  0  2  0  0  0  0
    0.3572    0.2062    0.0000 C   0  0  0  0  0  0  0  2  0  0  0  0
    1.0717   -0.2062    0.0000 C   0  0  0  0  0  0  0  2  0  0  0  0
   -1.0717    0.2062    0.0000 C   0  0  0  0  0  0  0  2  0  0  0  0
  1  2  1  0        0
  2  3  1  0        0
  1  4  1  0        0
M  END
$$$$

CDXL12

  4  3  0  0  0  0  0  0  0  0999 V2000
   -0.3572   -0.2062    0.0000 C   0  0  0  0  0  0  0  2  0  0  0  0
   -1.0717    0.2062    0.0000 C   0  0  0  0  0  0  0  2  0  0  0  0
    0.3572    0.2062    0.0000 C   0  0  0  0  0  0  0  2  0  0  0  0
    1.0717   -0.2062    0.0000 C   0  0  0  0  0  0  0  2  0  0  0  0
  1  2  2  0        0
  1  3  1  0        0
  3  4  1  0        0
M  END
$$$$

CDXL12

  4  3  0  0  0  0  0  0  0  0999 V2000
   -0.3572   -0.2062    0.0000 C   0  0  0  0  0  0  0  2  0  0  0  0
    0.3572    0.2062    0.0000 C   0  0  0  0  0  0  0  2  0  0  0  0
    1.0717   -0.2062    0.0000 C   0  0  0  0  0  0  0  2  0  0  0  0
   -1.0717    0.2062    0.0000 C   0  0  0  0  0  0  0  2  0  0  0  0
  1  2  1  0        0
  2  3  2  0        0
  1  4  2  0        0
M  END
$$$$

CDXL12

  4  3  0  0  0  0  0  0  0  0999 V2000
    0.3572   -0.0000    0.0000 C   0  0  0  0  0  0  0  2  0  0  0  0
    1.0717   -0.4125    0.0000 C   0  0  0  0  0  0  0  2  0  0  0  0
   -0.3572    0.4125    0.0000 C   0  0  0  0  0  0  0  2  0  0  0  0
   -1.0717    0.0000    0.0000 C   0  0  0  0  0  0  0  2  0  0  0  0
  1  2  3  0        0
  1  3  1  0        0
  3  4  1  0        0
M  END
$$$$

CDXL12

  4  3  0  0  0  0  0  0  0  0999 V2000
   -1.0717    0.2062    0.0000 O   0  0  0  0  0  0  0  2  0  0  0  0
   -0.3572   -0.2062    0.0000 C   0  0  0  0  0  0  0  2  0  0  0  0
    0.3572    0.2062    0.0000 C   0  0  0  0  0  0  0  2  0  0  0  0
    1.0717   -0.2062    0.0000 C   0  0  0  0  0  0  0  2  0  0  0  0
  1  2  2  0        0
  2  3  1  0        0
  3  4  2  0        0
M  END
$$$$

CDXL12

  4  3  0  0  0  0  0  0  0  0999 V2000
   -1.0717    0.2062    0.0000 Br  0  0  0  0  0  0  0  2  0  0  0  0
   -0.3572   -0.2062    0.0000 C   0  0  0  0  0  0  0  2  0  0  0  0
    0.3572    0.2062    0.0000 C   0  0  0  0  0  0  0  2  0  0  0  0
    1.0717   -0.2062    0.0000 Cl  0  0  0  0  0  0  0  2  0  0  0  0
  1  2  1  0        0
  2  3  1  0        0
  3  4  1  0        0
M  END
$$$$

CDXL12

  4  3  0  0  0  0  0  0  0  0999 V2000
   -0.3572   -0.2062    0.0000 C   0  0  0  0  0  0  0  2  0  0  0  0
   -1.0717    0.2062    0.0000 C   0  0  0  0  0  0  0  2  0  0  0  0
    0.3572    0.2062    0.0000 C   0  0  0  0  0  0  0  2  0  0  0  0
    1.0717   -0.2062    0.0000 Cl  0  0  0  0  0  0  0  2  0  0  0  0
  1  2  2  0        0
  1  3  1  0        0
  3  4  1  0        0
M  END
$$$$

CDXL12

  4  3  0  0  0  0  0  0  0  0999 V2000
   -1.0717    0.2062    0.0000 Cl  0  0  0  0  0  0  0  2  0  0  0  0
   -0.3572   -0.2062    0.0000 C   0  0  0  0  0  0  0  2  0  0  0  0
    0.3572    0.2062    0.0000 C   0  0  0  0  0  0  0  2  0  0  0  0
    1.0717   -0.2062    0.0000 Cl  0  0  0  0  0  0  0  2  0  0  0  0
  1  2  1  0        0
  2  3  1  0        0
  3  4  1  0        0
M  END
$$$$

CDXL12

  4  3  0  0  0  0  0  0  0  0999 V2000
   -1.0717    0.2062    0.0000 O   0  0  0  0  0  0  0  2  0  0  0  0
   -0.3572   -0.2062    0.0000 C   0  0  0  0  0  0  0  2  0  0  0  0
    0.3572    0.2062    0.0000 C   0  0  0  0  0  0  0  2  0  0  0  0
    1.0717   -0.2062    0.0000 Cl  0  0  0  0  0  0  0  2  0  0  0  0
  1  2  1  0        0
  2  3  1  0        0
  3  4  1  0        0
M  END
$$$$

CDXL12

  4  3  0  0  0  0  0  0  0  0999 V2000
   -1.0717    0.2062    0.0000 N   0  0  0  0  0  0  0  2  0  0  0  0
   -0.3572   -0.2062    0.0000 C   0  0  0  0  0  0  0  2  0  0  0  0
    0.3572    0.2062    0.0000 C   0  0  0  0  0  0  0  2  0  0  0  0
    1.0717   -0.2062    0.0000 C   0  0  0  0  0  0  0  2  0  0  0  0
  1  2  1  0        0
  2  3  1  0        0
  3  4  1  0        0
M  END
$$$$

CDXL12

  4  3  0  0  0  0  0  0  0  0999 V2000
    1.0717   -0.4125    0.0000 N   0  0  0  0  0  0  0  2  0  0  0  0
    0.3572   -0.0000    0.0000 C   0  0  0  0  0  0  0  2  0  0  0  0
   -0.3572    0.4125    0.0000 C   0  0  0  0  0  0  0  2  0  0  0  0
   -1.0717    0.0000    0.0000 C   0  0  0  0  0  0  0  2  0  0  0  0
  1  2  3  0        0
  2  3  1  0        0
  3  4  1  0        0
M  END
$$$$

CDXL12

  4  3  0  0  0  0  0  0  0  0999 V2000
    1.0717   -0.4125    0.0000 N   0  0  0  0  0  0  0  2  0  0  0  0
    0.3572   -0.0000    0.0000 C   0  0  0  0  0  0  0  2  0  0  0  0
   -0.3572    0.4125    0.0000 C   0  0  0  0  0  0  0  2  0  0  0  0
   -1.0717    0.0000    0.0000 C   0  0  0  0  0  0  0  2  0  0  0  0
  1  2  3  0        0
  2  3  1  0        0
  3  4  2  0        0
M  END
$$$$

CDXL12

  4  3  0  0  0  0  0  0  0  0999 V2000
   -1.0717   -0.0000    0.0000 O   0  0  0  0  0  0  0  2  0  0  0  0
   -0.3572   -0.4125    0.0000 C   0  0  0  0  0  0  0  2  0  0  0  0
    0.3572    0.0000    0.0000 C   0  0  0  0  0  0  0  2  0  0  0  0
    1.0717    0.4125    0.0000 C   0  0  0  0  0  0  0  2  0  0  0  0
  1  2  1  0        0
  2  3  1  0        0
  3  4  3  0        0
M  END
$$$$

CDXL12

  4  3  0  0  0  0  0  0  0  0999 V2000
   -1.0717    0.2062    0.0000 O   0  0  0  0  0  0  0  2  0  0  0  0
   -0.3572   -0.2062    0.0000 C   0  0  0  0  0  0  0  2  0  0  0  0
    0.3572    0.2062    0.0000 C   0  0  0  0  0  0  0  2  0  0  0  0
    1.0717   -0.2062    0.0000 O   0  0  0  0  0  0  0  2  0  0  0  0
  1  2  1  0        0
  2  3  1  0        0
  3  4  1  0        0
M  END
$$$$

CDXL12

  4  3  0  0  0  0  0  0  0  0999 V2000
   -1.0717    0.2062    0.0000 O   0  0  0  0  0  0  0  2  0  0  0  0
   -0.3572   -0.2062    0.0000 C   0  0  0  0  0  0  0  2  0  0  0  0
    0.3572    0.2062    0.0000 C   0  0  0  0  0  0  0  2  0  0  0  0
    1.0717   -0.2062    0.0000 O   0  0  0  0  0  0  0  2  0  0  0  0
  1  2  2  0        0
  2  3  1  0        0
  3  4  2  0        0
M  END
$$$$

CDXL12

  4  3  0  0  0  0  0  0  0  0999 V2000
   -1.0717    0.2062    0.0000 C   0  0  0  0  0  0  0  2  0  0  0  0
   -0.3572   -0.2062    0.0000 C   0  0  0  0  0  0  0  2  0  0  0  0
    0.3572    0.2062    0.0000 Hg  0  0  0  0  0  0  0  2  0  0  0  0
    1.0717   -0.2062    0.0000 Cl  0  0  0  0  0  0  0  2  0  0  0  0
  1  2  1  0        0
  2  3  1  0        0
  3  4  1  0        0
M  END
$$$$

CDXL12

  4  3  0  0  0  0  0  0  0  0999 V2000
   -1.0717    0.2062    0.0000 O   0  0  0  0  0  0  0  2  0  0  0  0
   -0.3572   -0.2062    0.0000 C   0  0  0  0  0  0  0  2  0  0  0  0
    0.3572    0.2062    0.0000 O   0  0  0  0  0  0  0  2  0  0  0  0
    1.0717   -0.2062    0.0000 C   0  0  0  0  0  0  0  2  0  0  0  0
  1  2  2  0        0
  2  3  1  0        0
  3  4  1  0        0
M  END
$$$$

CDXL12

  7  6  0  0  0  0  0  0  0  0999 V2000
    1.1270   -0.7145    0.0000 O   0  0  0  0  0  0  0  2  0  0  0  0
    0.7145    0.0000    0.0000 S   0  0  0  0  0  0  0  2  0  0  0  0
    0.3020    0.7145    0.0000 O   0  0  0  0  0  0  0  2  0  0  0  0
    1.4289    0.4125    0.0000 O   0  0  0  0  0  0  0  2  0  0  0  0
    0.0000   -0.4125    0.0000 C   0  0  0  0  0  0  0  2  0  0  0  0
   -0.7145   -0.0000    0.0000 C   0  0  0  0  0  0  0  2  0  0  0  0
   -1.4289   -0.4125    0.0000 N   0  0  0  0  0  0  0  2  0  0  0  0
  1  2  2  0        0
  2  3  2  0        0
  2  4  1  0        0
  2  5  1  0        0
  5  6  1  0        0
  6  7  1  0        0
M  END
$$$$

CDXL12

  8  7  0  0  0  0  0  0  0  0999 V2000
    0.7145    0.6188    0.0000 O   0  0  0  0  0  0  0  2  0  0  0  0
    0.7145   -0.2062    0.0000 C   0  0  0  0  0  0  0  2  0  0  0  0
    0.0000   -0.6188    0.0000 C   0  0  0  0  0  0  0  2  0  0  0  0
   -0.7145   -0.2063    0.0000 C   0  0  0  0  0  0  0  2  0  0  0  0
   -1.4289    0.2062    0.0000 O   0  0  0  0  0  0  0  2  0  0  0  0
   -1.4289   -0.6188    0.0000 C   0  0  0  0  0  0  0  2  0  0  0  0
   -0.7145    0.6188    0.0000 C   0  0  0  0  0  0  0  2  0  0  0  0
    1.4289   -0.6188    0.0000 C   0  0  0  0  0  0  0  2  0  0  0  0
  1  2  1  0        0
  2  3  1  0        0
  3  4  1  0        0
  4  5  1  0        0
  4  6  1  0        0
  4  7  1  0        0
  2  8  1  0        0
M  END
$$$$

CDXL12

  8  7  0  0  0  0  0  0  0  0999 V2000
    0.7145    0.6188    0.0000 O   0  0  0  0  0  0  0  2  0  0  0  0
    0.7145   -0.2062    0.0000 C   0  0  0  0  0  0  0  2  0  0  0  0
    1.4289   -0.6188    0.0000 O   0  0  0  0  0  0  0  2  0  0  0  0
    0.0000   -0.6188    0.0000 C   0  0  0  0  0  0  0  2  0  0  0  0
   -0.7145   -0.2063    0.0000 N   0  0  0  0  0  0  0  2  0  0  0  0
   -1.4289   -0.6188    0.0000 C   0  0  0  0  0  0  0  2  0  0  0  0
   -0.7145    0.6188    0.0000 C   0  0  0  0  0  0  0  2  0  0  0  0
   -1.4289    0.2062    0.0000 C   0  0  0  0  0  0  0  2  0  0  0  0
  1  2  2  0        0
  2  3  1  0        0
  2  4  1  0        0
  4  5  1  0        0
  5  6  1  0        0
  5  7  1  0        0
  5  8  1  0        0
M  END
$$$$

CDXL12

  8  7  0  0  0  0  0  0  0  0999 V2000
    0.7145    0.8250    0.0000 C   0  0  0  0  0  0  0  2  0  0  0  0
    0.7145    0.0000    0.0000 C   0  0  0  0  0  0  0  2  0  0  0  0
    1.4289   -0.4125    0.0000 C   0  0  0  0  0  0  0  2  0  0  0  0
    0.0000   -0.4125    0.0000 O   0  0  0  0  0  0  0  2  0  0  0  0
   -0.7145   -0.0000    0.0000 P   0  0  0  0  0  0  0  2  0  0  0  0
   -1.4289   -0.4125    0.0000 C   0  0  0  0  0  0  0  2  0  0  0  0
   -0.7145   -0.8250    0.0000 F   0  0  0  0  0  0  0  2  0  0  0  0
   -0.7145    0.8250    0.0000 O   0  0  0  0  0  0  0  2  0  0  0  0
  1  2  1  0        0
  2  3  1  0        0
  2  4  1  0        0
  4  5  1  0        0
  5  6  1  0        0
  5  7  1  0        0
  5  8  2  0        0
M  END
$$$$

CDXL12

  9  8  0  0  0  0  0  0  0  0999 V2000
    1.4289    0.2062    0.0000 C   0  0  0  0  0  0  0  2  0  0  0  0
    0.7145   -0.2062    0.0000 Si  0  0  0  0  0  0  0  2  0  0  0  0
    0.7145    0.6188    0.0000 C   0  0  0  0  0  0  0  2  0  0  0  0
    1.4289   -0.6188    0.0000 C   0  0  0  0  0  0  0  2  0  0  0  0
    0.0000   -0.6188    0.0000 O   0  0  0  0  0  0  0  2  0  0  0  0
   -0.7145   -0.2063    0.0000 Si  0  0  0  0  0  0  0  2  0  0  0  0
   -1.4289   -0.6188    0.0000 C   0  0  0  0  0  0  0  2  0  0  0  0
   -0.7145    0.6188    0.0000 C   0  0  0  0  0  0  0  2  0  0  0  0
   -1.4289    0.2062    0.0000 C   0  0  0  0  0  0  0  2  0  0  0  0
  1  2  1  0        0
  2  3  1  0        0
  2  4  1  0        0
  2  5  1  0        0
  5  6  1  0        0
  6  7  1  0        0
  6  8  1  0        0
  6  9  1  0        0
M  END
$$$$

CDXL12

 17 16  0  0  0  0  0  0  0  0999 V2000
   -2.8579    0.2062    0.0000 C   0  0  0  0  0  0  0  2  0  0  0  0
   -2.1434    0.6187    0.0000 C   0  0  0  0  0  0  0  2  0  0  0  0
   -1.4289    0.2062    0.0000 O   0  0  0  0  0  0  0  2  0  0  0  0
   -0.7145    0.6187    0.0000 P   0  0  0  0  0  0  0  2  0  0  0  0
   -0.7145    1.4438    0.0000 O   0  0  0  0  0  0  0  2  0  0  0  0
   -0.7145   -0.2062    0.0000 O   0  0  0  0  0  0  0  2  0  0  0  0
   -1.4289   -0.6188    0.0000 C   0  0  0  0  0  0  0  2  0  0  0  0
   -1.4289   -1.4438    0.0000 C   0  0  0  0  0  0  0  2  0  0  0  0
    0.0000    0.2062    0.0000 O   0  0  0  0  0  0  0  2  0  0  0  0
    0.7145    0.6188    0.0000 P   0  0  0  0  0  0  0  2  0  0  0  0
    0.7145    1.4438    0.0000 O   0  0  0  0  0  0  0  2  0  0  0  0
    1.4289    0.2062    0.0000 O   0  0  0  0  0  0  0  2  0  0  0  0
    2.1434    0.6187    0.0000 C   0  0  0  0  0  0  0  2  0  0  0  0
    2.8579    0.2062    0.0000 C   0  0  0  0  0  0  0  2  0  0  0  0
    0.7145   -0.2062    0.0000 O   0  0  0  0  0  0  0  2  0  0  0  0
    1.4289   -0.6188    0.0000 C   0  0  0  0  0  0  0  2  0  0  0  0
    1.4289   -1.4438    0.0000 C   0  0  0  0  0  0  0  2  0  0  0  0
  1  2  1  0        0
  2  3  1  0        0
  3  4  1  0        0
  4  5  2  0        0
  4  6  1  0        0
  6  7  1  0        0
  7  8  1  0        0
  4  9  1  0        0
  9 10  1  0        0
 10 11  2  0        0
 10 12  1  0        0
 12 13  1  0        0
 13 14  1  0        0
 10 15  1  0        0
 15 16  1  0        0
 16 17  1  0        0
M  END
$$$$

CDXL12

 13 12  0  0  0  0  0  0  0  0999 V2000
    2.1434    0.2062    0.0000 C   0  0  0  0  0  0  0  2  0  0  0  0
    1.4289   -0.2063    0.0000 Si  0  0  0  0  0  0  0  2  0  0  0  0
    1.4289    0.6187    0.0000 C   0  0  0  0  0  0  0  2  0  0  0  0
    2.1434   -0.6188    0.0000 C   0  0  0  0  0  0  0  2  0  0  0  0
    0.7145   -0.6188    0.0000 O   0  0  0  0  0  0  0  2  0  0  0  0
    0.0000   -0.2062    0.0000 Si  0  0  0  0  0  0  0  2  0  0  0  0
    0.4125    0.5082    0.0000 C   0  0  0  0  0  0  0  2  0  0  0  0
   -0.4125    0.5082    0.0000 C   0  0  0  0  0  0  0  2  0  0  0  0
   -0.7145   -0.6188    0.0000 O   0  0  0  0  0  0  0  2  0  0  0  0
   -1.4289   -0.2063    0.0000 Si  0  0  0  0  0  0  0  2  0  0  0  0
   -2.1434   -0.6188    0.0000 C   0  0  0  0  0  0  0  2  0  0  0  0
   -1.4289    0.6188    0.0000 C   0  0  0  0  0  0  0  2  0  0  0  0
   -2.1434    0.2062    0.0000 C   0  0  0  0  0  0  0  2  0  0  0  0
  1  2  1  0        0
  2  3  1  0        0
  2  4  1  0        0
  2  5  1  0        0
  5  6  1  0        0
  6  7  1  0        0
  6  8  1  0        0
  6  9  1  0        0
  9 10  1  0        0
 10 11  1  0        0
 10 12  1  0        0
 10 13  1  0        0
M  END
$$$$

CDXL12

  9  8  0  0  0  0  0  0  0  0999 V2000
    1.0717    0.6188    0.0000 O   0  0  0  0  0  0  0  2  0  0  0  0
    1.0717   -0.2062    0.0000 C   0  0  0  0  0  0  0  2  0  0  0  0
    0.3572   -0.6188    0.0000 C   0  0  0  0  0  0  0  2  0  0  0  0
   -0.3572   -0.2063    0.0000 C   0  0  0  0  0  0  0  2  0  0  0  0
   -1.0717   -0.6188    0.0000 O   0  0  0  0  0  0  0  2  0  0  0  0
   -1.7862   -0.2063    0.0000 C   0  0  0  0  0  0  0  2  0  0  0  0
   -0.7697    0.5082    0.0000 C   0  0  0  0  0  0  0  2  0  0  0  0
    0.0553    0.5082    0.0000 C   0  0  0  0  0  0  0  2  0  0  0  0
    1.7862   -0.6188    0.0000 C   0  0  0  0  0  0  0  2  0  0  0  0
  1  2  2  0        0
  2  3  1  0        0
  3  4  1  0        0
  4  5  1  0        0
  5  6  1  0        0
  4  7  1  0        0
  4  8  1  0        0
  2  9  1  0        0
M  END
$$$$

CDXL12

  6  5  0  0  0  0  0  0  0  0999 V2000
   -1.4289   -0.6187    0.0000 Br  0  0  0  0  0  0  0  2  0  0  0  0
   -0.7145   -0.2062    0.0000 C   0  0  0  0  0  0  0  2  0  0  0  0
    0.0000   -0.6187    0.0000 C   0  0  0  0  0  0  0  2  0  0  0  0
    0.7145   -0.2062    0.0000 C   0  0  0  0  0  0  0  2  0  0  0  0
    0.7145    0.6187    0.0000 C   0  0  0  0  0  0  0  2  0  0  0  0
    1.4289   -0.6187    0.0000 C   0  0  0  0  0  0  0  2  0  0  0  0
  1  2  1  0        0
  2  3  1  0        0
  3  4  1  0        0
  4  5  1  0        0
  4  6  1  0        0
M  END
$$$$

CDXL12

  6  5  0  0  0  0  0  0  0  0999 V2000
    0.7145   -0.2062    0.0000 C   0  0  0  0  0  0  0  2  0  0  0  0
    0.0000   -0.6187    0.0000 C   0  0  0  0  0  0  0  2  0  0  0  0
   -0.7145   -0.2062    0.0000 C   0  0  0  0  0  0  0  2  0  0  0  0
   -1.4289   -0.6187    0.0000 C   0  0  0  0  0  0  0  2  0  0  0  0
    0.7145    0.6187    0.0000 C   0  0  0  0  0  0  0  2  0  0  0  0
    1.4289   -0.6187    0.0000 C   0  0  0  0  0  0  0  2  0  0  0  0
  1  2  1  0        0
  2  3  1  0        0
  3  4  1  0        0
  1  5  1  0        0
  1  6  1  0        0
M  END
$$$$

CDXL12

  6  5  0  0  0  0  0  0  0  0999 V2000
    0.7145    0.6187    0.0000 O   0  0  0  0  0  0  0  2  0  0  0  0
    0.7145   -0.2062    0.0000 C   0  0  0  0  0  0  0  2  0  0  0  0
    0.0000   -0.6187    0.0000 C   0  0  0  0  0  0  0  2  0  0  0  0
   -0.7145   -0.2062    0.0000 C   0  0  0  0  0  0  0  2  0  0  0  0
   -1.4289   -0.6187    0.0000 C   0  0  0  0  0  0  0  2  0  0  0  0
    1.4289   -0.6187    0.0000 C   0  0  0  0  0  0  0  2  0  0  0  0
  1  2  2  0        0
  2  3  1  0        0
  3  4  1  0        0
  4  5  1  0        0
  2  6  1  0        0
M  END
$$$$

CDXL12

  6  5  0  0  0  0  0  0  0  0999 V2000
   -1.4289   -0.6187    0.0000 O   0  0  0  0  0  0  0  2  0  0  0  0
   -0.7145   -0.2062    0.0000 C   0  0  0  0  0  0  0  2  0  0  0  0
    0.0000   -0.6187    0.0000 C   0  0  0  0  0  0  0  2  0  0  0  0
    0.7145   -0.2062    0.0000 C   0  0  0  0  0  0  0  2  0  0  0  0
    0.7145    0.6187    0.0000 O   0  0  0  0  0  0  0  2  0  0  0  0
    1.4289   -0.6187    0.0000 C   0  0  0  0  0  0  0  2  0  0  0  0
  1  2  1  0        0
  2  3  1  0        0
  3  4  1  0        0
  4  5  1  0        0
  4  6  1  0        0
M  END
$$$$

CDXL12

  6  5  0  0  0  0  0  0  0  0999 V2000
    0.7145    0.6187    0.0000 O   0  0  0  0  0  0  0  2  0  0  0  0
    0.7145   -0.2062    0.0000 C   0  0  0  0  0  0  0  2  0  0  0  0
    1.4289   -0.6187    0.0000 O   0  0  0  0  0  0  0  2  0  0  0  0
    0.0000   -0.6187    0.0000 C   0  0  0  0  0  0  0  2  0  0  0  0
   -0.7145   -0.2062    0.0000 C   0  0  0  0  0  0  0  2  0  0  0  0
   -1.4289   -0.6187    0.0000 C   0  0  0  0  0  0  0  2  0  0  0  0
  1  2  2  0        0
  2  3  1  0        0
  2  4  1  0        0
  4  5  1  0        0
  5  6  1  0        0
M  END
$$$$

CDXL12

  6  5  0  0  0  0  0  0  0  0999 V2000
    0.7145    0.6187    0.0000 O   0  0  0  0  0  0  0  2  0  0  0  0
    0.7145   -0.2062    0.0000 C   0  0  0  0  0  0  0  2  0  0  0  0
    1.4289   -0.6187    0.0000 O   0  0  0  0  0  0  0  2  0  0  0  0
    0.0000   -0.6187    0.0000 C   0  0  0  0  0  0  0  2  0  0  0  0
   -0.7145   -0.2062    0.0000 C   0  0  0  0  0  0  0  2  0  0  0  0
   -1.4289   -0.6187    0.0000 N   0  0  0  0  0  0  0  2  0  0  0  0
  1  2  2  0        0
  2  3  1  0        0
  2  4  1  0        0
  4  5  1  0        0
  5  6  1  0        0
M  END
$$$$

CDXL12

  6  5  0  0  0  0  0  0  0  0999 V2000
    0.7145    0.6187    0.0000 O   0  0  0  0  0  0  0  2  0  0  0  0
    0.7145   -0.2062    0.0000 C   0  0  0  0  0  0  0  2  0  0  0  0
    1.4289   -0.6187    0.0000 O   0  0  0  0  0  0  0  2  0  0  0  0
    0.0000   -0.6187    0.0000 C   0  0  0  0  0  0  0  2  0  0  0  0
   -0.7145   -0.2062    0.0000 N   0  0  0  0  0  0  0  2  0  0  0  0
   -1.4289   -0.6187    0.0000 C   0  0  0  0  0  0  0  2  0  0  0  0
  1  2  2  0        0
  2  3  1  0        0
  2  4  1  0        0
  4  5  1  0        0
  5  6  1  0        0
M  END
$$$$

CDXL12

  6  5  0  0  0  0  0  0  0  0999 V2000
   -0.7145   -0.2062    0.0000 O   0  0  0  0  0  0  0  2  0  0  0  0
    0.0000   -0.6187    0.0000 C   0  0  0  0  0  0  0  2  0  0  0  0
    0.7145   -0.2062    0.0000 C   0  0  0  0  0  0  0  2  0  0  0  0
    0.7145    0.6187    0.0000 O   0  0  0  0  0  0  0  2  0  0  0  0
    1.4289   -0.6187    0.0000 C   0  0  0  0  0  0  0  2  0  0  0  0
   -1.4289   -0.6187    0.0000 C   0  0  0  0  0  0  0  2  0  0  0  0
  1  2  1  0        0
  2  3  1  0        0
  3  4  1  0        0
  3  5  1  0        0
  1  6  1  0        0
M  END
$$$$

CDXL12

  6  5  0  0  0  0  0  0  0  0999 V2000
   -1.4289   -0.6187    0.0000 O   0  0  0  0  0  0  0  2  0  0  0  0
   -0.7145   -0.2062    0.0000 C   0  0  0  0  0  0  0  2  0  0  0  0
    0.0000   -0.6187    0.0000 C   0  0  0  0  0  0  0  2  0  0  0  0
    0.7145   -0.2062    0.0000 N   0  0  0  0  0  0  0  2  0  0  0  0
    0.7145    0.6187    0.0000 C   0  0  0  0  0  0  0  2  0  0  0  0
    1.4289   -0.6187    0.0000 C   0  0  0  0  0  0  0  2  0  0  0  0
  1  2  1  0        0
  2  3  1  0        0
  3  4  1  0        0
  4  5  1  0        0
  4  6  1  0        0
M  END
$$$$

CDXL12

  6  5  0  0  0  0  0  0  0  0999 V2000
    0.7145    0.6187    0.0000 O   0  0  0  0  0  0  0  2  0  0  0  0
    0.7145   -0.2062    0.0000 N   0  0  0  0  0  0  0  2  0  0  0  0
    1.4289   -0.6187    0.0000 O   0  0  0  0  0  0  0  2  0  0  0  0
    0.0000   -0.6187    0.0000 C   0  0  0  0  0  0  0  2  0  0  0  0
   -0.7145   -0.2062    0.0000 C   0  0  0  0  0  0  0  2  0  0  0  0
   -1.4289   -0.6187    0.0000 C   0  0  0  0  0  0  0  2  0  0  0  0
  1  2  2  0        0
  2  3  2  0        0
  2  4  1  0        0
  4  5  1  0        0
  5  6  1  0        0
M  END
$$$$

CDXL12

  6  5  0  0  0  0  0  0  0  0999 V2000
   -0.7145    0.6187    0.0000 O   0  0  0  0  0  0  0  2  0  0  0  0
   -0.7145   -0.2062    0.0000 C   0  0  0  0  0  0  0  2  0  0  0  0
   -0.0000   -0.6187    0.0000 O   0  0  0  0  0  0  0  2  0  0  0  0
    0.7145   -0.2062    0.0000 C   0  0  0  0  0  0  0  2  0  0  0  0
    1.4289   -0.6187    0.0000 C   0  0  0  0  0  0  0  2  0  0  0  0
   -1.4289   -0.6187    0.0000 C   0  0  0  0  0  0  0  2  0  0  0  0
  1  2  2  0        0
  2  3  1  0        0
  3  4  1  0        0
  4  5  2  0        0
  2  6  1  0        0
M  END
$$$$

CDXL12

  7  6  0  0  0  0  0  0  0  0999 V2000
    0.7145    0.6187    0.0000 O   0  0  0  0  0  0  0  2  0  0  0  0
    0.7145   -0.2062    0.0000 C   0  0  0  0  0  0  0  2  0  0  0  0
    0.0000   -0.6188    0.0000 C   0  0  0  0  0  0  0  2  0  0  0  0
   -0.7145   -0.2062    0.0000 C   0  0  0  0  0  0  0  2  0  0  0  0
   -1.4289   -0.6187    0.0000 C   0  0  0  0  0  0  0  2  0  0  0  0
   -0.7145    0.6188    0.0000 C   0  0  0  0  0  0  0  2  0  0  0  0
    1.4289   -0.6188    0.0000 C   0  0  0  0  0  0  0  2  0  0  0  0
  1  2  2  0        0
  2  3  1  0        0
  3  4  1  0        0
  4  5  1  0        0
  4  6  1  0        0
  2  7  1  0        0
M  END
$$$$

CDXL12

  7  6  0  0  0  0  0  0  0  0999 V2000
    0.7145    0.6187    0.0000 O   0  0  0  0  0  0  0  2  0  0  0  0
    0.7145   -0.2062    0.0000 C   0  0  0  0  0  0  0  2  0  0  0  0
    0.0000   -0.6188    0.0000 C   0  0  0  0  0  0  0  2  0  0  0  0
   -0.7145   -0.2062    0.0000 C   0  0  0  0  0  0  0  2  0  0  0  0
   -1.4289   -0.6187    0.0000 C   0  0  0  0  0  0  0  2  0  0  0  0
   -0.7145    0.6188    0.0000 C   0  0  0  0  0  0  0  2  0  0  0  0
    1.4289   -0.6188    0.0000 C   0  0  0  0  0  0  0  2  0  0  0  0
  1  2  1  0        0
  2  3  1  0        0
  3  4  1  0        0
  4  5  1  0        0
  4  6  1  0        0
  2  7  1  0        0
M  END
$$$$

CDXL12

  7  6  0  0  0  0  0  0  0  0999 V2000
    0.0000   -0.6188    0.0000 O   0  0  0  0  0  0  0  2  0  0  0  0
    0.7145   -0.2062    0.0000 C   0  0  0  0  0  0  0  2  0  0  0  0
    0.7145    0.6187    0.0000 C   0  0  0  0  0  0  0  2  0  0  0  0
    1.4289   -0.6188    0.0000 C   0  0  0  0  0  0  0  2  0  0  0  0
   -0.7145   -0.2062    0.0000 C   0  0  0  0  0  0  0  2  0  0  0  0
   -1.4289   -0.6187    0.0000 C   0  0  0  0  0  0  0  2  0  0  0  0
   -0.7145    0.6188    0.0000 C   0  0  0  0  0  0  0  2  0  0  0  0
  1  2  1  0        0
  2  3  1  0        0
  2  4  1  0        0
  1  5  1  0        0
  5  6  1  0        0
  5  7  1  0        0
M  END
$$$$

CDXL12

  7  6  0  0  0  0  0  0  0  0999 V2000
    0.7145    0.6187    0.0000 O   0  0  0  0  0  0  0  2  0  0  0  0
    0.7145   -0.2062    0.0000 C   0  0  0  0  0  0  0  2  0  0  0  0
    0.0000   -0.6188    0.0000 O   0  0  0  0  0  0  0  2  0  0  0  0
   -0.7145   -0.2062    0.0000 C   0  0  0  0  0  0  0  2  0  0  0  0
   -0.7145    0.6188    0.0000 O   0  0  0  0  0  0  0  2  0  0  0  0
   -1.4289   -0.6187    0.0000 C   0  0  0  0  0  0  0  2  0  0  0  0
    1.4289   -0.6188    0.0000 C   0  0  0  0  0  0  0  2  0  0  0  0
  1  2  2  0        0
  2  3  1  0        0
  3  4  1  0        0
  4  5  2  0        0
  4  6  1  0        0
  2  7  1  0        0
M  END
$$$$

CDXL12

  7  7  0  0  0  0  0  0  0  0999 V2000
    1.4521    0.4048    0.0000 O   0  0  0  0  0  0  0  2  0  0  0  0
    0.6674    0.1498    0.0000 C   0  0  0  0  0  0  0  2  0  0  0  0
    0.4125   -0.6348    0.0000 O   0  0  0  0  0  0  0  2  0  0  0  0
   -0.4125   -0.6348    0.0000 C   0  0  0  0  0  0  0  2  0  0  0  0
   -0.6674    0.1498    0.0000 C   0  0  0  0  0  0  0  2  0  0  0  0
   -1.4521    0.4048    0.0000 C   0  0  0  0  0  0  0  2  0  0  0  0
   -0.0000    0.6348    0.0000 O   0  0  0  0  0  0  0  2  0  0  0  0
  1  2  2  0        0
  2  3  1  0        0
  3  4  1  0        0
  4  5  1  0        0
  5  6  1  0        0
  5  7  1  0        0
  2  7  1  0        0
M  END
$$$$

CDXL12

  8  8  0  0  0  0  0  0  0  0999 V2000
    0.7145    0.4125    0.0000 C   0  0  0  0  0  0  0  2  0  0  0  0
    0.7145   -0.4125    0.0000 C   0  0  0  0  0  0  0  2  0  0  0  0
    0.0000   -0.8250    0.0000 C   0  0  0  0  0  0  0  2  0  0  0  0
   -0.7145   -0.4125    0.0000 C   0  0  0  0  0  0  0  2  0  0  0  0
   -0.7145    0.4125    0.0000 C   0  0  0  0  0  0  0  2  0  0  0  0
   -1.4289    0.8250    0.0000 Br  0  0  0  0  0  0  0  2  0  0  0  0
    0.0000    0.8250    0.0000 C   0  0  0  0  0  0  0  2  0  0  0  0
    1.4289    0.8250    0.0000 Cl  0  0  0  0  0  0  0  2  0  0  0  0
  1  2  4  0        0
  2  3  4  0        0
  3  4  4  0        0
  4  5  4  0        0
  5  6  1  0        0
  5  7  4  0        0
  1  7  4  0        0
  1  8  1  0        0
M  END
$$$$

CDXL12

  8  8  0  0  0  0  0  0  0  0999 V2000
    0.7145    0.4125    0.0000 C   0  0  0  0  0  0  0  2  0  0  0  0
    0.7145   -0.4125    0.0000 C   0  0  0  0  0  0  0  2  0  0  0  0
    0.0000   -0.8250    0.0000 C   0  0  0  0  0  0  0  2  0  0  0  0
   -0.7145   -0.4125    0.0000 C   0  0  0  0  0  0  0  2  0  0  0  0
   -0.7145    0.4125    0.0000 C   0  0  0  0  0  0  0  2  0  0  0  0
   -1.4289    0.8250    0.0000 C   0  0  0  0  0  0  0  2  0  0  0  0
    0.0000    0.8250    0.0000 C   0  0  0  0  0  0  0  2  0  0  0  0
    1.4289    0.8250    0.0000 C   0  0  0  0  0  0  0  2  0  0  0  0
  1  2  4  0        0
  2  3  4  0        0
  3  4  4  0        0
  4  5  4  0        0
  5  6  1  0        0
  5  7  4  0        0
  1  7  4  0        0
  1  8  1  0        0
M  END
$$$$

CDXL12

  8  8  0  0  0  0  0  0  0  0999 V2000
    1.4289    0.8250    0.0000 O   0  0  0  0  0  0  0  2  0  0  0  0
    0.7145    0.4125    0.0000 C   0  0  0  0  0  0  0  2  0  0  0  0
    0.7145   -0.4125    0.0000 C   0  0  0  0  0  0  0  2  0  0  0  0
    0.0000   -0.8250    0.0000 C   0  0  0  0  0  0  0  2  0  0  0  0
   -0.7145   -0.4125    0.0000 C   0  0  0  0  0  0  0  2  0  0  0  0
   -0.7145    0.4125    0.0000 C   0  0  0  0  0  0  0  2  0  0  0  0
   -1.4289    0.8250    0.0000 C   0  0  0  0  0  0  0  2  0  0  0  0
    0.0000    0.8250    0.0000 C   0  0  0  0  0  0  0  2  0  0  0  0
  1  2  1  0        0
  2  3  4  0        0
  3  4  4  0        0
  4  5  4  0        0
  5  6  4  0        0
  6  7  1  0        0
  6  8  4  0        0
  2  8  4  0        0
M  END
$$$$

CDXL12

  8  8  0  0  0  0  0  0  0  0999 V2000
    0.7145    0.4125    0.0000 C   0  0  0  0  0  0  0  2  0  0  0  0
    0.7145   -0.4125    0.0000 C   0  0  0  0  0  0  0  2  0  0  0  0
    0.0000   -0.8250    0.0000 C   0  0  0  0  0  0  0  2  0  0  0  0
   -0.7145   -0.4125    0.0000 C   0  0  0  0  0  0  0  2  0  0  0  0
   -0.7145    0.4125    0.0000 C   0  0  0  0  0  0  0  2  0  0  0  0
   -1.4289    0.8250    0.0000 Cl  0  0  0  0  0  0  0  2  0  0  0  0
    0.0000    0.8250    0.0000 C   0  0  0  0  0  0  0  2  0  0  0  0
    1.4289    0.8250    0.0000 C   0  0  0  0  0  0  0  2  0  0  0  0
  1  2  4  0        0
  2  3  4  0        0
  3  4  4  0        0
  4  5  4  0        0
  5  6  1  0        0
  5  7  4  0        0
  1  7  4  0        0
  1  8  1  0        0
M  END
$$$$

CDXL12

  8  8  0  0  0  0  0  0  0  0999 V2000
    1.4289    0.8250    0.0000 N   0  0  0  0  0  0  0  2  0  0  0  0
    0.7145    0.4125    0.0000 C   0  0  0  0  0  0  0  2  0  0  0  0
    0.7145   -0.4125    0.0000 C   0  0  0  0  0  0  0  2  0  0  0  0
    0.0000   -0.8250    0.0000 C   0  0  0  0  0  0  0  2  0  0  0  0
   -0.7145   -0.4125    0.0000 C   0  0  0  0  0  0  0  2  0  0  0  0
   -0.7145    0.4125    0.0000 C   0  0  0  0  0  0  0  2  0  0  0  0
   -1.4289    0.8250    0.0000 Cl  0  0  0  0  0  0  0  2  0  0  0  0
    0.0000    0.8250    0.0000 C   0  0  0  0  0  0  0  2  0  0  0  0
  1  2  1  0        0
  2  3  4  0        0
  3  4  4  0        0
  4  5  4  0        0
  5  6  4  0        0
  6  7  1  0        0
  6  8  4  0        0
  2  8  4  0        0
M  END
$$$$

CDXL12

  8  8  0  0  0  0  0  0  0  0999 V2000
    1.4289    0.8250    0.0000 O   0  0  0  0  0  0  0  2  0  0  0  0
    0.7145    0.4125    0.0000 C   0  0  0  0  0  0  0  2  0  0  0  0
    0.7145   -0.4125    0.0000 C   0  0  0  0  0  0  0  2  0  0  0  0
    0.0000   -0.8250    0.0000 C   0  0  0  0  0  0  0  2  0  0  0  0
   -0.7145   -0.4125    0.0000 C   0  0  0  0  0  0  0  2  0  0  0  0
   -0.7145    0.4125    0.0000 C   0  0  0  0  0  0  0  2  0  0  0  0
   -1.4289    0.8250    0.0000 Cl  0  0  0  0  0  0  0  2  0  0  0  0
    0.0000    0.8250    0.0000 C   0  0  0  0  0  0  0  2  0  0  0  0
  1  2  1  0        0
  2  3  4  0        0
  3  4  4  0        0
  4  5  4  0        0
  5  6  4  0        0
  6  7  1  0        0
  6  8  4  0        0
  2  8  4  0        0
M  END
$$$$

CDXL12

  8  8  0  0  0  0  0  0  0  0999 V2000
    1.4289    0.8250    0.0000 N   0  0  0  0  0  0  0  2  0  0  0  0
    0.7145    0.4125    0.0000 C   0  0  0  0  0  0  0  2  0  0  0  0
    0.7145   -0.4125    0.0000 C   0  0  0  0  0  0  0  2  0  0  0  0
    0.0000   -0.8250    0.0000 C   0  0  0  0  0  0  0  2  0  0  0  0
   -0.7145   -0.4125    0.0000 C   0  0  0  0  0  0  0  2  0  0  0  0
   -0.7145    0.4125    0.0000 C   0  0  0  0  0  0  0  2  0  0  0  0
   -1.4289    0.8250    0.0000 C   0  0  0  0  0  0  0  2  0  0  0  0
    0.0000    0.8250    0.0000 C   0  0  0  0  0  0  0  2  0  0  0  0
  1  2  1  0        0
  2  3  4  0        0
  3  4  4  0        0
  4  5  4  0        0
  5  6  4  0        0
  6  7  1  0        0
  6  8  4  0        0
  2  8  4  0        0
M  END
$$$$

CDXL12

  8  8  0  0  0  0  0  0  0  0999 V2000
    0.0000    0.8250    0.0000 N   0  0  0  0  0  0  0  2  0  0  0  0
    0.7145    0.4125    0.0000 C   0  0  0  0  0  0  0  2  0  0  0  0
    1.4289    0.8250    0.0000 C   0  0  0  0  0  0  0  2  0  0  0  0
    0.7145   -0.4125    0.0000 C   0  0  0  0  0  0  0  2  0  0  0  0
    0.0000   -0.8250    0.0000 C   0  0  0  0  0  0  0  2  0  0  0  0
   -0.7145   -0.4125    0.0000 C   0  0  0  0  0  0  0  2  0  0  0  0
   -0.7145    0.4125    0.0000 C   0  0  0  0  0  0  0  2  0  0  0  0
   -1.4289    0.8250    0.0000 C   0  0  0  0  0  0  0  2  0  0  0  0
  1  2  4  0        0
  2  3  1  0        0
  2  4  4  0        0
  4  5  4  0        0
  5  6  4  0        0
  6  7  4  0        0
  1  7  4  0        0
  7  8  1  0        0
M  END
$$$$

CDXL12

  9  8  0  0  0  0  0  0  0  0999 V2000
    0.0000   -0.6188    0.0000 O   0  0  0  0  0  0  0  2  0  0  0  0
    0.7145   -0.2062    0.0000 C   0  0  0  0  0  0  0  2  0  0  0  0
    1.4289   -0.6188    0.0000 C   0  0  0  0  0  0  0  2  0  0  0  0
    2.1434   -0.2062    0.0000 Cl  0  0  0  0  0  0  0  2  0  0  0  0
    0.7145    0.6187    0.0000 C   0  0  0  0  0  0  0  2  0  0  0  0
   -0.7145   -0.2062    0.0000 C   0  0  0  0  0  0  0  2  0  0  0  0
   -1.4289   -0.6187    0.0000 C   0  0  0  0  0  0  0  2  0  0  0  0
   -2.1434   -0.2062    0.0000 Cl  0  0  0  0  0  0  0  2  0  0  0  0
   -0.7145    0.6188    0.0000 C   0  0  0  0  0  0  0  2  0  0  0  0
  1  2  1  0        0
  2  3  1  0        0
  3  4  1  0        0
  2  5  1  0        0
  1  6  1  0        0
  6  7  1  0        0
  7  8  1  0        0
  6  9  1  0        0
M  END
$$$$

CDXL12

 12 12  0  0  0  0  0  0  0  0999 V2000
    1.7581   -0.7282    0.0000 C   0  0  0  0  0  0  0  2  0  0  0  0
    0.9959   -0.4125    0.0000 C   0  0  0  0  0  0  0  2  0  0  0  0
    0.4125   -0.9959    0.0000 O   0  0  0  0  0  0  0  2  0  0  0  0
   -0.4125   -0.9959    0.0000 C   0  0  0  0  0  0  0  2  0  0  0  0
   -0.7282   -1.7581    0.0000 C   0  0  0  0  0  0  0  2  0  0  0  0
   -0.9959   -0.4125    0.0000 O   0  0  0  0  0  0  0  2  0  0  0  0
   -0.9959    0.4125    0.0000 C   0  0  0  0  0  0  0  2  0  0  0  0
   -1.7581    0.7282    0.0000 C   0  0  0  0  0  0  0  2  0  0  0  0
   -0.4125    0.9959    0.0000 O   0  0  0  0  0  0  0  2  0  0  0  0
    0.4125    0.9959    0.0000 C   0  0  0  0  0  0  0  2  0  0  0  0
    0.7282    1.7581    0.0000 C   0  0  0  0  0  0  0  2  0  0  0  0
    0.9959    0.4125    0.0000 O   0  0  0  0  0  0  0  2  0  0  0  0
  1  2  1  0        0
  2  3  1  0        0
  3  4  1  0        0
  4  5  1  0        0
  4  6  1  0        0
  6  7  1  0        0
  7  8  1  0        0
  7  9  1  0        0
  9 10  1  0        0
 10 11  1  0        0
 10 12  1  0        0
  2 12  1  0        0
M  END
$$$$

CDXL12

  9  8  0  0  0  0  0  0  0  0999 V2000
    0.0000    0.6187    0.0000 O   0  0  0  0  0  0  0  2  0  0  0  0
    0.0000   -0.2062    0.0000 C   0  0  0  0  0  0  0  2  0  0  0  0
    0.7145   -0.6188    0.0000 O   0  0  0  0  0  0  0  2  0  0  0  0
    1.4289   -0.2062    0.0000 C   0  0  0  0  0  0  0  2  0  0  0  0
    2.1434   -0.6187    0.0000 C   0  0  0  0  0  0  0  2  0  0  0  0
   -0.7145   -0.6188    0.0000 C   0  0  0  0  0  0  0  2  0  0  0  0
   -1.4289   -0.2062    0.0000 C   0  0  0  0  0  0  0  2  0  0  0  0
   -1.4289    0.6188    0.0000 C   0  0  0  0  0  0  0  2  0  0  0  0
   -2.1434   -0.6187    0.0000 C   0  0  0  0  0  0  0  2  0  0  0  0
  1  2  2  0        0
  2  3  1  0        0
  3  4  1  0        0
  4  5  1  0        0
  2  6  1  0        0
  6  7  1  0        0
  7  8  1  0        0
  7  9  1  0        0
M  END
$$$$

CDXL12

  9  8  0  0  0  0  0  0  0  0999 V2000
    2.1434   -0.6187    0.0000 C   0  0  0  0  0  0  0  2  0  0  0  0
    1.4289   -0.2062    0.0000 O   0  0  0  0  0  0  0  2  0  0  0  0
    0.7145   -0.6187    0.0000 C   0  0  0  0  0  0  0  2  0  0  0  0
    0.0000   -0.2062    0.0000 C   0  0  0  0  0  0  0  2  0  0  0  0
   -0.7145   -0.6187    0.0000 O   0  0  0  0  0  0  0  2  0  0  0  0
   -1.4289   -0.2062    0.0000 C   0  0  0  0  0  0  0  2  0  0  0  0
   -1.4289    0.6187    0.0000 O   0  0  0  0  0  0  0  2  0  0  0  0
   -2.1434   -0.6187    0.0000 C   0  0  0  0  0  0  0  2  0  0  0  0
    0.0000    0.6187    0.0000 C   0  0  0  0  0  0  0  2  0  0  0  0
  1  2  1  0        0
  2  3  1  0        0
  3  4  1  0        0
  4  5  1  0        0
  5  6  1  0        0
  6  7  2  0        0
  6  8  1  0        0
  4  9  1  0        0
M  END
$$$$

CDXL12

  9  9  0  0  0  0  0  0  0  0999 V2000
    0.7145    0.8250    0.0000 C   0  0  0  0  0  0  0  2  0  0  0  0
    0.7145   -0.0000    0.0000 C   0  0  0  0  0  0  0  2  0  0  0  0
    0.0000   -0.4125    0.0000 C   0  0  0  0  0  0  0  2  0  0  0  0
   -0.7145   -0.0000    0.0000 C   0  0  0  0  0  0  0  2  0  0  0  0
   -0.7145    0.8250    0.0000 C   0  0  0  0  0  0  0  2  0  0  0  0
   -1.4289    1.2375    0.0000 C   0  0  0  0  0  0  0  2  0  0  0  0
    0.0000    1.2375    0.0000 C   0  0  0  0  0  0  0  2  0  0  0  0
    0.0000   -1.2375    0.0000 C   0  0  0  0  0  0  0  2  0  0  0  0
    1.4289    1.2375    0.0000 C   0  0  0  0  0  0  0  2  0  0  0  0
  1  2  4  0        0
  2  3  4  0        0
  3  4  4  0        0
  4  5  4  0        0
  5  6  1  0        0
  5  7  4  0        0
  1  7  4  0        0
  3  8  1  0        0
  1  9  1  0        0
M  END
$$$$

CDXL12

  9  9  0  0  0  0  0  0  0  0999 V2000
    1.4289    1.2375    0.0000 O   0  0  0  0  0  0  0  2  0  0  0  0
    0.7145    0.8250    0.0000 C   0  0  0  0  0  0  0  2  0  0  0  0
    0.7145   -0.0000    0.0000 C   0  0  0  0  0  0  0  2  0  0  0  0
    0.0000   -0.4125    0.0000 C   0  0  0  0  0  0  0  2  0  0  0  0
   -0.7145   -0.0000    0.0000 C   0  0  0  0  0  0  0  2  0  0  0  0
   -0.7145    0.8250    0.0000 C   0  0  0  0  0  0  0  2  0  0  0  0
   -1.4289    1.2375    0.0000 C   0  0  0  0  0  0  0  2  0  0  0  0
    0.0000    1.2375    0.0000 C   0  0  0  0  0  0  0  2  0  0  0  0
    0.0000   -1.2375    0.0000 C   0  0  0  0  0  0  0  2  0  0  0  0
  1  2  1  0        0
  2  3  4  0        0
  3  4  4  0        0
  4  5  4  0        0
  5  6  4  0        0
  6  7  1  0        0
  6  8  4  0        0
  2  8  4  0        0
  4  9  1  0        0
M  END
$$$$

CDXL12

  9  9  0  0  0  0  0  0  0  0999 V2000
    0.7145    0.8250    0.0000 C   0  0  0  0  0  0  0  2  0  0  0  0
    0.7145   -0.0000    0.0000 C   0  0  0  0  0  0  0  2  0  0  0  0
    0.0000   -0.4125    0.0000 C   0  0  0  0  0  0  0  2  0  0  0  0
   -0.7145   -0.0000    0.0000 C   0  0  0  0  0  0  0  2  0  0  0  0
   -0.7145    0.8250    0.0000 C   0  0  0  0  0  0  0  2  0  0  0  0
   -1.4289    1.2375    0.0000 Cl  0  0  0  0  0  0  0  2  0  0  0  0
    0.0000    1.2375    0.0000 C   0  0  0  0  0  0  0  2  0  0  0  0
    0.0000   -1.2375    0.0000 Cl  0  0  0  0  0  0  0  2  0  0  0  0
    1.4289    1.2375    0.0000 Cl  0  0  0  0  0  0  0  2  0  0  0  0
  1  2  4  0        0
  2  3  4  0        0
  3  4  4  0        0
  4  5  4  0        0
  5  6  1  0        0
  5  7  4  0        0
  1  7  4  0        0
  3  8  1  0        0
  1  9  1  0        0
M  END
$$$$

CDXL12

  9  9  0  0  0  0  0  0  0  0999 V2000
    1.4289    1.2375    0.0000 O   0  0  0  0  0  0  0  2  0  0  0  0
    0.7145    0.8250    0.0000 C   0  0  0  0  0  0  0  2  0  0  0  0
    0.7145   -0.0000    0.0000 C   0  0  0  0  0  0  0  2  0  0  0  0
    0.0000   -0.4125    0.0000 C   0  0  0  0  0  0  0  2  0  0  0  0
    0.0000   -1.2375    0.0000 O   0  0  0  0  0  0  0  2  0  0  0  0
   -0.7145   -0.0000    0.0000 C   0  0  0  0  0  0  0  2  0  0  0  0
   -0.7145    0.8250    0.0000 C   0  0  0  0  0  0  0  2  0  0  0  0
   -1.4289    1.2375    0.0000 O   0  0  0  0  0  0  0  2  0  0  0  0
    0.0000    1.2375    0.0000 C   0  0  0  0  0  0  0  2  0  0  0  0
  1  2  1  0        0
  2  3  4  0        0
  3  4  4  0        0
  4  5  1  0        0
  4  6  4  0        0
  6  7  4  0        0
  7  8  1  0        0
  7  9  4  0        0
  2  9  4  0        0
M  END
$$$$

CDXL12

  9  9  0  0  0  0  0  0  0  0999 V2000
    0.7145   -0.0000    0.0000 N   0  0  0  0  0  0  0  2  0  0  0  0
    0.0000   -0.4125    0.0000 C   0  0  0  0  0  0  0  2  0  0  0  0
   -0.7145   -0.0000    0.0000 C   0  0  0  0  0  0  0  2  0  0  0  0
   -0.7145    0.8250    0.0000 C   0  0  0  0  0  0  0  2  0  0  0  0
    0.0000    1.2375    0.0000 C   0  0  0  0  0  0  0  2  0  0  0  0
    0.7145    0.8250    0.0000 C   0  0  0  0  0  0  0  2  0  0  0  0
    1.4289    1.2375    0.0000 C   0  0  0  0  0  0  0  2  0  0  0  0
   -1.4289    1.2375    0.0000 C   0  0  0  0  0  0  0  2  0  0  0  0
    0.0000   -1.2375    0.0000 C   0  0  0  0  0  0  0  2  0  0  0  0
  1  2  4  0        0
  2  3  4  0        0
  3  4  4  0        0
  4  5  4  0        0
  5  6  4  0        0
  1  6  4  0        0
  6  7  1  0        0
  4  8  1  0        0
  2  9  1  0        0
M  END
$$$$

CDXL12

  9  9  0  0  0  0  0  0  0  0999 V2000
    0.7145   -0.0000    0.0000 N   0  0  0  0  0  0  0  2  0  0  0  0
    0.0000   -0.4125    0.0000 C   0  0  0  0  0  0  0  2  0  0  0  0
   -0.7145   -0.0000    0.0000 N   0  0  0  0  0  0  0  2  0  0  0  0
   -0.7145    0.8250    0.0000 C   0  0  0  0  0  0  0  2  0  0  0  0
    0.0000    1.2375    0.0000 N   0  0  0  0  0  0  0  2  0  0  0  0
    0.7145    0.8250    0.0000 C   0  0  0  0  0  0  0  2  0  0  0  0
    1.4289    1.2375    0.0000 N   0  0  0  0  0  0  0  2  0  0  0  0
   -1.4289    1.2375    0.0000 N   0  0  0  0  0  0  0  2  0  0  0  0
    0.0000   -1.2375    0.0000 N   0  0  0  0  0  0  0  2  0  0  0  0
  1  2  4  0        0
  2  3  4  0        0
  3  4  4  0        0
  4  5  4  0        0
  5  6  4  0        0
  1  6  4  0        0
  6  7  1  0        0
  4  8  1  0        0
  2  9  1  0        0
M  END
$$$$

CDXL12

  9  9  0  0  0  0  0  0  0  0999 V2000
    0.7145   -0.0000    0.0000 N   0  0  0  0  0  0  0  2  0  0  0  0
    0.0000   -0.4125    0.0000 C   0  0  0  0  0  0  0  2  0  0  0  0
    0.0000   -1.2375    0.0000 O   0  0  0  0  0  0  0  2  0  0  0  0
   -0.7145   -0.0000    0.0000 N   0  0  0  0  0  0  0  2  0  0  0  0
   -0.7145    0.8250    0.0000 C   0  0  0  0  0  0  0  2  0  0  0  0
   -1.4289    1.2375    0.0000 O   0  0  0  0  0  0  0  2  0  0  0  0
    0.0000    1.2375    0.0000 N   0  0  0  0  0  0  0  2  0  0  0  0
    0.7145    0.8250    0.0000 C   0  0  0  0  0  0  0  2  0  0  0  0
    1.4289    1.2375    0.0000 O   0  0  0  0  0  0  0  2  0  0  0  0
  1  2  4  0        0
  2  3  1  0        0
  2  4  4  0        0
  4  5  4  0        0
  5  6  1  0        0
  5  7  4  0        0
  7  8  4  0        0
  1  8  4  0        0
  8  9  1  0        0
M  END
$$$$

CDXL12

 10  9  0  0  0  0  0  0  0  0999 V2000
    0.0000    0.6187    0.0000 O   0  0  0  0  0  0  0  2  0  0  0  0
    0.0000   -0.2062    0.0000 C   0  0  0  0  0  0  0  2  0  0  0  0
    0.7145   -0.6188    0.0000 C   0  0  0  0  0  0  0  2  0  0  0  0
    1.4289   -0.2062    0.0000 C   0  0  0  0  0  0  0  2  0  0  0  0
    1.4289    0.6187    0.0000 C   0  0  0  0  0  0  0  2  0  0  0  0
    2.1434   -0.6188    0.0000 C   0  0  0  0  0  0  0  2  0  0  0  0
   -0.7145   -0.6188    0.0000 C   0  0  0  0  0  0  0  2  0  0  0  0
   -1.4289   -0.2062    0.0000 C   0  0  0  0  0  0  0  2  0  0  0  0
   -2.1434   -0.6187    0.0000 C   0  0  0  0  0  0  0  2  0  0  0  0
   -1.4289    0.6188    0.0000 C   0  0  0  0  0  0  0  2  0  0  0  0
  1  2  1  0        0
  2  3  1  0        0
  3  4  1  0        0
  4  5  1  0        0
  4  6  1  0        0
  2  7  1  0        0
  7  8  1  0        0
  8  9  1  0        0
  8 10  1  0        0
M  END
$$$$

CDXL12

 10  9  0  0  0  0  0  0  0  0999 V2000
    0.0000    0.6187    0.0000 O   0  0  0  0  0  0  0  2  0  0  0  0
    0.0000   -0.2062    0.0000 C   0  0  0  0  0  0  0  2  0  0  0  0
    0.7145   -0.6188    0.0000 C   0  0  0  0  0  0  0  2  0  0  0  0
    1.4289   -0.2062    0.0000 C   0  0  0  0  0  0  0  2  0  0  0  0
    1.4289    0.6187    0.0000 C   0  0  0  0  0  0  0  2  0  0  0  0
    2.1434   -0.6188    0.0000 C   0  0  0  0  0  0  0  2  0  0  0  0
   -0.7145   -0.6188    0.0000 C   0  0  0  0  0  0  0  2  0  0  0  0
   -1.4289   -0.2062    0.0000 C   0  0  0  0  0  0  0  2  0  0  0  0
   -2.1434   -0.6187    0.0000 C   0  0  0  0  0  0  0  2  0  0  0  0
   -1.4289    0.6188    0.0000 C   0  0  0  0  0  0  0  2  0  0  0  0
  1  2  2  0        0
  2  3  1  0        0
  3  4  1  0        0
  4  5  1  0        0
  4  6  1  0        0
  2  7  1  0        0
  7  8  1  0        0
  8  9  1  0        0
  8 10  1  0        0
M  END
$$$$

CDXL12

 10  9  0  0  0  0  0  0  0  0999 V2000
   -1.4289    0.6187    0.0000 O   0  0  0  0  0  0  0  2  0  0  0  0
   -1.4289   -0.2062    0.0000 C   0  0  0  0  0  0  0  2  0  0  0  0
   -0.7145   -0.6188    0.0000 O   0  0  0  0  0  0  0  2  0  0  0  0
   -0.0000   -0.2062    0.0000 C   0  0  0  0  0  0  0  2  0  0  0  0
    0.7145   -0.6188    0.0000 C   0  0  0  0  0  0  0  2  0  0  0  0
    1.4289   -0.2062    0.0000 C   0  0  0  0  0  0  0  2  0  0  0  0
    2.1434   -0.6187    0.0000 C   0  0  0  0  0  0  0  2  0  0  0  0
    1.4289    0.6188    0.0000 C   0  0  0  0  0  0  0  2  0  0  0  0
   -0.0000    0.6187    0.0000 C   0  0  0  0  0  0  0  2  0  0  0  0
   -2.1434   -0.6188    0.0000 C   0  0  0  0  0  0  0  2  0  0  0  0
  1  2  2  0        0
  2  3  1  0        0
  3  4  1  0        0
  4  5  1  0        0
  5  6  1  0        0
  6  7  1  0        0
  6  8  1  0        0
  4  9  1  0        0
  2 10  1  0        0
M  END
$$$$

CDXL12

  7  7  0  0  0  0  0  0  0  0999 V2000
    0.3572    0.4125    0.0000 C   0  0  0  0  0  0  0  2  0  0  0  0
    0.3572   -0.4125    0.0000 C   0  0  0  0  0  0  0  2  0  0  0  0
   -0.3572   -0.8250    0.0000 C   0  0  0  0  0  0  0  2  0  0  0  0
   -1.0717   -0.4125    0.0000 C   0  0  0  0  0  0  0  2  0  0  0  0
   -1.0717    0.4125    0.0000 C   0  0  0  0  0  0  0  2  0  0  0  0
   -0.3572    0.8250    0.0000 C   0  0  0  0  0  0  0  2  0  0  0  0
    1.0717    0.8250    0.0000 Br  0  0  0  0  0  0  0  2  0  0  0  0
  1  2  4  0        0
  2  3  4  0        0
  3  4  4  0        0
  4  5  4  0        0
  5  6  4  0        0
  1  6  4  0        0
  1  7  1  0        0
M  END
$$$$

CDXL12

  7  7  0  0  0  0  0  0  0  0999 V2000
    0.3572    0.4125    0.0000 C   0  0  0  0  0  0  0  2  0  0  0  0
    0.3572   -0.4125    0.0000 C   0  0  0  0  0  0  0  2  0  0  0  0
   -0.3572   -0.8250    0.0000 C   0  0  0  0  0  0  0  2  0  0  0  0
   -1.0717   -0.4125    0.0000 C   0  0  0  0  0  0  0  2  0  0  0  0
   -1.0717    0.4125    0.0000 C   0  0  0  0  0  0  0  2  0  0  0  0
   -0.3572    0.8250    0.0000 C   0  0  0  0  0  0  0  2  0  0  0  0
    1.0717    0.8250    0.0000 C   0  0  0  0  0  0  0  2  0  0  0  0
  1  2  1  0        0
  2  3  1  0        0
  3  4  1  0        0
  4  5  1  0        0
  5  6  1  0        0
  1  6  1  0        0
  1  7  1  0        0
M  END
$$$$

CDXL12

  7  7  0  0  0  0  0  0  0  0999 V2000
    0.3572    0.4125    0.0000 C   0  0  0  0  0  0  0  2  0  0  0  0
    0.3572   -0.4125    0.0000 C   0  0  0  0  0  0  0  2  0  0  0  0
   -0.3572   -0.8250    0.0000 C   0  0  0  0  0  0  0  2  0  0  0  0
   -1.0717   -0.4125    0.0000 C   0  0  0  0  0  0  0  2  0  0  0  0
   -1.0717    0.4125    0.0000 C   0  0  0  0  0  0  0  2  0  0  0  0
   -0.3572    0.8250    0.0000 C   0  0  0  0  0  0  0  2  0  0  0  0
    1.0717    0.8250    0.0000 C   0  0  0  0  0  0  0  2  0  0  0  0
  1  2  4  0        0
  2  3  4  0        0
  3  4  4  0        0
  4  5  4  0        0
  5  6  4  0        0
  1  6  4  0        0
  1  7  1  0        0
M  END
$$$$

CDXL12

  7  7  0  0  0  0  0  0  0  0999 V2000
   -1.0717   -0.4125    0.0000 N   0  0  0  0  0  0  0  2  0  0  0  0
   -1.0717    0.4125    0.0000 C   0  0  0  0  0  0  0  2  0  0  0  0
   -0.3572    0.8250    0.0000 C   0  0  0  0  0  0  0  2  0  0  0  0
    0.3572    0.4125    0.0000 C   0  0  0  0  0  0  0  2  0  0  0  0
    0.3572   -0.4125    0.0000 C   0  0  0  0  0  0  0  2  0  0  0  0
   -0.3572   -0.8250    0.0000 C   0  0  0  0  0  0  0  2  0  0  0  0
    1.0717    0.8250    0.0000 C   0  0  0  0  0  0  0  2  0  0  0  0
  1  2  4  0        0
  2  3  4  0        0
  3  4  4  0        0
  4  5  4  0        0
  5  6  4  0        0
  1  6  4  0        0
  4  7  1  0        0
M  END
$$$$

CDXL12

  7  7  0  0  0  0  0  0  0  0999 V2000
    0.3572    0.4125    0.0000 C   0  0  0  0  0  0  0  2  0  0  0  0
    0.3572   -0.4125    0.0000 C   0  0  0  0  0  0  0  2  0  0  0  0
   -0.3572   -0.8250    0.0000 C   0  0  0  0  0  0  0  2  0  0  0  0
   -1.0717   -0.4125    0.0000 C   0  0  0  0  0  0  0  2  0  0  0  0
   -1.0717    0.4125    0.0000 C   0  0  0  0  0  0  0  2  0  0  0  0
   -0.3572    0.8250    0.0000 C   0  0  0  0  0  0  0  2  0  0  0  0
    1.0717    0.8250    0.0000 Cl  0  0  0  0  0  0  0  2  0  0  0  0
  1  2  4  0        0
  2  3  4  0        0
  3  4  4  0        0
  4  5  4  0        0
  5  6  4  0        0
  1  6  4  0        0
  1  7  1  0        0
M  END
$$$$

CDXL12

  7  7  0  0  0  0  0  0  0  0999 V2000
    1.0717    0.8250    0.0000 O   0  0  0  0  0  0  0  2  0  0  0  0
    0.3572    0.4125    0.0000 C   0  0  0  0  0  0  0  2  0  0  0  0
    0.3572   -0.4125    0.0000 C   0  0  0  0  0  0  0  2  0  0  0  0
   -0.3572   -0.8250    0.0000 C   0  0  0  0  0  0  0  2  0  0  0  0
   -1.0717   -0.4125    0.0000 C   0  0  0  0  0  0  0  2  0  0  0  0
   -1.0717    0.4125    0.0000 C   0  0  0  0  0  0  0  2  0  0  0  0
   -0.3572    0.8250    0.0000 C   0  0  0  0  0  0  0  2  0  0  0  0
  1  2  1  0        0
  2  3  1  0        0
  3  4  1  0        0
  4  5  1  0        0
  5  6  1  0        0
  6  7  1  0        0
  2  7  1  0        0
M  END
$$$$

CDXL12

  7  7  0  0  0  0  0  0  0  0999 V2000
    1.0717    0.8250    0.0000 O   0  0  0  0  0  0  0  2  0  0  0  0
    0.3572    0.4125    0.0000 C   0  0  0  0  0  0  0  2  0  0  0  0
    0.3572   -0.4125    0.0000 C   0  0  0  0  0  0  0  2  0  0  0  0
   -0.3572   -0.8250    0.0000 C   0  0  0  0  0  0  0  2  0  0  0  0
   -1.0717   -0.4125    0.0000 C   0  0  0  0  0  0  0  2  0  0  0  0
   -1.0717    0.4125    0.0000 C   0  0  0  0  0  0  0  2  0  0  0  0
   -0.3572    0.8250    0.0000 C   0  0  0  0  0  0  0  2  0  0  0  0
  1  2  2  0        0
  2  3  1  0        0
  3  4  1  0        0
  4  5  1  0        0
  5  6  1  0        0
  6  7  1  0        0
  2  7  1  0        0
M  END
$$$$

CDXL12

  7  7  0  0  0  0  0  0  0  0999 V2000
    1.0717    0.8250    0.0000 S   0  0  0  0  0  0  0  2  0  0  0  0
    0.3572    0.4125    0.0000 C   0  0  0  0  0  0  0  2  0  0  0  0
    0.3572   -0.4125    0.0000 C   0  0  0  0  0  0  0  2  0  0  0  0
   -0.3572   -0.8250    0.0000 C   0  0  0  0  0  0  0  2  0  0  0  0
   -1.0717   -0.4125    0.0000 C   0  0  0  0  0  0  0  2  0  0  0  0
   -1.0717    0.4125    0.0000 C   0  0  0  0  0  0  0  2  0  0  0  0
   -0.3572    0.8250    0.0000 C   0  0  0  0  0  0  0  2  0  0  0  0
  1  2  1  0        0
  2  3  4  0        0
  3  4  4  0        0
  4  5  4  0        0
  5  6  4  0        0
  6  7  4  0        0
  2  7  4  0        0
M  END
$$$$

CDXL12

  7  7  0  0  0  0  0  0  0  0999 V2000
   -0.3572   -0.8250    0.0000 N   0  0  0  0  0  0  0  2  0  0  0  0
   -1.0717   -0.4125    0.0000 C   0  0  0  0  0  0  0  2  0  0  0  0
   -1.0717    0.4125    0.0000 C   0  0  0  0  0  0  0  2  0  0  0  0
   -0.3572    0.8250    0.0000 C   0  0  0  0  0  0  0  2  0  0  0  0
    0.3572    0.4125    0.0000 C   0  0  0  0  0  0  0  2  0  0  0  0
    1.0717    0.8250    0.0000 C   0  0  0  0  0  0  0  2  0  0  0  0
    0.3572   -0.4125    0.0000 C   0  0  0  0  0  0  0  2  0  0  0  0
  1  2  4  0        0
  2  3  4  0        0
  3  4  4  0        0
  4  5  4  0        0
  5  6  1  0        0
  5  7  4  0        0
  1  7  4  0        0
M  END
$$$$

CDXL12

  7  7  0  0  0  0  0  0  0  0999 V2000
   -0.3572   -0.8250    0.0000 N   0  0  0  0  0  0  0  2  0  0  0  0
   -1.0717   -0.4125    0.0000 C   0  0  0  0  0  0  0  2  0  0  0  0
   -1.0717    0.4125    0.0000 C   0  0  0  0  0  0  0  2  0  0  0  0
   -0.3572    0.8250    0.0000 C   0  0  0  0  0  0  0  2  0  0  0  0
    0.3572    0.4125    0.0000 C   0  0  0  0  0  0  0  2  0  0  0  0
    1.0717    0.8250    0.0000 O   0  0  0  0  0  0  0  2  0  0  0  0
    0.3572   -0.4125    0.0000 C   0  0  0  0  0  0  0  2  0  0  0  0
  1  2  4  0        0
  2  3  4  0        0
  3  4  4  0        0
  4  5  4  0        0
  5  6  1  0        0
  5  7  4  0        0
  1  7  4  0        0
M  END
$$$$

CDXL12

  7  7  0  0  0  0  0  0  0  0999 V2000
   -0.3572    0.8250    0.0000 N   0  0  0  0  0  0  0  2  0  0  0  0
    0.3572    0.4125    0.0000 C   0  0  0  0  0  0  0  2  0  0  0  0
    0.3572   -0.4125    0.0000 C   0  0  0  0  0  0  0  2  0  0  0  0
   -0.3572   -0.8250    0.0000 C   0  0  0  0  0  0  0  2  0  0  0  0
   -1.0717   -0.4125    0.0000 C   0  0  0  0  0  0  0  2  0  0  0  0
   -1.0717    0.4125    0.0000 C   0  0  0  0  0  0  0  2  0  0  0  0
    1.0717    0.8250    0.0000 C   0  0  0  0  0  0  0  2  0  0  0  0
  1  2  4  0        0
  2  3  4  0        0
  3  4  4  0        0
  4  5  4  0        0
  5  6  4  0        0
  1  6  4  0        0
  2  7  1  0        0
M  END
$$$$

CDXL12

  7  7  0  0  0  0  0  0  0  0999 V2000
   -0.3572    0.8250    0.0000 N   0  0  0  0  0  0  0  2  0  0  0  0
    0.3572    0.4125    0.0000 C   0  0  0  0  0  0  0  2  0  0  0  0
    0.3572   -0.4125    0.0000 C   0  0  0  0  0  0  0  2  0  0  0  0
   -0.3572   -0.8250    0.0000 C   0  0  0  0  0  0  0  2  0  0  0  0
   -1.0717   -0.4125    0.0000 C   0  0  0  0  0  0  0  2  0  0  0  0
   -1.0717    0.4125    0.0000 C   0  0  0  0  0  0  0  2  0  0  0  0
    1.0717    0.8250    0.0000 Cl  0  0  0  0  0  0  0  2  0  0  0  0
  1  2  4  0        0
  2  3  4  0        0
  3  4  4  0        0
  4  5  4  0        0
  5  6  4  0        0
  1  6  4  0        0
  2  7  1  0        0
M  END
$$$$

CDXL12

 10  9  0  0  0  0  0  0  0  0999 V2000
   -0.7145    0.6187    0.0000 O   0  0  0  0  0  0  0  2  0  0  0  0
   -0.7145   -0.2062    0.0000 C   0  0  0  0  0  0  0  2  0  0  0  0
   -0.0000   -0.6187    0.0000 O   0  0  0  0  0  0  0  2  0  0  0  0
    0.7145   -0.2062    0.0000 C   0  0  0  0  0  0  0  2  0  0  0  0
    1.4289   -0.6187    0.0000 C   0  0  0  0  0  0  0  2  0  0  0  0
    2.1434   -0.2062    0.0000 C   0  0  0  0  0  0  0  2  0  0  0  0
    2.8579   -0.6187    0.0000 C   0  0  0  0  0  0  0  2  0  0  0  0
   -1.4289   -0.6187    0.0000 C   0  0  0  0  0  0  0  2  0  0  0  0
   -2.1434   -0.2062    0.0000 C   0  0  0  0  0  0  0  2  0  0  0  0
   -2.8579   -0.6187    0.0000 C   0  0  0  0  0  0  0  2  0  0  0  0
  1  2  2  0        0
  2  3  1  0        0
  3  4  1  0        0
  4  5  1  0        0
  5  6  1  0        0
  6  7  1  0        0
  2  8  1  0        0
  8  9  1  0        0
  9 10  1  0        0
M  END
$$$$

CDXL12

 22 21  0  0  0  0  0  0  0  0999 V2000
    3.2151   -1.0312    0.0000 O   0  0  0  0  0  0  0  2  0  0  0  0
    3.2151   -0.2062    0.0000 C   0  0  0  0  0  0  0  2  0  0  0  0
    3.9296    0.2063    0.0000 O   0  0  0  0  0  0  0  2  0  0  0  0
    4.6441   -0.2062    0.0000 C   0  0  0  0  0  0  0  2  0  0  0  0
    5.3585    0.2062    0.0000 C   0  0  0  0  0  0  0  2  0  0  0  0
    6.0730   -0.2062    0.0000 C   0  0  0  0  0  0  0  2  0  0  0  0
    6.7875    0.2062    0.0000 C   0  0  0  0  0  0  0  2  0  0  0  0
    2.5006    0.2062    0.0000 C   0  0  0  0  0  0  0  2  0  0  0  0
    1.7862   -0.2062    0.0000 C   0  0  0  0  0  0  0  2  0  0  0  0
    1.0717    0.2062    0.0000 C   0  0  0  0  0  0  0  2  0  0  0  0
    0.3572   -0.2062    0.0000 C   0  0  0  0  0  0  0  2  0  0  0  0
   -0.3572    0.2062    0.0000 C   0  0  0  0  0  0  0  2  0  0  0  0
   -1.0717   -0.2062    0.0000 C   0  0  0  0  0  0  0  2  0  0  0  0
   -1.7862    0.2062    0.0000 C   0  0  0  0  0  0  0  2  0  0  0  0
   -2.5006   -0.2062    0.0000 C   0  0  0  0  0  0  0  2  0  0  0  0
   -3.2151    0.2062    0.0000 C   0  0  0  0  0  0  0  2  0  0  0  0
   -3.2151    1.0312    0.0000 O   0  0  0  0  0  0  0  2  0  0  0  0
   -3.9296   -0.2062    0.0000 O   0  0  0  0  0  0  0  2  0  0  0  0
   -4.6441    0.2062    0.0000 C   0  0  0  0  0  0  0  2  0  0  0  0
   -5.3585   -0.2062    0.0000 C   0  0  0  0  0  0  0  2  0  0  0  0
   -6.0730    0.2062    0.0000 C   0  0  0  0  0  0  0  2  0  0  0  0
   -6.7875   -0.2062    0.0000 C   0  0  0  0  0  0  0  2  0  0  0  0
  1  2  2  0        0
  2  3  1  0        0
  3  4  1  0        0
  4  5  1  0        0
  5  6  1  0        0
  6  7  1  0        0
  2  8  1  0        0
  8  9  1  0        0
  9 10  1  0        0
 10 11  1  0        0
 11 12  1  0        0
 12 13  1  0        0
 13 14  1  0        0
 14 15  1  0        0
 15 16  1  0        0
 16 17  2  0        0
 16 18  1  0        0
 18 19  1  0        0
 19 20  1  0        0
 20 21  1  0        0
 21 22  1  0        0
M  END
$$$$

CDXL12

  7  6  0  0  0  0  0  0  0  0999 V2000
    0.3572   -0.2062    0.0000 O   0  0  0  0  0  0  0  2  0  0  0  0
    1.0717   -0.6187    0.0000 C   0  0  0  0  0  0  0  2  0  0  0  0
    1.7862   -0.2062    0.0000 C   0  0  0  0  0  0  0  2  0  0  0  0
   -0.3572   -0.6187    0.0000 C   0  0  0  0  0  0  0  2  0  0  0  0
   -1.0717   -0.2062    0.0000 C   0  0  0  0  0  0  0  2  0  0  0  0
   -1.7862   -0.6187    0.0000 C   0  0  0  0  0  0  0  2  0  0  0  0
   -1.0717    0.6187    0.0000 C   0  0  0  0  0  0  0  2  0  0  0  0
  1  2  1  0        0
  2  3  2  0        0
  1  4  1  0        0
  4  5  1  0        0
  5  6  1  0        0
  5  7  1  0        0
M  END
$$$$

CDXL12

  7  6  0  0  0  0  0  0  0  0999 V2000
    1.7862   -0.6187    0.0000 N   0  0  0  0  0  0  0  2  0  0  0  0
    1.0717   -0.2062    0.0000 C   0  0  0  0  0  0  0  2  0  0  0  0
    1.0717    0.6187    0.0000 S   0  0  0  0  0  0  0  2  0  0  0  0
    0.3572   -0.6187    0.0000 N   0  0  0  0  0  0  0  2  0  0  0  0
   -0.3572   -0.2062    0.0000 C   0  0  0  0  0  0  0  2  0  0  0  0
   -1.0717   -0.6187    0.0000 C   0  0  0  0  0  0  0  2  0  0  0  0
   -1.7862   -0.2062    0.0000 C   0  0  0  0  0  0  0  2  0  0  0  0
  1  2  1  0        0
  2  3  2  0        0
  2  4  1  0        0
  4  5  1  0        0
  5  6  1  0        0
  6  7  2  0        0
M  END
$$$$

CDXL12

  7  6  0  0  0  0  0  0  0  0999 V2000
   -1.0717    0.6187    0.0000 O   0  0  0  0  0  0  0  2  0  0  0  0
   -1.0717   -0.2062    0.0000 C   0  0  0  0  0  0  0  2  0  0  0  0
   -0.3572   -0.6187    0.0000 O   0  0  0  0  0  0  0  2  0  0  0  0
    0.3572   -0.2062    0.0000 C   0  0  0  0  0  0  0  2  0  0  0  0
    1.0717   -0.6187    0.0000 C   0  0  0  0  0  0  0  2  0  0  0  0
    1.7862   -0.2062    0.0000 C   0  0  0  0  0  0  0  2  0  0  0  0
   -1.7862   -0.6187    0.0000 C   0  0  0  0  0  0  0  2  0  0  0  0
  1  2  2  0        0
  2  3  1  0        0
  3  4  1  0        0
  4  5  1  0        0
  5  6  1  0        0
  2  7  1  0        0
M  END
$$$$

CDXL12

  5  4  0  0  0  0  0  0  0  0999 V2000
   -1.4289   -0.2062    0.0000 Br  0  0  0  0  0  0  0  2  0  0  0  0
   -0.7145    0.2062    0.0000 C   0  0  0  0  0  0  0  2  0  0  0  0
    0.0000   -0.2062    0.0000 C   0  0  0  0  0  0  0  2  0  0  0  0
    0.7145    0.2062    0.0000 C   0  0  0  0  0  0  0  2  0  0  0  0
    1.4289   -0.2062    0.0000 Br  0  0  0  0  0  0  0  2  0  0  0  0
  1  2  1  0        0
  2  3  1  0        0
  3  4  1  0        0
  4  5  1  0        0
M  END
$$$$

CDXL12

  5  4  0  0  0  0  0  0  0  0999 V2000
   -1.4289   -0.2062    0.0000 Br  0  0  0  0  0  0  0  2  0  0  0  0
   -0.7145    0.2062    0.0000 C   0  0  0  0  0  0  0  2  0  0  0  0
    0.0000   -0.2062    0.0000 C   0  0  0  0  0  0  0  2  0  0  0  0
    0.7145    0.2062    0.0000 C   0  0  0  0  0  0  0  2  0  0  0  0
    1.4289   -0.2062    0.0000 C   0  0  0  0  0  0  0  2  0  0  0  0
  1  2  1  0        0
  2  3  1  0        0
  3  4  1  0        0
  4  5  1  0        0
M  END
$$$$

CDXL12

  5  4  0  0  0  0  0  0  0  0999 V2000
   -0.7145    0.2062    0.0000 C   0  0  0  0  0  0  0  2  0  0  0  0
    0.0000   -0.2062    0.0000 C   0  0  0  0  0  0  0  2  0  0  0  0
    0.7145    0.2062    0.0000 C   0  0  0  0  0  0  0  2  0  0  0  0
    1.4289   -0.2062    0.0000 C   0  0  0  0  0  0  0  2  0  0  0  0
   -1.4289   -0.2062    0.0000 C   0  0  0  0  0  0  0  2  0  0  0  0
  1  2  1  0        0
  2  3  1  0        0
  3  4  1  0        0
  1  5  1  0        0
M  END
$$$$

CDXL12

  5  4  0  0  0  0  0  0  0  0999 V2000
   -0.7145    0.2062    0.0000 C   0  0  0  0  0  0  0  2  0  0  0  0
   -1.4289   -0.2062    0.0000 C   0  0  0  0  0  0  0  2  0  0  0  0
    0.0000   -0.2062    0.0000 C   0  0  0  0  0  0  0  2  0  0  0  0
    0.7145    0.2062    0.0000 C   0  0  0  0  0  0  0  2  0  0  0  0
    1.4289   -0.2062    0.0000 C   0  0  0  0  0  0  0  2  0  0  0  0
  1  2  2  0        0
  1  3  1  0        0
  3  4  1  0        0
  4  5  1  0        0
M  END
$$$$

CDXL12

  5  4  0  0  0  0  0  0  0  0999 V2000
    0.0000   -0.2062    0.0000 C   0  0  0  0  0  0  0  2  0  0  0  0
   -0.7145    0.2062    0.0000 C   0  0  0  0  0  0  0  2  0  0  0  0
   -1.4289   -0.2062    0.0000 C   0  0  0  0  0  0  0  2  0  0  0  0
    0.7145    0.2062    0.0000 C   0  0  0  0  0  0  0  2  0  0  0  0
    1.4289   -0.2062    0.0000 C   0  0  0  0  0  0  0  2  0  0  0  0
  1  2  2  0        0
  2  3  1  0        0
  1  4  1  0        0
  4  5  1  0        0
M  END
$$$$

CDXL12

  5  4  0  0  0  0  0  0  0  0999 V2000
   -1.4289   -0.2062    0.0000 Cl  0  0  0  0  0  0  0  2  0  0  0  0
   -0.7145    0.2062    0.0000 C   0  0  0  0  0  0  0  2  0  0  0  0
    0.0000   -0.2062    0.0000 C   0  0  0  0  0  0  0  2  0  0  0  0
    0.7145    0.2062    0.0000 C   0  0  0  0  0  0  0  2  0  0  0  0
    1.4289   -0.2062    0.0000 C   0  0  0  0  0  0  0  2  0  0  0  0
  1  2  1  0        0
  2  3  1  0        0
  3  4  1  0        0
  4  5  1  0        0
M  END
$$$$

CDXL12

  5  4  0  0  0  0  0  0  0  0999 V2000
   -1.4289   -0.2062    0.0000 Br  0  0  0  0  0  0  0  2  0  0  0  0
   -0.7145    0.2062    0.0000 C   0  0  0  0  0  0  0  2  0  0  0  0
    0.0000   -0.2062    0.0000 C   0  0  0  0  0  0  0  2  0  0  0  0
    0.7145    0.2062    0.0000 C   0  0  0  0  0  0  0  2  0  0  0  0
    1.4289   -0.2062    0.0000 Cl  0  0  0  0  0  0  0  2  0  0  0  0
  1  2  1  0        0
  2  3  1  0        0
  3  4  1  0        0
  4  5  1  0        0
M  END
$$$$

CDXL12

  5  4  0  0  0  0  0  0  0  0999 V2000
   -1.4289   -0.2062    0.0000 N   0  0  0  0  0  0  0  2  0  0  0  0
   -0.7145    0.2062    0.0000 C   0  0  0  0  0  0  0  2  0  0  0  0
    0.0000   -0.2062    0.0000 C   0  0  0  0  0  0  0  2  0  0  0  0
    0.7145    0.2062    0.0000 C   0  0  0  0  0  0  0  2  0  0  0  0
    1.4289   -0.2062    0.0000 C   0  0  0  0  0  0  0  2  0  0  0  0
  1  2  1  0        0
  2  3  1  0        0
  3  4  1  0        0
  4  5  1  0        0
M  END
$$$$

CDXL12

  5  4  0  0  0  0  0  0  0  0999 V2000
   -1.4289    0.4125    0.0000 N   0  0  0  0  0  0  0  2  0  0  0  0
   -0.7145   -0.0000    0.0000 C   0  0  0  0  0  0  0  2  0  0  0  0
    0.0000   -0.4125    0.0000 C   0  0  0  0  0  0  0  2  0  0  0  0
    0.7145    0.0000    0.0000 C   0  0  0  0  0  0  0  2  0  0  0  0
    1.4289    0.4125    0.0000 N   0  0  0  0  0  0  0  2  0  0  0  0
  1  2  3  0        0
  2  3  1  0        0
  3  4  1  0        0
  4  5  3  0        0
M  END
$$$$

CDXL12

  5  4  0  0  0  0  0  0  0  0999 V2000
    1.4289   -0.4125    0.0000 N   0  0  0  0  0  0  0  2  0  0  0  0
    0.7145   -0.0000    0.0000 C   0  0  0  0  0  0  0  2  0  0  0  0
    0.0000    0.4125    0.0000 C   0  0  0  0  0  0  0  2  0  0  0  0
   -0.7145   -0.0000    0.0000 C   0  0  0  0  0  0  0  2  0  0  0  0
   -1.4289    0.4125    0.0000 O   0  0  0  0  0  0  0  2  0  0  0  0
  1  2  3  0        0
  2  3  1  0        0
  3  4  1  0        0
  4  5  1  0        0
M  END
$$$$

CDXL12

  5  4  0  0  0  0  0  0  0  0999 V2000
   -1.4289   -0.2062    0.0000 S   0  0  0  0  0  0  0  2  0  0  0  0
   -0.7145    0.2062    0.0000 C   0  0  0  0  0  0  0  2  0  0  0  0
    0.0000   -0.2062    0.0000 C   0  0  0  0  0  0  0  2  0  0  0  0
    0.7145    0.2062    0.0000 C   0  0  0  0  0  0  0  2  0  0  0  0
    1.4289   -0.2062    0.0000 C   0  0  0  0  0  0  0  2  0  0  0  0
  1  2  1  0        0
  2  3  1  0        0
  3  4  1  0        0
  4  5  1  0        0
M  END
$$$$

CDXL12

  5  4  0  0  0  0  0  0  0  0999 V2000
   -0.7145    0.2062    0.0000 O   0  0  0  0  0  0  0  2  0  0  0  0
    0.0000   -0.2062    0.0000 C   0  0  0  0  0  0  0  2  0  0  0  0
    0.7145    0.2062    0.0000 C   0  0  0  0  0  0  0  2  0  0  0  0
    1.4289   -0.2062    0.0000 O   0  0  0  0  0  0  0  2  0  0  0  0
   -1.4289   -0.2062    0.0000 C   0  0  0  0  0  0  0  2  0  0  0  0
  1  2  1  0        0
  2  3  1  0        0
  3  4  1  0        0
  1  5  1  0        0
M  END
$$$$

CDXL12

  5  4  0  0  0  0  0  0  0  0999 V2000
   -0.7145    0.2062    0.0000 O   0  0  0  0  0  0  0  2  0  0  0  0
    0.0000   -0.2062    0.0000 C   0  0  0  0  0  0  0  2  0  0  0  0
    0.7145    0.2062    0.0000 O   0  0  0  0  0  0  0  2  0  0  0  0
    1.4289   -0.2062    0.0000 C   0  0  0  0  0  0  0  2  0  0  0  0
   -1.4289   -0.2062    0.0000 C   0  0  0  0  0  0  0  2  0  0  0  0
  1  2  1  0        0
  2  3  1  0        0
  3  4  1  0        0
  1  5  1  0        0
M  END
$$$$

CDXL12

  5  4  0  0  0  0  0  0  0  0999 V2000
    0.0000   -0.2062    0.0000 O   0  0  0  0  0  0  0  2  0  0  0  0
   -0.7145    0.2062    0.0000 C   0  0  0  0  0  0  0  2  0  0  0  0
   -1.4289   -0.2062    0.0000 C   0  0  0  0  0  0  0  2  0  0  0  0
    0.7145    0.2062    0.0000 C   0  0  0  0  0  0  0  2  0  0  0  0
    1.4289   -0.2062    0.0000 C   0  0  0  0  0  0  0  2  0  0  0  0
  1  2  1  0        0
  2  3  2  0        0
  1  4  1  0        0
  4  5  1  0        0
M  END
$$$$

CDXL12

  5  5  0  0  0  0  0  0  0  0999 V2000
    0.4125    0.6348    0.0000 C   0  0  0  0  0  0  0  2  0  0  0  0
    0.6674   -0.1498    0.0000 C   0  0  0  0  0  0  0  2  0  0  0  0
   -0.0000   -0.6348    0.0000 C   0  0  0  0  0  0  0  2  0  0  0  0
   -0.6674   -0.1498    0.0000 C   0  0  0  0  0  0  0  2  0  0  0  0
   -0.4125    0.6348    0.0000 N   0  0  0  0  0  0  0  2  0  0  0  0
  1  2  4  0        0
  2  3  4  0        0
  3  4  4  0        0
  4  5  4  0        0
  1  5  4  0        0
M  END
$$$$

CDXL12

  5  5  0  0  0  0  0  0  0  0999 V2000
    0.4125    0.6348    0.0000 O   0  0  0  0  0  0  0  2  0  0  0  0
    0.6674   -0.1498    0.0000 C   0  0  0  0  0  0  0  2  0  0  0  0
   -0.0000   -0.6348    0.0000 C   0  0  0  0  0  0  0  2  0  0  0  0
   -0.6674   -0.1498    0.0000 C   0  0  0  0  0  0  0  2  0  0  0  0
   -0.4125    0.6348    0.0000 C   0  0  0  0  0  0  0  2  0  0  0  0
  1  2  4  0        0
  2  3  4  0        0
  3  4  4  0        0
  4  5  4  0        0
  1  5  4  0        0
M  END
$$$$

CDXL12

  8  7  0  0  0  0  0  0  0  0999 V2000
    1.0717    1.0312    0.0000 O   0  0  0  0  0  0  0  2  0  0  0  0
    1.0717    0.2062    0.0000 C   0  0  0  0  0  0  0  2  0  0  0  0
    0.3572   -0.2062    0.0000 C   0  0  0  0  0  0  0  2  0  0  0  0
   -0.3572    0.2062    0.0000 C   0  0  0  0  0  0  0  2  0  0  0  0
   -1.0717   -0.2062    0.0000 C   0  0  0  0  0  0  0  2  0  0  0  0
   -1.0717   -1.0312    0.0000 C   0  0  0  0  0  0  0  2  0  0  0  0
   -1.7862    0.2062    0.0000 C   0  0  0  0  0  0  0  2  0  0  0  0
    1.7862   -0.2062    0.0000 C   0  0  0  0  0  0  0  2  0  0  0  0
  1  2  2  0        0
  2  3  1  0        0
  3  4  1  0        0
  4  5  1  0        0
  5  6  1  0        0
  5  7  1  0        0
  2  8  1  0        0
M  END
$$$$

CDXL12

  8  7  0  0  0  0  0  0  0  0999 V2000
   -1.0717   -1.0312    0.0000 O   0  0  0  0  0  0  0  2  0  0  0  0
   -1.0717   -0.2062    0.0000 C   0  0  0  0  0  0  0  2  0  0  0  0
   -1.7862    0.2062    0.0000 O   0  0  0  0  0  0  0  2  0  0  0  0
   -0.3572    0.2063    0.0000 C   0  0  0  0  0  0  0  2  0  0  0  0
    0.3572   -0.2062    0.0000 C   0  0  0  0  0  0  0  2  0  0  0  0
    1.0717    0.2062    0.0000 C   0  0  0  0  0  0  0  2  0  0  0  0
    1.0717    1.0312    0.0000 O   0  0  0  0  0  0  0  2  0  0  0  0
    1.7862   -0.2062    0.0000 O   0  0  0  0  0  0  0  2  0  0  0  0
  1  2  2  0        0
  2  3  1  0        0
  2  4  1  0        0
  4  5  1  0        0
  5  6  1  0        0
  6  7  2  0        0
  6  8  1  0        0
M  END
$$$$

CDXL12

  8  7  0  0  0  0  0  0  0  0999 V2000
   -1.0717   -1.0312    0.0000 O   0  0  0  0  0  0  0  2  0  0  0  0
   -1.0717   -0.2062    0.0000 C   0  0  0  0  0  0  0  2  0  0  0  0
   -1.7862    0.2062    0.0000 O   0  0  0  0  0  0  0  2  0  0  0  0
   -0.3572    0.2063    0.0000 C   0  0  0  0  0  0  0  2  0  0  0  0
    0.3572   -0.2062    0.0000 C   0  0  0  0  0  0  0  2  0  0  0  0
    1.0717    0.2062    0.0000 C   0  0  0  0  0  0  0  2  0  0  0  0
    1.0717    1.0312    0.0000 O   0  0  0  0  0  0  0  2  0  0  0  0
    1.7862   -0.2062    0.0000 O   0  0  0  0  0  0  0  2  0  0  0  0
  1  2  2  0        0
  2  3  1  0        0
  2  4  1  0        0
  4  5  2  0        0
  5  6  1  0        0
  6  7  2  0        0
  6  8  1  0        0
M  END
$$$$

CDXL12

  8  7  0  0  0  0  0  0  0  0999 V2000
   -1.0717   -1.0312    0.0000 O   0  0  0  0  0  0  0  2  0  0  0  0
   -1.0717   -0.2062    0.0000 C   0  0  0  0  0  0  0  2  0  0  0  0
   -1.7862    0.2062    0.0000 O   0  0  0  0  0  0  0  2  0  0  0  0
   -0.3572    0.2063    0.0000 C   0  0  0  0  0  0  0  2  0  0  0  0
    0.3572   -0.2062    0.0000 C   0  0  0  0  0  0  0  2  0  0  0  0
    1.0717    0.2062    0.0000 C   0  0  0  0  0  0  0  2  0  0  0  0
    1.0717    1.0312    0.0000 O   0  0  0  0  0  0  0  2  0  0  0  0
    1.7862   -0.2062    0.0000 O   0  0  0  0  0  0  0  2  0  0  0  0
  1  2  2  0        0
  2  3  1  0        0
  2  4  1  0        0
  4  5  2  0        0
  5  6  1  0        0
  6  7  2  0        0
  6  8  1  0        0
M  END
$$$$

CDXL12

 14 13  0  0  0  0  0  0  0  0999 V2000
    2.1434    0.6187    0.0000 O   0  0  0  0  0  0  0  2  0  0  0  0
    2.1434   -0.2062    0.0000 C   0  0  0  0  0  0  0  2  0  0  0  0
    2.8579   -0.6187    0.0000 O   0  0  0  0  0  0  0  2  0  0  0  0
    3.5724   -0.2062    0.0000 C   0  0  0  0  0  0  0  2  0  0  0  0
    4.2868   -0.6187    0.0000 C   0  0  0  0  0  0  0  2  0  0  0  0
    1.4289   -0.6187    0.0000 C   0  0  0  0  0  0  0  2  0  0  0  0
    0.7145   -0.2062    0.0000 C   0  0  0  0  0  0  0  2  0  0  0  0
   -0.0000   -0.6187    0.0000 C   0  0  0  0  0  0  0  2  0  0  0  0
   -0.7145   -0.2062    0.0000 C   0  0  0  0  0  0  0  2  0  0  0  0
   -1.4289   -0.6187    0.0000 C   0  0  0  0  0  0  0  2  0  0  0  0
   -2.1434   -0.2062    0.0000 C   0  0  0  0  0  0  0  2  0  0  0  0
   -2.8579   -0.6187    0.0000 C   0  0  0  0  0  0  0  2  0  0  0  0
   -3.5724   -0.2062    0.0000 C   0  0  0  0  0  0  0  2  0  0  0  0
   -4.2868   -0.6187    0.0000 C   0  0  0  0  0  0  0  2  0  0  0  0
  1  2  2  0        0
  2  3  1  0        0
  3  4  1  0        0
  4  5  1  0        0
  2  6  1  0        0
  6  7  1  0        0
  7  8  1  0        0
  8  9  1  0        0
  9 10  1  0        0
 10 11  1  0        0
 11 12  1  0        0
 12 13  1  0        0
 13 14  1  0        0
M  END
$$$$

CDXL12

 18 17  0  0  0  0  0  0  0  0999 V2000
    3.2151   -1.0312    0.0000 O   0  0  0  0  0  0  0  2  0  0  0  0
    3.2151   -0.2062    0.0000 C   0  0  0  0  0  0  0  2  0  0  0  0
    3.9296    0.2063    0.0000 O   0  0  0  0  0  0  0  2  0  0  0  0
    4.6441   -0.2062    0.0000 C   0  0  0  0  0  0  0  2  0  0  0  0
    5.3585    0.2062    0.0000 C   0  0  0  0  0  0  0  2  0  0  0  0
    2.5006    0.2062    0.0000 C   0  0  0  0  0  0  0  2  0  0  0  0
    1.7862   -0.2062    0.0000 C   0  0  0  0  0  0  0  2  0  0  0  0
    1.0717    0.2062    0.0000 C   0  0  0  0  0  0  0  2  0  0  0  0
    0.3572   -0.2062    0.0000 C   0  0  0  0  0  0  0  2  0  0  0  0
   -0.3572    0.2062    0.0000 C   0  0  0  0  0  0  0  2  0  0  0  0
   -1.0717   -0.2062    0.0000 C   0  0  0  0  0  0  0  2  0  0  0  0
   -1.7862    0.2062    0.0000 C   0  0  0  0  0  0  0  2  0  0  0  0
   -2.5006   -0.2062    0.0000 C   0  0  0  0  0  0  0  2  0  0  0  0
   -3.2151    0.2062    0.0000 C   0  0  0  0  0  0  0  2  0  0  0  0
   -3.2151    1.0312    0.0000 O   0  0  0  0  0  0  0  2  0  0  0  0
   -3.9296   -0.2062    0.0000 O   0  0  0  0  0  0  0  2  0  0  0  0
   -4.6441    0.2062    0.0000 C   0  0  0  0  0  0  0  2  0  0  0  0
   -5.3585   -0.2062    0.0000 C   0  0  0  0  0  0  0  2  0  0  0  0
  1  2  2  0        0
  2  3  1  0        0
  3  4  1  0        0
  4  5  1  0        0
  2  6  1  0        0
  6  7  1  0        0
  7  8  1  0        0
  8  9  1  0        0
  9 10  1  0        0
 10 11  1  0        0
 11 12  1  0        0
 12 13  1  0        0
 13 14  1  0        0
 14 15  2  0        0
 14 16  1  0        0
 16 17  1  0        0
 17 18  1  0        0
M  END
$$$$

CDXL12

 13 12  0  0  0  0  0  0  0  0999 V2000
    2.5006    0.6187    0.0000 O   0  0  0  0  0  0  0  2  0  0  0  0
    2.5006   -0.2062    0.0000 C   0  0  0  0  0  0  0  2  0  0  0  0
    3.2151   -0.6187    0.0000 O   0  0  0  0  0  0  0  2  0  0  0  0
    3.9296   -0.2062    0.0000 C   0  0  0  0  0  0  0  2  0  0  0  0
    1.7862   -0.6187    0.0000 C   0  0  0  0  0  0  0  2  0  0  0  0
    1.0717   -0.2062    0.0000 C   0  0  0  0  0  0  0  2  0  0  0  0
    0.3572   -0.6187    0.0000 C   0  0  0  0  0  0  0  2  0  0  0  0
   -0.3572   -0.2062    0.0000 C   0  0  0  0  0  0  0  2  0  0  0  0
   -1.0717   -0.6187    0.0000 C   0  0  0  0  0  0  0  2  0  0  0  0
   -1.7862   -0.2062    0.0000 C   0  0  0  0  0  0  0  2  0  0  0  0
   -2.5006   -0.6187    0.0000 C   0  0  0  0  0  0  0  2  0  0  0  0
   -3.2151   -0.2062    0.0000 C   0  0  0  0  0  0  0  2  0  0  0  0
   -3.9296   -0.6187    0.0000 C   0  0  0  0  0  0  0  2  0  0  0  0
  1  2  2  0        0
  2  3  1  0        0
  3  4  1  0        0
  2  5  1  0        0
  5  6  1  0        0
  6  7  1  0        0
  7  8  1  0        0
  8  9  1  0        0
  9 10  1  0        0
 10 11  1  0        0
 11 12  1  0        0
 12 13  1  0        0
M  END
$$$$

CDXL12

  8  7  0  0  0  0  0  0  0  0999 V2000
    1.4289    0.6187    0.0000 O   0  0  0  0  0  0  0  2  0  0  0  0
    1.4289   -0.2062    0.0000 C   0  0  0  0  0  0  0  2  0  0  0  0
    0.7145   -0.6187    0.0000 C   0  0  0  0  0  0  0  2  0  0  0  0
   -0.0000   -0.2062    0.0000 C   0  0  0  0  0  0  0  2  0  0  0  0
   -0.7145   -0.6187    0.0000 C   0  0  0  0  0  0  0  2  0  0  0  0
   -1.4289   -0.2062    0.0000 C   0  0  0  0  0  0  0  2  0  0  0  0
   -2.1434   -0.6187    0.0000 C   0  0  0  0  0  0  0  2  0  0  0  0
    2.1434   -0.6187    0.0000 C   0  0  0  0  0  0  0  2  0  0  0  0
  1  2  2  0        0
  2  3  1  0        0
  3  4  1  0        0
  4  5  1  0        0
  5  6  1  0        0
  6  7  1  0        0
  2  8  1  0        0
M  END
$$$$

CDXL12

  8  7  0  0  0  0  0  0  0  0999 V2000
    1.4289    0.6187    0.0000 O   0  0  0  0  0  0  0  2  0  0  0  0
    1.4289   -0.2062    0.0000 C   0  0  0  0  0  0  0  2  0  0  0  0
    2.1434   -0.6187    0.0000 O   0  0  0  0  0  0  0  2  0  0  0  0
    0.7145   -0.6187    0.0000 C   0  0  0  0  0  0  0  2  0  0  0  0
   -0.0000   -0.2062    0.0000 C   0  0  0  0  0  0  0  2  0  0  0  0
   -0.7145   -0.6187    0.0000 C   0  0  0  0  0  0  0  2  0  0  0  0
   -1.4289   -0.2062    0.0000 C   0  0  0  0  0  0  0  2  0  0  0  0
   -2.1434   -0.6187    0.0000 C   0  0  0  0  0  0  0  2  0  0  0  0
  1  2  2  0        0
  2  3  1  0        0
  2  4  1  0        0
  4  5  2  0        0
  5  6  1  0        0
  6  7  2  0        0
  7  8  1  0        0
M  END
$$$$

CDXL12

  8  7  0  0  0  0  0  0  0  0999 V2000
   -2.1434   -0.6187    0.0000 O   0  0  0  0  0  0  0  2  0  0  0  0
   -1.4289   -0.2062    0.0000 C   0  0  0  0  0  0  0  2  0  0  0  0
   -0.7145   -0.6187    0.0000 O   0  0  0  0  0  0  0  2  0  0  0  0
   -0.0000   -0.2062    0.0000 C   0  0  0  0  0  0  0  2  0  0  0  0
    0.7145   -0.6187    0.0000 C   0  0  0  0  0  0  0  2  0  0  0  0
    1.4289   -0.2062    0.0000 C   0  0  0  0  0  0  0  2  0  0  0  0
    1.4289    0.6187    0.0000 C   0  0  0  0  0  0  0  2  0  0  0  0
    2.1434   -0.6187    0.0000 C   0  0  0  0  0  0  0  2  0  0  0  0
  1  2  2  0        0
  2  3  1  0        0
  3  4  1  0        0
  4  5  1  0        0
  5  6  1  0        0
  6  7  1  0        0
  6  8  1  0        0
M  END
$$$$

CDXL12

  6  5  0  0  0  0  0  0  0  0999 V2000
   -1.7862   -0.2062    0.0000 Br  0  0  0  0  0  0  0  2  0  0  0  0
   -1.0717    0.2062    0.0000 C   0  0  0  0  0  0  0  2  0  0  0  0
   -0.3572   -0.2062    0.0000 C   0  0  0  0  0  0  0  2  0  0  0  0
    0.3572    0.2062    0.0000 C   0  0  0  0  0  0  0  2  0  0  0  0
    1.0717   -0.2062    0.0000 C   0  0  0  0  0  0  0  2  0  0  0  0
    1.7862    0.2062    0.0000 Br  0  0  0  0  0  0  0  2  0  0  0  0
  1  2  1  0        0
  2  3  1  0        0
  3  4  1  0        0
  4  5  1  0        0
  5  6  1  0        0
M  END
$$$$

CDXL12

  6  5  0  0  0  0  0  0  0  0999 V2000
   -1.0717    0.2062    0.0000 C   0  0  0  0  0  0  0  2  0  0  0  0
   -0.3572   -0.2062    0.0000 C   0  0  0  0  0  0  0  2  0  0  0  0
    0.3572    0.2062    0.0000 C   0  0  0  0  0  0  0  2  0  0  0  0
    1.0717   -0.2062    0.0000 C   0  0  0  0  0  0  0  2  0  0  0  0
    1.7862    0.2062    0.0000 C   0  0  0  0  0  0  0  2  0  0  0  0
   -1.7862   -0.2062    0.0000 C   0  0  0  0  0  0  0  2  0  0  0  0
  1  2  1  0        0
  2  3  1  0        0
  3  4  1  0        0
  4  5  1  0        0
  1  6  1  0        0
M  END
$$$$

CDXL12

  6  5  0  0  0  0  0  0  0  0999 V2000
   -1.7862   -0.2062    0.0000 Cl  0  0  0  0  0  0  0  2  0  0  0  0
   -1.0717    0.2062    0.0000 C   0  0  0  0  0  0  0  2  0  0  0  0
   -0.3572   -0.2062    0.0000 C   0  0  0  0  0  0  0  2  0  0  0  0
    0.3572    0.2062    0.0000 C   0  0  0  0  0  0  0  2  0  0  0  0
    1.0717   -0.2062    0.0000 C   0  0  0  0  0  0  0  2  0  0  0  0
    1.7862    0.2062    0.0000 Cl  0  0  0  0  0  0  0  2  0  0  0  0
  1  2  1  0        0
  2  3  1  0        0
  3  4  1  0        0
  4  5  1  0        0
  5  6  1  0        0
M  END
$$$$

CDXL12

  6  5  0  0  0  0  0  0  0  0999 V2000
   -0.3572   -0.2062    0.0000 C   0  0  0  0  0  0  0  2  0  0  0  0
    0.3572    0.2062    0.0000 C   0  0  0  0  0  0  0  2  0  0  0  0
    1.0717   -0.2062    0.0000 C   0  0  0  0  0  0  0  2  0  0  0  0
    1.7862    0.2062    0.0000 Cl  0  0  0  0  0  0  0  2  0  0  0  0
   -1.0717    0.2062    0.0000 C   0  0  0  0  0  0  0  2  0  0  0  0
   -1.7862   -0.2062    0.0000 Cl  0  0  0  0  0  0  0  2  0  0  0  0
  1  2  2  0        0
  2  3  1  0        0
  3  4  1  0        0
  1  5  1  0        0
  5  6  1  0        0
M  END
$$$$

CDXL12

  6  5  0  0  0  0  0  0  0  0999 V2000
   -1.7862   -0.2062    0.0000 N   0  0  0  0  0  0  0  2  0  0  0  0
   -1.0717    0.2062    0.0000 C   0  0  0  0  0  0  0  2  0  0  0  0
   -0.3572   -0.2062    0.0000 C   0  0  0  0  0  0  0  2  0  0  0  0
    0.3572    0.2062    0.0000 C   0  0  0  0  0  0  0  2  0  0  0  0
    1.0717   -0.2062    0.0000 C   0  0  0  0  0  0  0  2  0  0  0  0
    1.7862    0.2062    0.0000 C   0  0  0  0  0  0  0  2  0  0  0  0
  1  2  1  0        0
  2  3  1  0        0
  3  4  1  0        0
  4  5  1  0        0
  5  6  1  0        0
M  END
$$$$

CDXL12

  6  5  0  0  0  0  0  0  0  0999 V2000
   -1.7862    0.6187    0.0000 N   0  0  0  0  0  0  0  2  0  0  0  0
   -1.0717    0.2062    0.0000 C   0  0  0  0  0  0  0  2  0  0  0  0
   -0.3572   -0.2062    0.0000 C   0  0  0  0  0  0  0  2  0  0  0  0
    0.3572    0.2063    0.0000 C   0  0  0  0  0  0  0  2  0  0  0  0
    1.0717   -0.2062    0.0000 C   0  0  0  0  0  0  0  2  0  0  0  0
    1.7862   -0.6187    0.0000 N   0  0  0  0  0  0  0  2  0  0  0  0
  1  2  3  0        0
  2  3  1  0        0
  3  4  1  0        0
  4  5  1  0        0
  5  6  3  0        0
M  END
$$$$

CDXL12

  6  5  0  0  0  0  0  0  0  0999 V2000
   -1.7862   -0.2062    0.0000 O   0  0  0  0  0  0  0  2  0  0  0  0
   -1.0717    0.2062    0.0000 C   0  0  0  0  0  0  0  2  0  0  0  0
   -0.3572   -0.2062    0.0000 C   0  0  0  0  0  0  0  2  0  0  0  0
    0.3572    0.2062    0.0000 C   0  0  0  0  0  0  0  2  0  0  0  0
    1.0717   -0.2062    0.0000 C   0  0  0  0  0  0  0  2  0  0  0  0
    1.7862    0.2062    0.0000 O   0  0  0  0  0  0  0  2  0  0  0  0
  1  2  1  0        0
  2  3  1  0        0
  3  4  1  0        0
  4  5  1  0        0
  5  6  1  0        0
M  END
$$$$

CDXL12

  6  5  0  0  0  0  0  0  0  0999 V2000
   -1.7862   -0.2063    0.0000 O   0  0  0  0  0  0  0  2  0  0  0  0
   -1.0717   -0.6188    0.0000 C   0  0  0  0  0  0  0  2  0  0  0  0
   -0.3572   -0.2062    0.0000 C   0  0  0  0  0  0  0  2  0  0  0  0
    0.3572    0.2062    0.0000 C   0  0  0  0  0  0  0  2  0  0  0  0
    1.0717    0.6188    0.0000 C   0  0  0  0  0  0  0  2  0  0  0  0
    1.7862    0.2062    0.0000 O   0  0  0  0  0  0  0  2  0  0  0  0
  1  2  1  0        0
  2  3  1  0        0
  3  4  3  0        0
  4  5  1  0        0
  5  6  1  0        0
M  END
$$$$

CDXL12

  6  5  0  0  0  0  0  0  0  0999 V2000
   -1.7862   -0.2062    0.0000 O   0  0  0  0  0  0  0  2  0  0  0  0
   -1.0717    0.2062    0.0000 C   0  0  0  0  0  0  0  2  0  0  0  0
   -0.3572   -0.2062    0.0000 O   0  0  0  0  0  0  0  2  0  0  0  0
    0.3572    0.2062    0.0000 C   0  0  0  0  0  0  0  2  0  0  0  0
    1.0717   -0.2062    0.0000 C   0  0  0  0  0  0  0  2  0  0  0  0
    1.7862    0.2062    0.0000 C   0  0  0  0  0  0  0  2  0  0  0  0
  1  2  2  0        0
  2  3  1  0        0
  3  4  1  0        0
  4  5  1  0        0
  5  6  1  0        0
M  END
$$$$

CDXL12

  6  5  0  0  0  0  0  0  0  0999 V2000
   -0.3572   -0.2062    0.0000 O   0  0  0  0  0  0  0  2  0  0  0  0
   -1.0717    0.2062    0.0000 C   0  0  0  0  0  0  0  2  0  0  0  0
   -1.7862   -0.2062    0.0000 C   0  0  0  0  0  0  0  2  0  0  0  0
    0.3572    0.2062    0.0000 C   0  0  0  0  0  0  0  2  0  0  0  0
    1.0717   -0.2062    0.0000 C   0  0  0  0  0  0  0  2  0  0  0  0
    1.7862    0.2062    0.0000 Cl  0  0  0  0  0  0  0  2  0  0  0  0
  1  2  1  0        0
  2  3  2  0        0
  1  4  1  0        0
  4  5  1  0        0
  5  6  1  0        0
M  END
$$$$

CDXL12

  6  5  0  0  0  0  0  0  0  0999 V2000
   -0.3572   -0.2062    0.0000 O   0  0  0  0  0  0  0  2  0  0  0  0
    0.3572    0.2062    0.0000 C   0  0  0  0  0  0  0  2  0  0  0  0
    1.0717   -0.2062    0.0000 C   0  0  0  0  0  0  0  2  0  0  0  0
    1.7862    0.2062    0.0000 O   0  0  0  0  0  0  0  2  0  0  0  0
   -1.0717    0.2062    0.0000 C   0  0  0  0  0  0  0  2  0  0  0  0
   -1.7862   -0.2062    0.0000 C   0  0  0  0  0  0  0  2  0  0  0  0
  1  2  1  0        0
  2  3  1  0        0
  3  4  1  0        0
  1  5  1  0        0
  5  6  1  0        0
M  END
$$$$

CDXL12

  6  6  0  0  0  0  0  0  0  0999 V2000
    0.7145   -0.4125    0.0000 C   0  0  0  0  0  0  0  2  0  0  0  0
    0.0000   -0.8250    0.0000 C   0  0  0  0  0  0  0  2  0  0  0  0
   -0.7145   -0.4125    0.0000 C   0  0  0  0  0  0  0  2  0  0  0  0
   -0.7145    0.4125    0.0000 C   0  0  0  0  0  0  0  2  0  0  0  0
    0.0000    0.8250    0.0000 C   0  0  0  0  0  0  0  2  0  0  0  0
    0.7145    0.4125    0.0000 C   0  0  0  0  0  0  0  2  0  0  0  0
  1  2  1  0        0
  2  3  1  0        0
  3  4  1  0        0
  4  5  1  0        0
  5  6  1  0        0
  1  6  1  0        0
M  END
$$$$

CDXL12

  6  6  0  0  0  0  0  0  0  0999 V2000
    0.7145   -0.4125    0.0000 C   0  0  0  0  0  0  0  2  0  0  0  0
    0.0000   -0.8250    0.0000 C   0  0  0  0  0  0  0  2  0  0  0  0
   -0.7145   -0.4125    0.0000 C   0  0  0  0  0  0  0  2  0  0  0  0
   -0.7145    0.4125    0.0000 C   0  0  0  0  0  0  0  2  0  0  0  0
    0.0000    0.8250    0.0000 C   0  0  0  0  0  0  0  2  0  0  0  0
    0.7145    0.4125    0.0000 C   0  0  0  0  0  0  0  2  0  0  0  0
  1  2  2  0        0
  2  3  1  0        0
  3  4  1  0        0
  4  5  1  0        0
  5  6  1  0        0
  1  6  1  0        0
M  END
$$$$

CDXL12

  6  6  0  0  0  0  0  0  0  0999 V2000
    0.7145   -0.4125    0.0000 O   0  0  0  0  0  0  0  2  0  0  0  0
    0.0000   -0.8250    0.0000 C   0  0  0  0  0  0  0  2  0  0  0  0
   -0.7145   -0.4125    0.0000 O   0  0  0  0  0  0  0  2  0  0  0  0
   -0.7145    0.4125    0.0000 C   0  0  0  0  0  0  0  2  0  0  0  0
    0.0000    0.8250    0.0000 O   0  0  0  0  0  0  0  2  0  0  0  0
    0.7145    0.4125    0.0000 C   0  0  0  0  0  0  0  2  0  0  0  0
  1  2  1  0        0
  2  3  1  0        0
  3  4  1  0        0
  4  5  1  0        0
  5  6  1  0        0
  1  6  1  0        0
M  END
$$$$

CDXL12

  6  6  0  0  0  0  0  0  0  0999 V2000
    0.7145   -0.4125    0.0000 N   0  0  0  0  0  0  0  2  0  0  0  0
    0.0000   -0.8250    0.0000 C   0  0  0  0  0  0  0  2  0  0  0  0
   -0.7145   -0.4125    0.0000 C   0  0  0  0  0  0  0  2  0  0  0  0
   -0.7145    0.4125    0.0000 C   0  0  0  0  0  0  0  2  0  0  0  0
    0.0000    0.8250    0.0000 C   0  0  0  0  0  0  0  2  0  0  0  0
    0.7145    0.4125    0.0000 C   0  0  0  0  0  0  0  2  0  0  0  0
  1  2  1  0        0
  2  3  1  0        0
  3  4  1  0        0
  4  5  1  0        0
  5  6  1  0        0
  1  6  1  0        0
M  END
$$$$

CDXL12

  6  6  0  0  0  0  0  0  0  0999 V2000
    0.7145   -0.4125    0.0000 O   0  0  0  0  0  0  0  2  0  0  0  0
    0.0000   -0.8250    0.0000 C   0  0  0  0  0  0  0  2  0  0  0  0
   -0.7145   -0.4125    0.0000 C   0  0  0  0  0  0  0  2  0  0  0  0
   -0.7145    0.4125    0.0000 N   0  0  0  0  0  0  0  2  0  0  0  0
    0.0000    0.8250    0.0000 C   0  0  0  0  0  0  0  2  0  0  0  0
    0.7145    0.4125    0.0000 C   0  0  0  0  0  0  0  2  0  0  0  0
  1  2  1  0        0
  2  3  1  0        0
  3  4  1  0        0
  4  5  1  0        0
  5  6  1  0        0
  1  6  1  0        0
M  END
$$$$

CDXL12

  9  8  0  0  0  0  0  0  0  0999 V2000
    1.4289    0.6187    0.0000 O   0  0  0  0  0  0  0  2  0  0  0  0
    1.4289   -0.2062    0.0000 C   0  0  0  0  0  0  0  2  0  0  0  0
    2.1434   -0.6188    0.0000 O   0  0  0  0  0  0  0  2  0  0  0  0
    0.7145   -0.6188    0.0000 C   0  0  0  0  0  0  0  2  0  0  0  0
   -0.0000   -0.2062    0.0000 C   0  0  0  0  0  0  0  2  0  0  0  0
   -0.7145   -0.6188    0.0000 C   0  0  0  0  0  0  0  2  0  0  0  0
   -1.4289   -0.2062    0.0000 C   0  0  0  0  0  0  0  2  0  0  0  0
   -1.4289    0.6188    0.0000 O   0  0  0  0  0  0  0  2  0  0  0  0
   -2.1434   -0.6187    0.0000 O   0  0  0  0  0  0  0  2  0  0  0  0
  1  2  2  0        0
  2  3  1  0        0
  2  4  1  0        0
  4  5  1  0        0
  5  6  1  0        0
  6  7  1  0        0
  7  8  2  0        0
  7  9  1  0        0
M  END
$$$$

CDXL12

  9  8  0  0  0  0  0  0  0  0999 V2000
   -0.0000   -0.2062    0.0000 N   0  0  0  0  0  0  0  2  0  0  0  0
    0.7145   -0.6188    0.0000 C   0  0  0  0  0  0  0  2  0  0  0  0
    1.4289   -0.2062    0.0000 C   0  0  0  0  0  0  0  2  0  0  0  0
    1.4289    0.6187    0.0000 C   0  0  0  0  0  0  0  2  0  0  0  0
    2.1434   -0.6188    0.0000 C   0  0  0  0  0  0  0  2  0  0  0  0
   -0.7145   -0.6188    0.0000 C   0  0  0  0  0  0  0  2  0  0  0  0
   -1.4289   -0.2062    0.0000 C   0  0  0  0  0  0  0  2  0  0  0  0
   -2.1434   -0.6187    0.0000 C   0  0  0  0  0  0  0  2  0  0  0  0
   -1.4289    0.6188    0.0000 C   0  0  0  0  0  0  0  2  0  0  0  0
  1  2  1  0        0
  2  3  1  0        0
  3  4  1  0        0
  3  5  1  0        0
  1  6  1  0        0
  6  7  1  0        0
  7  8  1  0        0
  7  9  1  0        0
M  END
$$$$

CDXL12

  9  8  0  0  0  0  0  0  0  0999 V2000
    1.4289    0.6187    0.0000 O   0  0  0  0  0  0  0  2  0  0  0  0
    1.4289   -0.2062    0.0000 C   0  0  0  0  0  0  0  2  0  0  0  0
    2.1434   -0.6188    0.0000 C   0  0  0  0  0  0  0  2  0  0  0  0
    0.7145   -0.6188    0.0000 C   0  0  0  0  0  0  0  2  0  0  0  0
   -0.0000   -0.2062    0.0000 N   0  0  0  0  0  0  0  2  0  0  0  0
   -0.7145   -0.6188    0.0000 C   0  0  0  0  0  0  0  2  0  0  0  0
   -1.4289   -0.2062    0.0000 C   0  0  0  0  0  0  0  2  0  0  0  0
   -1.4289    0.6188    0.0000 O   0  0  0  0  0  0  0  2  0  0  0  0
   -2.1434   -0.6187    0.0000 C   0  0  0  0  0  0  0  2  0  0  0  0
  1  2  1  0        0
  2  3  1  0        0
  2  4  1  0        0
  4  5  1  0        0
  5  6  1  0        0
  6  7  1  0        0
  7  8  1  0        0
  7  9  1  0        0
M  END
$$$$

CDXL12

 11 10  0  0  0  0  0  0  0  0999 V2000
    1.7862    0.6187    0.0000 O   0  0  0  0  0  0  0  2  0  0  0  0
    1.7862   -0.2062    0.0000 C   0  0  0  0  0  0  0  2  0  0  0  0
    2.5006   -0.6187    0.0000 O   0  0  0  0  0  0  0  2  0  0  0  0
    3.2151   -0.2062    0.0000 C   0  0  0  0  0  0  0  2  0  0  0  0
    1.0717   -0.6187    0.0000 C   0  0  0  0  0  0  0  2  0  0  0  0
    0.3572   -0.2062    0.0000 C   0  0  0  0  0  0  0  2  0  0  0  0
   -0.3572   -0.6187    0.0000 C   0  0  0  0  0  0  0  2  0  0  0  0
   -1.0717   -0.2062    0.0000 C   0  0  0  0  0  0  0  2  0  0  0  0
   -1.7862   -0.6187    0.0000 C   0  0  0  0  0  0  0  2  0  0  0  0
   -2.5006   -0.2062    0.0000 C   0  0  0  0  0  0  0  2  0  0  0  0
   -3.2151   -0.6187    0.0000 C   0  0  0  0  0  0  0  2  0  0  0  0
  1  2  2  0        0
  2  3  1  0        0
  3  4  1  0        0
  2  5  1  0        0
  5  6  1  0        0
  6  7  1  0        0
  7  8  1  0        0
  8  9  1  0        0
  9 10  1  0        0
 10 11  1  0        0
M  END
$$$$

CDXL12

  9  8  0  0  0  0  0  0  0  0999 V2000
    1.7862    0.6187    0.0000 O   0  0  0  0  0  0  0  2  0  0  0  0
    1.7862   -0.2062    0.0000 C   0  0  0  0  0  0  0  2  0  0  0  0
    1.0717   -0.6187    0.0000 C   0  0  0  0  0  0  0  2  0  0  0  0
    0.3572   -0.2062    0.0000 C   0  0  0  0  0  0  0  2  0  0  0  0
   -0.3572   -0.6187    0.0000 C   0  0  0  0  0  0  0  2  0  0  0  0
   -1.0717   -0.2062    0.0000 C   0  0  0  0  0  0  0  2  0  0  0  0
   -1.7862   -0.6187    0.0000 C   0  0  0  0  0  0  0  2  0  0  0  0
   -2.5006   -0.2062    0.0000 C   0  0  0  0  0  0  0  2  0  0  0  0
    2.5006   -0.6187    0.0000 C   0  0  0  0  0  0  0  2  0  0  0  0
  1  2  2  0        0
  2  3  1  0        0
  3  4  1  0        0
  4  5  1  0        0
  5  6  1  0        0
  6  7  1  0        0
  7  8  1  0        0
  2  9  1  0        0
M  END
$$$$

CDXL12

  9  8  0  0  0  0  0  0  0  0999 V2000
    1.7862    0.6187    0.0000 O   0  0  0  0  0  0  0  2  0  0  0  0
    1.7862   -0.2062    0.0000 C   0  0  0  0  0  0  0  2  0  0  0  0
    2.5006   -0.6187    0.0000 O   0  0  0  0  0  0  0  2  0  0  0  0
    1.0717   -0.6187    0.0000 C   0  0  0  0  0  0  0  2  0  0  0  0
    0.3572   -0.2062    0.0000 C   0  0  0  0  0  0  0  2  0  0  0  0
   -0.3572   -0.6187    0.0000 C   0  0  0  0  0  0  0  2  0  0  0  0
   -1.0717   -0.2062    0.0000 C   0  0  0  0  0  0  0  2  0  0  0  0
   -1.7862   -0.6187    0.0000 C   0  0  0  0  0  0  0  2  0  0  0  0
   -2.5006   -0.2062    0.0000 C   0  0  0  0  0  0  0  2  0  0  0  0
  1  2  2  0        0
  2  3  1  0        0
  2  4  1  0        0
  4  5  1  0        0
  5  6  1  0        0
  6  7  1  0        0
  7  8  1  0        0
  8  9  1  0        0
M  END
$$$$

CDXL12

  9  8  0  0  0  0  0  0  0  0999 V2000
   -1.7862    0.6187    0.0000 O   0  0  0  0  0  0  0  2  0  0  0  0
   -1.7862   -0.2062    0.0000 C   0  0  0  0  0  0  0  2  0  0  0  0
   -1.0717   -0.6187    0.0000 O   0  0  0  0  0  0  0  2  0  0  0  0
   -0.3572   -0.2062    0.0000 C   0  0  0  0  0  0  0  2  0  0  0  0
    0.3572   -0.6187    0.0000 C   0  0  0  0  0  0  0  2  0  0  0  0
    1.0717   -0.2062    0.0000 O   0  0  0  0  0  0  0  2  0  0  0  0
    1.7862   -0.6187    0.0000 C   0  0  0  0  0  0  0  2  0  0  0  0
    2.5006   -0.2062    0.0000 C   0  0  0  0  0  0  0  2  0  0  0  0
   -2.5006   -0.6187    0.0000 C   0  0  0  0  0  0  0  2  0  0  0  0
  1  2  2  0        0
  2  3  1  0        0
  3  4  1  0        0
  4  5  1  0        0
  5  6  1  0        0
  6  7  1  0        0
  7  8  1  0        0
  2  9  1  0        0
M  END
$$$$

CDXL12

 11 10  0  0  0  0  0  0  0  0999 V2000
    2.1434    0.6187    0.0000 O   0  0  0  0  0  0  0  2  0  0  0  0
    2.1434   -0.2062    0.0000 C   0  0  0  0  0  0  0  2  0  0  0  0
    2.8579   -0.6188    0.0000 O   0  0  0  0  0  0  0  2  0  0  0  0
    1.4289   -0.6188    0.0000 C   0  0  0  0  0  0  0  2  0  0  0  0
    0.7145   -0.2062    0.0000 C   0  0  0  0  0  0  0  2  0  0  0  0
   -0.0000   -0.6188    0.0000 C   0  0  0  0  0  0  0  2  0  0  0  0
   -0.7145   -0.2062    0.0000 C   0  0  0  0  0  0  0  2  0  0  0  0
   -1.4289   -0.6188    0.0000 C   0  0  0  0  0  0  0  2  0  0  0  0
   -2.1434   -0.2062    0.0000 C   0  0  0  0  0  0  0  2  0  0  0  0
   -2.1434    0.6188    0.0000 O   0  0  0  0  0  0  0  2  0  0  0  0
   -2.8579   -0.6187    0.0000 O   0  0  0  0  0  0  0  2  0  0  0  0
  1  2  2  0        0
  2  3  1  0        0
  2  4  1  0        0
  4  5  1  0        0
  5  6  1  0        0
  6  7  1  0        0
  7  8  1  0        0
  8  9  1  0        0
  9 10  2  0        0
  9 11  1  0        0
M  END
$$$$

CDXL12

 14 13  0  0  0  0  0  0  0  0999 V2000
   -3.2151   -1.0312    0.0000 O   0  0  0  0  0  0  0  2  0  0  0  0
   -3.2151   -0.2062    0.0000 C   0  0  0  0  0  0  0  2  0  0  0  0
   -3.9296    0.2062    0.0000 O   0  0  0  0  0  0  0  2  0  0  0  0
   -2.5006    0.2063    0.0000 C   0  0  0  0  0  0  0  2  0  0  0  0
   -1.7862   -0.2062    0.0000 C   0  0  0  0  0  0  0  2  0  0  0  0
   -1.0717    0.2062    0.0000 C   0  0  0  0  0  0  0  2  0  0  0  0
   -0.3572   -0.2062    0.0000 C   0  0  0  0  0  0  0  2  0  0  0  0
    0.3572    0.2062    0.0000 C   0  0  0  0  0  0  0  2  0  0  0  0
    1.0717   -0.2062    0.0000 C   0  0  0  0  0  0  0  2  0  0  0  0
    1.7862    0.2062    0.0000 C   0  0  0  0  0  0  0  2  0  0  0  0
    2.5006   -0.2062    0.0000 C   0  0  0  0  0  0  0  2  0  0  0  0
    3.2151    0.2062    0.0000 C   0  0  0  0  0  0  0  2  0  0  0  0
    3.2151    1.0312    0.0000 O   0  0  0  0  0  0  0  2  0  0  0  0
    3.9296   -0.2062    0.0000 O   0  0  0  0  0  0  0  2  0  0  0  0
  1  2  2  0        0
  2  3  1  0        0
  2  4  1  0        0
  4  5  1  0        0
  5  6  1  0        0
  6  7  1  0        0
  7  8  1  0        0
  8  9  1  0        0
  9 10  1  0        0
 10 11  1  0        0
 11 12  1  0        0
 12 13  2  0        0
 12 14  1  0        0
M  END
$$$$

CDXL12

  7  6  0  0  0  0  0  0  0  0999 V2000
   -2.1434   -0.2062    0.0000 Br  0  0  0  0  0  0  0  2  0  0  0  0
   -1.4289    0.2062    0.0000 C   0  0  0  0  0  0  0  2  0  0  0  0
   -0.7145   -0.2062    0.0000 C   0  0  0  0  0  0  0  2  0  0  0  0
    0.0000    0.2062    0.0000 C   0  0  0  0  0  0  0  2  0  0  0  0
    0.7145   -0.2062    0.0000 C   0  0  0  0  0  0  0  2  0  0  0  0
    1.4289    0.2062    0.0000 C   0  0  0  0  0  0  0  2  0  0  0  0
    2.1434   -0.2062    0.0000 C   0  0  0  0  0  0  0  2  0  0  0  0
  1  2  1  0        0
  2  3  1  0        0
  3  4  1  0        0
  4  5  1  0        0
  5  6  1  0        0
  6  7  1  0        0
M  END
$$$$

CDXL12

  7  6  0  0  0  0  0  0  0  0999 V2000
   -2.1434   -0.2062    0.0000 O   0  0  0  0  0  0  0  2  0  0  0  0
   -1.4289    0.2062    0.0000 C   0  0  0  0  0  0  0  2  0  0  0  0
   -0.7145   -0.2062    0.0000 C   0  0  0  0  0  0  0  2  0  0  0  0
    0.0000    0.2062    0.0000 C   0  0  0  0  0  0  0  2  0  0  0  0
    0.7145   -0.2062    0.0000 C   0  0  0  0  0  0  0  2  0  0  0  0
    1.4289    0.2062    0.0000 C   0  0  0  0  0  0  0  2  0  0  0  0
    2.1434   -0.2062    0.0000 C   0  0  0  0  0  0  0  2  0  0  0  0
  1  2  1  0        0
  2  3  1  0        0
  3  4  1  0        0
  4  5  1  0        0
  5  6  1  0        0
  6  7  1  0        0
M  END
$$$$

CDXL12

  7  6  0  0  0  0  0  0  0  0999 V2000
   -0.7145   -0.2062    0.0000 O   0  0  0  0  0  0  0  2  0  0  0  0
   -1.4289    0.2062    0.0000 C   0  0  0  0  0  0  0  2  0  0  0  0
   -2.1434   -0.2062    0.0000 C   0  0  0  0  0  0  0  2  0  0  0  0
    0.0000    0.2062    0.0000 C   0  0  0  0  0  0  0  2  0  0  0  0
    0.7145   -0.2062    0.0000 C   0  0  0  0  0  0  0  2  0  0  0  0
    1.4289    0.2062    0.0000 C   0  0  0  0  0  0  0  2  0  0  0  0
    2.1434   -0.2062    0.0000 C   0  0  0  0  0  0  0  2  0  0  0  0
  1  2  1  0        0
  2  3  2  0        0
  1  4  1  0        0
  4  5  1  0        0
  5  6  1  0        0
  6  7  1  0        0
M  END
$$$$

CDXL12

  7  6  0  0  0  0  0  0  0  0999 V2000
    0.0000    0.2062    0.0000 N   0  0  0  0  0  0  0  2  0  0  0  0
   -0.7145   -0.2062    0.0000 C   0  0  0  0  0  0  0  2  0  0  0  0
   -1.4289    0.2062    0.0000 C   0  0  0  0  0  0  0  2  0  0  0  0
   -2.1434   -0.2062    0.0000 N   0  0  0  0  0  0  0  2  0  0  0  0
    0.7145   -0.2062    0.0000 C   0  0  0  0  0  0  0  2  0  0  0  0
    1.4289    0.2062    0.0000 C   0  0  0  0  0  0  0  2  0  0  0  0
    2.1434   -0.2062    0.0000 N   0  0  0  0  0  0  0  2  0  0  0  0
  1  2  1  0        0
  2  3  1  0        0
  3  4  1  0        0
  1  5  1  0        0
  5  6  1  0        0
  6  7  1  0        0
M  END
$$$$

CDXL12

  7  6  0  0  0  0  0  0  0  0999 V2000
   -2.1434   -0.2062    0.0000 O   0  0  0  0  0  0  0  2  0  0  0  0
   -1.4289    0.2062    0.0000 C   0  0  0  0  0  0  0  2  0  0  0  0
   -0.7145   -0.2062    0.0000 C   0  0  0  0  0  0  0  2  0  0  0  0
    0.0000    0.2062    0.0000 N   0  0  0  0  0  0  0  2  0  0  0  0
    0.7145   -0.2062    0.0000 C   0  0  0  0  0  0  0  2  0  0  0  0
    1.4289    0.2062    0.0000 C   0  0  0  0  0  0  0  2  0  0  0  0
    2.1434   -0.2062    0.0000 N   0  0  0  0  0  0  0  2  0  0  0  0
  1  2  1  0        0
  2  3  1  0        0
  3  4  1  0        0
  4  5  1  0        0
  5  6  1  0        0
  6  7  1  0        0
M  END
$$$$

CDXL12

  7  6  0  0  0  0  0  0  0  0999 V2000
    0.0000    0.2062    0.0000 O   0  0  0  0  0  0  0  2  0  0  0  0
   -0.7145   -0.2062    0.0000 C   0  0  0  0  0  0  0  2  0  0  0  0
   -1.4289    0.2062    0.0000 C   0  0  0  0  0  0  0  2  0  0  0  0
   -2.1434   -0.2062    0.0000 C   0  0  0  0  0  0  0  2  0  0  0  0
    0.7145   -0.2062    0.0000 C   0  0  0  0  0  0  0  2  0  0  0  0
    1.4289    0.2062    0.0000 C   0  0  0  0  0  0  0  2  0  0  0  0
    2.1434   -0.2062    0.0000 C   0  0  0  0  0  0  0  2  0  0  0  0
  1  2  1  0        0
  2  3  1  0        0
  3  4  1  0        0
  1  5  1  0        0
  5  6  1  0        0
  6  7  1  0        0
M  END
$$$$

CDXL12

  7  6  0  0  0  0  0  0  0  0999 V2000
    0.0000    0.2062    0.0000 O   0  0  0  0  0  0  0  2  0  0  0  0
   -0.7145   -0.2062    0.0000 C   0  0  0  0  0  0  0  2  0  0  0  0
   -1.4289    0.2062    0.0000 C   0  0  0  0  0  0  0  2  0  0  0  0
   -2.1434   -0.2062    0.0000 O   0  0  0  0  0  0  0  2  0  0  0  0
    0.7145   -0.2062    0.0000 C   0  0  0  0  0  0  0  2  0  0  0  0
    1.4289    0.2062    0.0000 C   0  0  0  0  0  0  0  2  0  0  0  0
    2.1434   -0.2062    0.0000 O   0  0  0  0  0  0  0  2  0  0  0  0
  1  2  1  0        0
  2  3  1  0        0
  3  4  1  0        0
  1  5  1  0        0
  5  6  1  0        0
  6  7  1  0        0
M  END
$$$$

CDXL12

  7  7  0  0  0  0  0  0  0  0999 V2000
   -0.4125   -0.9036    0.0000 N   0  0  0  0  0  0  0  2  0  0  0  0
   -0.9269   -0.2586    0.0000 C   0  0  0  0  0  0  0  2  0  0  0  0
   -0.7433    0.5457    0.0000 C   0  0  0  0  0  0  0  2  0  0  0  0
    0.0000    0.9036    0.0000 C   0  0  0  0  0  0  0  2  0  0  0  0
    0.7433    0.5457    0.0000 C   0  0  0  0  0  0  0  2  0  0  0  0
    0.9269   -0.2586    0.0000 C   0  0  0  0  0  0  0  2  0  0  0  0
    0.4125   -0.9036    0.0000 C   0  0  0  0  0  0  0  2  0  0  0  0
  1  2  1  0        0
  2  3  1  0        0
  3  4  1  0        0
  4  5  1  0        0
  5  6  1  0        0
  6  7  1  0        0
  1  7  1  0        0
M  END
$$$$

CDXL12

 10  9  0  0  0  0  0  0  0  0999 V2000
   -1.7862   -1.0312    0.0000 O   0  0  0  0  0  0  0  2  0  0  0  0
   -1.7862   -0.2062    0.0000 C   0  0  0  0  0  0  0  2  0  0  0  0
   -1.0717    0.2063    0.0000 O   0  0  0  0  0  0  0  2  0  0  0  0
   -0.3572   -0.2062    0.0000 C   0  0  0  0  0  0  0  2  0  0  0  0
    0.3572    0.2062    0.0000 C   0  0  0  0  0  0  0  2  0  0  0  0
    1.0717   -0.2062    0.0000 O   0  0  0  0  0  0  0  2  0  0  0  0
    1.7862    0.2062    0.0000 C   0  0  0  0  0  0  0  2  0  0  0  0
    1.7862    1.0312    0.0000 O   0  0  0  0  0  0  0  2  0  0  0  0
    2.5006   -0.2062    0.0000 C   0  0  0  0  0  0  0  2  0  0  0  0
   -2.5006    0.2062    0.0000 C   0  0  0  0  0  0  0  2  0  0  0  0
  1  2  2  0        0
  2  3  1  0        0
  3  4  1  0        0
  4  5  1  0        0
  5  6  1  0        0
  6  7  1  0        0
  7  8  2  0        0
  7  9  1  0        0
  2 10  1  0        0
M  END
$$$$

CDXL12

  8  7  0  0  0  0  0  0  0  0999 V2000
    1.7862   -0.2062    0.0000 C   0  0  0  0  0  0  0  2  0  0  0  0
    1.0717    0.2062    0.0000 C   0  0  0  0  0  0  0  2  0  0  0  0
    0.3572   -0.2062    0.0000 C   0  0  0  0  0  0  0  2  0  0  0  0
   -0.3572    0.2062    0.0000 C   0  0  0  0  0  0  0  2  0  0  0  0
   -1.0717   -0.2062    0.0000 C   0  0  0  0  0  0  0  2  0  0  0  0
   -1.7862    0.2062    0.0000 C   0  0  0  0  0  0  0  2  0  0  0  0
   -2.5006   -0.2062    0.0000 C   0  0  0  0  0  0  0  2  0  0  0  0
    2.5006    0.2062    0.0000 C   0  0  0  0  0  0  0  2  0  0  0  0
  1  2  1  0        0
  2  3  1  0        0
  3  4  1  0        0
  4  5  1  0        0
  5  6  1  0        0
  6  7  1  0        0
  1  8  1  0        0
M  END
$$$$

CDXL12

  8  7  0  0  0  0  0  0  0  0999 V2000
    2.5006    0.2062    0.0000 O   0  0  0  0  0  0  0  2  0  0  0  0
    1.7862   -0.2062    0.0000 C   0  0  0  0  0  0  0  2  0  0  0  0
    1.0717    0.2062    0.0000 C   0  0  0  0  0  0  0  2  0  0  0  0
    0.3572   -0.2062    0.0000 C   0  0  0  0  0  0  0  2  0  0  0  0
   -0.3572    0.2062    0.0000 C   0  0  0  0  0  0  0  2  0  0  0  0
   -1.0717   -0.2062    0.0000 C   0  0  0  0  0  0  0  2  0  0  0  0
   -1.7862    0.2062    0.0000 C   0  0  0  0  0  0  0  2  0  0  0  0
   -2.5006   -0.2062    0.0000 C   0  0  0  0  0  0  0  2  0  0  0  0
  1  2  2  0        0
  2  3  1  0        0
  3  4  1  0        0
  4  5  1  0        0
  5  6  1  0        0
  6  7  1  0        0
  7  8  1  0        0
M  END
$$$$

CDXL12

  8  7  0  0  0  0  0  0  0  0999 V2000
    0.3572   -0.2062    0.0000 O   0  0  0  0  0  0  0  2  0  0  0  0
   -0.3572    0.2062    0.0000 C   0  0  0  0  0  0  0  2  0  0  0  0
   -1.0717   -0.2062    0.0000 C   0  0  0  0  0  0  0  2  0  0  0  0
   -1.7862    0.2062    0.0000 O   0  0  0  0  0  0  0  2  0  0  0  0
   -2.5006   -0.2062    0.0000 C   0  0  0  0  0  0  0  2  0  0  0  0
    1.0717    0.2062    0.0000 C   0  0  0  0  0  0  0  2  0  0  0  0
    1.7862   -0.2062    0.0000 C   0  0  0  0  0  0  0  2  0  0  0  0
    2.5006    0.2062    0.0000 O   0  0  0  0  0  0  0  2  0  0  0  0
  1  2  1  0        0
  2  3  1  0        0
  3  4  1  0        0
  4  5  1  0        0
  1  6  1  0        0
  6  7  1  0        0
  7  8  1  0        0
M  END
$$$$

CDXL12

  9  8  0  0  0  0  0  0  0  0999 V2000
   -2.8579   -0.2062    0.0000 Br  0  0  0  0  0  0  0  2  0  0  0  0
   -2.1434    0.2062    0.0000 C   0  0  0  0  0  0  0  2  0  0  0  0
   -1.4289   -0.2062    0.0000 C   0  0  0  0  0  0  0  2  0  0  0  0
   -0.7145    0.2062    0.0000 C   0  0  0  0  0  0  0  2  0  0  0  0
    0.0000   -0.2062    0.0000 C   0  0  0  0  0  0  0  2  0  0  0  0
    0.7145    0.2062    0.0000 C   0  0  0  0  0  0  0  2  0  0  0  0
    1.4289   -0.2062    0.0000 C   0  0  0  0  0  0  0  2  0  0  0  0
    2.1434    0.2062    0.0000 C   0  0  0  0  0  0  0  2  0  0  0  0
    2.8579   -0.2062    0.0000 C   0  0  0  0  0  0  0  2  0  0  0  0
  1  2  1  0        0
  2  3  1  0        0
  3  4  1  0        0
  4  5  1  0        0
  5  6  1  0        0
  6  7  1  0        0
  7  8  1  0        0
  8  9  1  0        0
M  END
$$$$

CDXL12

  9  8  0  0  0  0  0  0  0  0999 V2000
   -2.1434    0.2062    0.0000 C   0  0  0  0  0  0  0  2  0  0  0  0
   -1.4289   -0.2062    0.0000 C   0  0  0  0  0  0  0  2  0  0  0  0
   -0.7145    0.2062    0.0000 C   0  0  0  0  0  0  0  2  0  0  0  0
    0.0000   -0.2062    0.0000 C   0  0  0  0  0  0  0  2  0  0  0  0
    0.7145    0.2062    0.0000 C   0  0  0  0  0  0  0  2  0  0  0  0
    1.4289   -0.2062    0.0000 C   0  0  0  0  0  0  0  2  0  0  0  0
    2.1434    0.2062    0.0000 C   0  0  0  0  0  0  0  2  0  0  0  0
    2.8579   -0.2062    0.0000 C   0  0  0  0  0  0  0  2  0  0  0  0
   -2.8579   -0.2062    0.0000 C   0  0  0  0  0  0  0  2  0  0  0  0
  1  2  1  0        0
  2  3  1  0        0
  3  4  1  0        0
  4  5  1  0        0
  5  6  1  0        0
  6  7  1  0        0
  7  8  1  0        0
  1  9  1  0        0
M  END
$$$$

CDXL12

  9  8  0  0  0  0  0  0  0  0999 V2000
   -2.8579   -0.2062    0.0000 Cl  0  0  0  0  0  0  0  2  0  0  0  0
   -2.1434    0.2062    0.0000 C   0  0  0  0  0  0  0  2  0  0  0  0
   -1.4289   -0.2062    0.0000 C   0  0  0  0  0  0  0  2  0  0  0  0
   -0.7145    0.2062    0.0000 C   0  0  0  0  0  0  0  2  0  0  0  0
    0.0000   -0.2062    0.0000 C   0  0  0  0  0  0  0  2  0  0  0  0
    0.7145    0.2062    0.0000 C   0  0  0  0  0  0  0  2  0  0  0  0
    1.4289   -0.2062    0.0000 C   0  0  0  0  0  0  0  2  0  0  0  0
    2.1434    0.2062    0.0000 C   0  0  0  0  0  0  0  2  0  0  0  0
    2.8579   -0.2062    0.0000 C   0  0  0  0  0  0  0  2  0  0  0  0
  1  2  1  0        0
  2  3  1  0        0
  3  4  1  0        0
  4  5  1  0        0
  5  6  1  0        0
  6  7  1  0        0
  7  8  1  0        0
  8  9  1  0        0
M  END
$$$$

CDXL12

  9  8  0  0  0  0  0  0  0  0999 V2000
   -2.8579   -0.2062    0.0000 N   0  0  0  0  0  0  0  2  0  0  0  0
   -2.1434    0.2062    0.0000 C   0  0  0  0  0  0  0  2  0  0  0  0
   -1.4289   -0.2062    0.0000 C   0  0  0  0  0  0  0  2  0  0  0  0
   -0.7145    0.2062    0.0000 C   0  0  0  0  0  0  0  2  0  0  0  0
    0.0000   -0.2062    0.0000 C   0  0  0  0  0  0  0  2  0  0  0  0
    0.7145    0.2062    0.0000 C   0  0  0  0  0  0  0  2  0  0  0  0
    1.4289   -0.2062    0.0000 C   0  0  0  0  0  0  0  2  0  0  0  0
    2.1434    0.2062    0.0000 C   0  0  0  0  0  0  0  2  0  0  0  0
    2.8579   -0.2062    0.0000 C   0  0  0  0  0  0  0  2  0  0  0  0
  1  2  1  0        0
  2  3  1  0        0
  3  4  1  0        0
  4  5  1  0        0
  5  6  1  0        0
  6  7  1  0        0
  7  8  1  0        0
  8  9  1  0        0
M  END
$$$$

CDXL12

  9  8  0  0  0  0  0  0  0  0999 V2000
   -2.8579   -0.2062    0.0000 O   0  0  0  0  0  0  0  2  0  0  0  0
   -2.1434    0.2062    0.0000 C   0  0  0  0  0  0  0  2  0  0  0  0
   -1.4289   -0.2062    0.0000 C   0  0  0  0  0  0  0  2  0  0  0  0
   -0.7145    0.2062    0.0000 C   0  0  0  0  0  0  0  2  0  0  0  0
    0.0000   -0.2062    0.0000 C   0  0  0  0  0  0  0  2  0  0  0  0
    0.7145    0.2062    0.0000 C   0  0  0  0  0  0  0  2  0  0  0  0
    1.4289   -0.2062    0.0000 C   0  0  0  0  0  0  0  2  0  0  0  0
    2.1434    0.2062    0.0000 C   0  0  0  0  0  0  0  2  0  0  0  0
    2.8579   -0.2062    0.0000 C   0  0  0  0  0  0  0  2  0  0  0  0
  1  2  1  0        0
  2  3  1  0        0
  3  4  1  0        0
  4  5  1  0        0
  5  6  1  0        0
  6  7  1  0        0
  7  8  1  0        0
  8  9  1  0        0
M  END
$$$$

CDXL12

  9  8  0  0  0  0  0  0  0  0999 V2000
    0.7145    0.2062    0.0000 O   0  0  0  0  0  0  0  2  0  0  0  0
    0.0000   -0.2062    0.0000 C   0  0  0  0  0  0  0  2  0  0  0  0
   -0.7145    0.2062    0.0000 C   0  0  0  0  0  0  0  2  0  0  0  0
   -1.4289   -0.2062    0.0000 O   0  0  0  0  0  0  0  2  0  0  0  0
   -2.1434    0.2062    0.0000 C   0  0  0  0  0  0  0  2  0  0  0  0
   -2.8579   -0.2062    0.0000 C   0  0  0  0  0  0  0  2  0  0  0  0
    1.4289   -0.2062    0.0000 C   0  0  0  0  0  0  0  2  0  0  0  0
    2.1434    0.2062    0.0000 C   0  0  0  0  0  0  0  2  0  0  0  0
    2.8579   -0.2062    0.0000 O   0  0  0  0  0  0  0  2  0  0  0  0
  1  2  1  0        0
  2  3  1  0        0
  3  4  1  0        0
  4  5  1  0        0
  5  6  1  0        0
  1  7  1  0        0
  7  8  1  0        0
  8  9  1  0        0
M  END
$$$$

CDXL12

  9  8  0  0  0  0  0  0  0  0999 V2000
    0.0000   -0.2062    0.0000 O   0  0  0  0  0  0  0  2  0  0  0  0
   -0.7145    0.2062    0.0000 C   0  0  0  0  0  0  0  2  0  0  0  0
   -1.4289   -0.2062    0.0000 C   0  0  0  0  0  0  0  2  0  0  0  0
   -2.1434    0.2062    0.0000 O   0  0  0  0  0  0  0  2  0  0  0  0
   -2.8579   -0.2062    0.0000 C   0  0  0  0  0  0  0  2  0  0  0  0
    0.7145    0.2062    0.0000 C   0  0  0  0  0  0  0  2  0  0  0  0
    1.4289   -0.2062    0.0000 C   0  0  0  0  0  0  0  2  0  0  0  0
    2.1434    0.2062    0.0000 O   0  0  0  0  0  0  0  2  0  0  0  0
    2.8579   -0.2062    0.0000 C   0  0  0  0  0  0  0  2  0  0  0  0
  1  2  1  0        0
  2  3  1  0        0
  3  4  1  0        0
  4  5  1  0        0
  1  6  1  0        0
  6  7  1  0        0
  7  8  1  0        0
  8  9  1  0        0
M  END
$$$$

CDXL12

 21 20  0  0  0  0  0  0  0  0999 V2000
   -6.1232   -0.0399    0.0000 C   0  0  0  0  0  0  0  2  0  0  0  0
   -5.4087    0.3726    0.0000 C   0  0  0  0  0  0  0  2  0  0  0  0
   -4.6942   -0.0399    0.0000 C   0  0  0  0  0  0  0  2  0  0  0  0
   -3.9798    0.3726    0.0000 C   0  0  0  0  0  0  0  2  0  0  0  0
   -3.2653   -0.0399    0.0000 C   0  0  0  0  0  0  0  2  0  0  0  0
   -2.5508    0.3726    0.0000 C   0  0  0  0  0  0  0  2  0  0  0  0
   -1.8364   -0.0399    0.0000 C   0  0  0  0  0  0  0  2  0  0  0  0
   -1.1219    0.3726    0.0000 C   0  0  0  0  0  0  0  2  0  0  0  0
   -0.4074   -0.0399    0.0000 C   0  0  0  0  0  0  0  2  0  0  0  0
    0.3070    0.3726    0.0000 C   0  0  0  0  0  0  0  2  0  0  0  0
    1.0215   -0.0399    0.0000 C   0  0  0  0  0  0  0  2  0  0  0  0
    1.7360    0.3726    0.0000 C   0  0  0  0  0  0  0  2  0  0  0  0
    2.4505   -0.0399    0.0000 C   0  0  0  0  0  0  0  2  0  0  0  0
    3.1649    0.3726    0.0000 C   0  0  0  0  0  0  0  2  0  0  0  0
    3.8794   -0.0399    0.0000 C   0  0  0  0  0  0  0  2  0  0  0  0
    4.5939    0.3726    0.0000 C   0  0  0  0  0  0  0  2  0  0  0  0
    5.3083   -0.0399    0.0000 N   0  0  0  0  0  0  0  2  0  0  0  0
    4.7250   -0.6232    0.0000 Cl  0  0  0  0  0  0  0  2  0  0  0  0
    5.6829   -0.7750    0.0000 C   0  0  0  0  0  0  0  2  0  0  0  0
    6.1232    0.0892    0.0000 C   0  0  0  0  0  0  0  2  0  0  0  0
    5.4374    0.7750    0.0000 C   0  0  0  0  0  0  0  2  0  0  0  0
  1  2  1  0        0
  2  3  1  0        0
  3  4  1  0        0
  4  5  1  0        0
  5  6  1  0        0
  6  7  1  0        0
  7  8  1  0        0
  8  9  1  0        0
  9 10  1  0        0
 10 11  1  0        0
 11 12  1  0        0
 12 13  1  0        0
 13 14  1  0        0
 14 15  1  0        0
 15 16  1  0        0
 16 17  1  0        0
 17 18  1  0        0
 17 19  1  0        0
 17 20  1  0        0
 17 21  1  0        0
M  END
$$$$

CDXL12

 11 10  0  0  0  0  0  0  0  0999 V2000
    2.5006    0.6187    0.0000 O   0  0  0  0  0  0  0  2  0  0  0  0
    2.5006   -0.2062    0.0000 C   0  0  0  0  0  0  0  2  0  0  0  0
    3.2151   -0.6187    0.0000 O   0  0  0  0  0  0  0  2  0  0  0  0
    1.7862   -0.6187    0.0000 C   0  0  0  0  0  0  0  2  0  0  0  0
    1.0717   -0.2062    0.0000 C   0  0  0  0  0  0  0  2  0  0  0  0
    0.3572   -0.6187    0.0000 C   0  0  0  0  0  0  0  2  0  0  0  0
   -0.3572   -0.2062    0.0000 C   0  0  0  0  0  0  0  2  0  0  0  0
   -1.0717   -0.6187    0.0000 C   0  0  0  0  0  0  0  2  0  0  0  0
   -1.7862   -0.2062    0.0000 C   0  0  0  0  0  0  0  2  0  0  0  0
   -2.5006   -0.6187    0.0000 C   0  0  0  0  0  0  0  2  0  0  0  0
   -3.2151   -0.2062    0.0000 C   0  0  0  0  0  0  0  2  0  0  0  0
  1  2  2  0        0
  2  3  1  0        0
  2  4  1  0        0
  4  5  1  0        0
  5  6  1  0        0
  6  7  1  0        0
  7  8  1  0        0
  8  9  1  0        0
  9 10  1  0        0
 10 11  1  0        0
M  END
$$$$

CDXL12

 12 11  0  0  0  0  0  0  0  0999 V2000
   -2.8579    0.6187    0.0000 O   0  0  0  0  0  0  0  2  0  0  0  0
   -2.8579   -0.2062    0.0000 C   0  0  0  0  0  0  0  2  0  0  0  0
   -2.1434   -0.6187    0.0000 O   0  0  0  0  0  0  0  2  0  0  0  0
   -1.4289   -0.2062    0.0000 C   0  0  0  0  0  0  0  2  0  0  0  0
   -0.7145   -0.6187    0.0000 C   0  0  0  0  0  0  0  2  0  0  0  0
    0.0000   -0.2062    0.0000 O   0  0  0  0  0  0  0  2  0  0  0  0
    0.7145   -0.6187    0.0000 C   0  0  0  0  0  0  0  2  0  0  0  0
    1.4289   -0.2062    0.0000 C   0  0  0  0  0  0  0  2  0  0  0  0
    2.1434   -0.6187    0.0000 O   0  0  0  0  0  0  0  2  0  0  0  0
    2.8579   -0.2062    0.0000 C   0  0  0  0  0  0  0  2  0  0  0  0
    3.5724   -0.6187    0.0000 C   0  0  0  0  0  0  0  2  0  0  0  0
   -3.5724   -0.6187    0.0000 C   0  0  0  0  0  0  0  2  0  0  0  0
  1  2  2  0        0
  2  3  1  0        0
  3  4  1  0        0
  4  5  1  0        0
  5  6  1  0        0
  6  7  1  0        0
  7  8  1  0        0
  8  9  1  0        0
  9 10  1  0        0
 10 11  1  0        0
  2 12  1  0        0
M  END
$$$$

CDXL12

 10  9  0  0  0  0  0  0  0  0999 V2000
   -1.0717    0.2062    0.0000 O   0  0  0  0  0  0  0  2  0  0  0  0
   -0.3572   -0.2062    0.0000 C   0  0  0  0  0  0  0  2  0  0  0  0
    0.3572    0.2062    0.0000 C   0  0  0  0  0  0  0  2  0  0  0  0
    1.0717   -0.2062    0.0000 O   0  0  0  0  0  0  0  2  0  0  0  0
    1.7862    0.2062    0.0000 C   0  0  0  0  0  0  0  2  0  0  0  0
    2.5006   -0.2062    0.0000 C   0  0  0  0  0  0  0  2  0  0  0  0
    3.2151    0.2062    0.0000 O   0  0  0  0  0  0  0  2  0  0  0  0
   -1.7862   -0.2062    0.0000 C   0  0  0  0  0  0  0  2  0  0  0  0
   -2.5006    0.2062    0.0000 C   0  0  0  0  0  0  0  2  0  0  0  0
   -3.2151   -0.2062    0.0000 O   0  0  0  0  0  0  0  2  0  0  0  0
  1  2  1  0        0
  2  3  1  0        0
  3  4  1  0        0
  4  5  1  0        0
  5  6  1  0        0
  6  7  1  0        0
  1  8  1  0        0
  8  9  1  0        0
  9 10  1  0        0
M  END
$$$$

CDXL12

 11 10  0  0  0  0  0  0  0  0999 V2000
   -3.5724   -0.2062    0.0000 O   0  0  0  0  0  0  0  2  0  0  0  0
   -2.8579    0.2062    0.0000 C   0  0  0  0  0  0  0  2  0  0  0  0
   -2.1434   -0.2062    0.0000 C   0  0  0  0  0  0  0  2  0  0  0  0
   -1.4289    0.2062    0.0000 C   0  0  0  0  0  0  0  2  0  0  0  0
   -0.7145   -0.2062    0.0000 C   0  0  0  0  0  0  0  2  0  0  0  0
    0.0000    0.2062    0.0000 C   0  0  0  0  0  0  0  2  0  0  0  0
    0.7145   -0.2062    0.0000 C   0  0  0  0  0  0  0  2  0  0  0  0
    1.4289    0.2062    0.0000 C   0  0  0  0  0  0  0  2  0  0  0  0
    2.1434   -0.2062    0.0000 C   0  0  0  0  0  0  0  2  0  0  0  0
    2.8579    0.2062    0.0000 C   0  0  0  0  0  0  0  2  0  0  0  0
    3.5724   -0.2062    0.0000 C   0  0  0  0  0  0  0  2  0  0  0  0
  1  2  1  0        0
  2  3  1  0        0
  3  4  1  0        0
  4  5  1  0        0
  5  6  1  0        0
  6  7  1  0        0
  7  8  1  0        0
  8  9  1  0        0
  9 10  1  0        0
 10 11  1  0        0
M  END
$$$$

CDXL12

 11 10  0  0  0  0  0  0  0  0999 V2000
    1.4289    0.2062    0.0000 O   0  0  0  0  0  0  0  2  0  0  0  0
    0.7145   -0.2062    0.0000 C   0  0  0  0  0  0  0  2  0  0  0  0
    0.0000    0.2062    0.0000 C   0  0  0  0  0  0  0  2  0  0  0  0
   -0.7145   -0.2062    0.0000 O   0  0  0  0  0  0  0  2  0  0  0  0
   -1.4289    0.2062    0.0000 C   0  0  0  0  0  0  0  2  0  0  0  0
   -2.1434   -0.2062    0.0000 C   0  0  0  0  0  0  0  2  0  0  0  0
   -2.8579    0.2062    0.0000 O   0  0  0  0  0  0  0  2  0  0  0  0
   -3.5724   -0.2062    0.0000 C   0  0  0  0  0  0  0  2  0  0  0  0
    2.1434   -0.2062    0.0000 C   0  0  0  0  0  0  0  2  0  0  0  0
    2.8579    0.2062    0.0000 C   0  0  0  0  0  0  0  2  0  0  0  0
    3.5724   -0.2062    0.0000 O   0  0  0  0  0  0  0  2  0  0  0  0
  1  2  1  0        0
  2  3  1  0        0
  3  4  1  0        0
  4  5  1  0        0
  5  6  1  0        0
  6  7  1  0        0
  7  8  1  0        0
  1  9  1  0        0
  9 10  1  0        0
 10 11  1  0        0
M  END
$$$$

CDXL12

 11 10  0  0  0  0  0  0  0  0999 V2000
    0.0000    0.2062    0.0000 O   0  0  0  0  0  0  0  2  0  0  0  0
   -0.7145   -0.2062    0.0000 C   0  0  0  0  0  0  0  2  0  0  0  0
   -1.4289    0.2062    0.0000 C   0  0  0  0  0  0  0  2  0  0  0  0
   -2.1434   -0.2062    0.0000 O   0  0  0  0  0  0  0  2  0  0  0  0
   -2.8579    0.2062    0.0000 C   0  0  0  0  0  0  0  2  0  0  0  0
   -3.5724   -0.2062    0.0000 C   0  0  0  0  0  0  0  2  0  0  0  0
    0.7145   -0.2062    0.0000 C   0  0  0  0  0  0  0  2  0  0  0  0
    1.4289    0.2062    0.0000 C   0  0  0  0  0  0  0  2  0  0  0  0
    2.1434   -0.2062    0.0000 O   0  0  0  0  0  0  0  2  0  0  0  0
    2.8579    0.2062    0.0000 C   0  0  0  0  0  0  0  2  0  0  0  0
    3.5724   -0.2062    0.0000 C   0  0  0  0  0  0  0  2  0  0  0  0
  1  2  1  0        0
  2  3  1  0        0
  3  4  1  0        0
  4  5  1  0        0
  5  6  1  0        0
  1  7  1  0        0
  7  8  1  0        0
  8  9  1  0        0
  9 10  1  0        0
 10 11  1  0        0
M  END
$$$$

CDXL12

 13 12  0  0  0  0  0  0  0  0999 V2000
    3.2151    0.6187    0.0000 O   0  0  0  0  0  0  0  2  0  0  0  0
    3.2151   -0.2062    0.0000 C   0  0  0  0  0  0  0  2  0  0  0  0
    3.9296   -0.6187    0.0000 O   0  0  0  0  0  0  0  2  0  0  0  0
    2.5006   -0.6187    0.0000 C   0  0  0  0  0  0  0  2  0  0  0  0
    1.7862   -0.2062    0.0000 C   0  0  0  0  0  0  0  2  0  0  0  0
    1.0717   -0.6187    0.0000 C   0  0  0  0  0  0  0  2  0  0  0  0
    0.3572   -0.2062    0.0000 C   0  0  0  0  0  0  0  2  0  0  0  0
   -0.3572   -0.6187    0.0000 C   0  0  0  0  0  0  0  2  0  0  0  0
   -1.0717   -0.2062    0.0000 C   0  0  0  0  0  0  0  2  0  0  0  0
   -1.7862   -0.6187    0.0000 C   0  0  0  0  0  0  0  2  0  0  0  0
   -2.5006   -0.2062    0.0000 C   0  0  0  0  0  0  0  2  0  0  0  0
   -3.2151   -0.6187    0.0000 C   0  0  0  0  0  0  0  2  0  0  0  0
   -3.9296   -0.2062    0.0000 C   0  0  0  0  0  0  0  2  0  0  0  0
  1  2  2  0        0
  2  3  1  0        0
  2  4  1  0        0
  4  5  1  0        0
  5  6  1  0        0
  6  7  1  0        0
  7  8  1  0        0
  8  9  1  0        0
  9 10  1  0        0
 10 11  1  0        0
 11 12  1  0        0
 12 13  1  0        0
M  END
$$$$

CDXL12

 13 12  0  0  0  0  0  0  0  0999 V2000
    3.2151    0.6187    0.0000 O   0  0  0  0  0  0  0  2  0  0  0  0
    3.2151   -0.2062    0.0000 C   0  0  0  0  0  0  0  2  0  0  0  0
    3.9296   -0.6187    0.0000 O   0  0  0  0  0  0  0  2  0  0  0  0
    2.5006   -0.6187    0.0000 C   0  0  0  0  0  0  0  2  0  0  0  0
    1.7862   -0.2062    0.0000 C   0  0  0  0  0  0  0  2  0  0  0  0
    1.0717   -0.6187    0.0000 C   0  0  0  0  0  0  0  2  0  0  0  0
    0.3572   -0.2062    0.0000 C   0  0  0  0  0  0  0  2  0  0  0  0
   -0.3572   -0.6187    0.0000 C   0  0  0  0  0  0  0  2  0  0  0  0
   -1.0717   -0.2062    0.0000 C   0  0  0  0  0  0  0  2  0  0  0  0
   -1.7862   -0.6187    0.0000 C   0  0  0  0  0  0  0  2  0  0  0  0
   -2.5006   -0.2062    0.0000 C   0  0  0  0  0  0  0  2  0  0  0  0
   -3.2151   -0.6187    0.0000 C   0  0  0  0  0  0  0  2  0  0  0  0
   -3.9296   -0.2062    0.0000 C   0  0  0  0  0  0  0  2  0  0  0  0
  1  2  2  0        0
  2  3  1  0        0
  2  4  1  0        0
  4  5  1  0        0
  5  6  1  0        0
  6  7  1  0        0
  7  8  1  0        0
  8  9  1  0        0
  9 10  1  0        0
 10 11  1  0        0
 11 12  1  0        0
 12 13  2  0        0
M  END
$$$$

CDXL12

 12 11  0  0  0  0  0  0  0  0999 V2000
    1.7862   -0.2062    0.0000 O   0  0  0  0  0  0  0  2  0  0  0  0
    1.0717    0.2062    0.0000 C   0  0  0  0  0  0  0  2  0  0  0  0
    0.3572   -0.2062    0.0000 C   0  0  0  0  0  0  0  2  0  0  0  0
   -0.3572    0.2062    0.0000 O   0  0  0  0  0  0  0  2  0  0  0  0
   -1.0717   -0.2062    0.0000 C   0  0  0  0  0  0  0  2  0  0  0  0
   -1.7862    0.2062    0.0000 C   0  0  0  0  0  0  0  2  0  0  0  0
   -2.5006   -0.2062    0.0000 O   0  0  0  0  0  0  0  2  0  0  0  0
   -3.2151    0.2062    0.0000 C   0  0  0  0  0  0  0  2  0  0  0  0
   -3.9296   -0.2062    0.0000 C   0  0  0  0  0  0  0  2  0  0  0  0
    2.5006    0.2062    0.0000 C   0  0  0  0  0  0  0  2  0  0  0  0
    3.2151   -0.2062    0.0000 C   0  0  0  0  0  0  0  2  0  0  0  0
    3.9296    0.2062    0.0000 O   0  0  0  0  0  0  0  2  0  0  0  0
  1  2  1  0        0
  2  3  1  0        0
  3  4  1  0        0
  4  5  1  0        0
  5  6  1  0        0
  6  7  1  0        0
  7  8  1  0        0
  8  9  1  0        0
  1 10  1  0        0
 10 11  1  0        0
 11 12  1  0        0
M  END
$$$$

CDXL12

 13 12  0  0  0  0  0  0  0  0999 V2000
   -4.2868   -0.2062    0.0000 O   0  0  0  0  0  0  0  2  0  0  0  0
   -3.5724    0.2062    0.0000 C   0  0  0  0  0  0  0  2  0  0  0  0
   -2.8579   -0.2062    0.0000 C   0  0  0  0  0  0  0  2  0  0  0  0
   -2.1434    0.2062    0.0000 C   0  0  0  0  0  0  0  2  0  0  0  0
   -1.4289   -0.2062    0.0000 C   0  0  0  0  0  0  0  2  0  0  0  0
   -0.7145    0.2062    0.0000 C   0  0  0  0  0  0  0  2  0  0  0  0
    0.0000   -0.2062    0.0000 C   0  0  0  0  0  0  0  2  0  0  0  0
    0.7145    0.2062    0.0000 C   0  0  0  0  0  0  0  2  0  0  0  0
    1.4289   -0.2062    0.0000 C   0  0  0  0  0  0  0  2  0  0  0  0
    2.1434    0.2062    0.0000 C   0  0  0  0  0  0  0  2  0  0  0  0
    2.8579   -0.2062    0.0000 C   0  0  0  0  0  0  0  2  0  0  0  0
    3.5724    0.2062    0.0000 C   0  0  0  0  0  0  0  2  0  0  0  0
    4.2868   -0.2062    0.0000 C   0  0  0  0  0  0  0  2  0  0  0  0
  1  2  1  0        0
  2  3  1  0        0
  3  4  1  0        0
  4  5  1  0        0
  5  6  1  0        0
  6  7  1  0        0
  7  8  1  0        0
  8  9  1  0        0
  9 10  1  0        0
 10 11  1  0        0
 11 12  1  0        0
 12 13  1  0        0
M  END
$$$$

CDXL12

 13 12  0  0  0  0  0  0  0  0999 V2000
    2.1434    0.2062    0.0000 N   0  0  0  0  0  0  0  2  0  0  0  0
    1.4289   -0.2062    0.0000 C   0  0  0  0  0  0  0  2  0  0  0  0
    0.7145    0.2062    0.0000 C   0  0  0  0  0  0  0  2  0  0  0  0
    0.0000   -0.2062    0.0000 N   0  0  0  0  0  0  0  2  0  0  0  0
   -0.7145    0.2062    0.0000 C   0  0  0  0  0  0  0  2  0  0  0  0
   -1.4289   -0.2062    0.0000 C   0  0  0  0  0  0  0  2  0  0  0  0
   -2.1434    0.2062    0.0000 N   0  0  0  0  0  0  0  2  0  0  0  0
   -2.8579   -0.2062    0.0000 C   0  0  0  0  0  0  0  2  0  0  0  0
   -3.5724    0.2062    0.0000 C   0  0  0  0  0  0  0  2  0  0  0  0
   -4.2868   -0.2062    0.0000 N   0  0  0  0  0  0  0  2  0  0  0  0
    2.8579   -0.2062    0.0000 C   0  0  0  0  0  0  0  2  0  0  0  0
    3.5724    0.2062    0.0000 C   0  0  0  0  0  0  0  2  0  0  0  0
    4.2868   -0.2062    0.0000 N   0  0  0  0  0  0  0  2  0  0  0  0
  1  2  1  0        0
  2  3  1  0        0
  3  4  1  0        0
  4  5  1  0        0
  5  6  1  0        0
  6  7  1  0        0
  7  8  1  0        0
  8  9  1  0        0
  9 10  1  0        0
  1 11  1  0        0
 11 12  1  0        0
 12 13  1  0        0
M  END
$$$$

CDXL12

 13 12  0  0  0  0  0  0  0  0999 V2000
    0.0000   -0.2062    0.0000 O   0  0  0  0  0  0  0  2  0  0  0  0
   -0.7145    0.2062    0.0000 C   0  0  0  0  0  0  0  2  0  0  0  0
   -1.4289   -0.2062    0.0000 C   0  0  0  0  0  0  0  2  0  0  0  0
   -2.1434    0.2062    0.0000 O   0  0  0  0  0  0  0  2  0  0  0  0
   -2.8579   -0.2062    0.0000 C   0  0  0  0  0  0  0  2  0  0  0  0
   -3.5724    0.2062    0.0000 C   0  0  0  0  0  0  0  2  0  0  0  0
   -4.2868   -0.2062    0.0000 O   0  0  0  0  0  0  0  2  0  0  0  0
    0.7145    0.2062    0.0000 C   0  0  0  0  0  0  0  2  0  0  0  0
    1.4289   -0.2062    0.0000 C   0  0  0  0  0  0  0  2  0  0  0  0
    2.1434    0.2062    0.0000 C   0  0  0  0  0  0  0  2  0  0  0  0
    2.8579   -0.2062    0.0000 C   0  0  0  0  0  0  0  2  0  0  0  0
    3.5724    0.2062    0.0000 C   0  0  0  0  0  0  0  2  0  0  0  0
    4.2868   -0.2062    0.0000 C   0  0  0  0  0  0  0  2  0  0  0  0
  1  2  1  0        0
  2  3  1  0        0
  3  4  1  0        0
  4  5  1  0        0
  5  6  1  0        0
  6  7  1  0        0
  1  8  1  0        0
  8  9  1  0        0
  9 10  1  0        0
 10 11  1  0        0
 11 12  1  0        0
 12 13  1  0        0
M  END
$$$$

CDXL12

 13 12  0  0  0  0  0  0  0  0999 V2000
    2.1434    0.2062    0.0000 O   0  0  0  0  0  0  0  2  0  0  0  0
    1.4289   -0.2062    0.0000 C   0  0  0  0  0  0  0  2  0  0  0  0
    0.7145    0.2062    0.0000 C   0  0  0  0  0  0  0  2  0  0  0  0
    0.0000   -0.2062    0.0000 O   0  0  0  0  0  0  0  2  0  0  0  0
   -0.7145    0.2062    0.0000 C   0  0  0  0  0  0  0  2  0  0  0  0
   -1.4289   -0.2062    0.0000 C   0  0  0  0  0  0  0  2  0  0  0  0
   -2.1434    0.2062    0.0000 O   0  0  0  0  0  0  0  2  0  0  0  0
   -2.8579   -0.2062    0.0000 C   0  0  0  0  0  0  0  2  0  0  0  0
   -3.5724    0.2062    0.0000 C   0  0  0  0  0  0  0  2  0  0  0  0
   -4.2868   -0.2062    0.0000 O   0  0  0  0  0  0  0  2  0  0  0  0
    2.8579   -0.2062    0.0000 C   0  0  0  0  0  0  0  2  0  0  0  0
    3.5724    0.2062    0.0000 C   0  0  0  0  0  0  0  2  0  0  0  0
    4.2868   -0.2062    0.0000 O   0  0  0  0  0  0  0  2  0  0  0  0
  1  2  1  0        0
  2  3  1  0        0
  3  4  1  0        0
  4  5  1  0        0
  5  6  1  0        0
  6  7  1  0        0
  7  8  1  0        0
  8  9  1  0        0
  9 10  1  0        0
  1 11  1  0        0
 11 12  1  0        0
 12 13  1  0        0
M  END
$$$$

CDXL12

 19 18  0  0  0  0  0  0  0  0999 V2000
   -6.4302   -0.2062    0.0000 O   0  0  0  0  0  0  0  2  0  0  0  0
   -5.7158    0.2062    0.0000 C   0  0  0  0  0  0  0  2  0  0  0  0
   -5.0013   -0.2062    0.0000 C   0  0  0  0  0  0  0  2  0  0  0  0
   -4.2868    0.2062    0.0000 C   0  0  0  0  0  0  0  2  0  0  0  0
   -3.5724   -0.2062    0.0000 C   0  0  0  0  0  0  0  2  0  0  0  0
   -2.8579    0.2062    0.0000 C   0  0  0  0  0  0  0  2  0  0  0  0
   -2.1434   -0.2062    0.0000 C   0  0  0  0  0  0  0  2  0  0  0  0
   -1.4289    0.2062    0.0000 C   0  0  0  0  0  0  0  2  0  0  0  0
   -0.7145   -0.2062    0.0000 C   0  0  0  0  0  0  0  2  0  0  0  0
   -0.0000    0.2062    0.0000 C   0  0  0  0  0  0  0  2  0  0  0  0
    0.7145   -0.2062    0.0000 C   0  0  0  0  0  0  0  2  0  0  0  0
    1.4289    0.2062    0.0000 C   0  0  0  0  0  0  0  2  0  0  0  0
    2.1434   -0.2062    0.0000 C   0  0  0  0  0  0  0  2  0  0  0  0
    2.8579    0.2062    0.0000 C   0  0  0  0  0  0  0  2  0  0  0  0
    3.5724   -0.2062    0.0000 C   0  0  0  0  0  0  0  2  0  0  0  0
    4.2868    0.2062    0.0000 C   0  0  0  0  0  0  0  2  0  0  0  0
    5.0013   -0.2062    0.0000 C   0  0  0  0  0  0  0  2  0  0  0  0
    5.7158    0.2062    0.0000 C   0  0  0  0  0  0  0  2  0  0  0  0
    6.4302   -0.2062    0.0000 C   0  0  0  0  0  0  0  2  0  0  0  0
  1  2  1  0        0
  2  3  1  0        0
  3  4  1  0        0
  4  5  1  0        0
  5  6  1  0        0
  6  7  1  0        0
  7  8  1  0        0
  8  9  1  0        0
  9 10  1  0        0
 10 11  1  0        0
 11 12  1  0        0
 12 13  1  0        0
 13 14  1  0        0
 14 15  1  0        0
 15 16  1  0        0
 16 17  1  0        0
 17 18  1  0        0
 18 19  1  0        0
M  END
$$$$

CDXL12

 20 19  0  0  0  0  0  0  0  0999 V2000
   -6.0730    0.2062    0.0000 C   0  0  0  0  0  0  0  2  0  0  0  0
   -5.3585   -0.2062    0.0000 C   0  0  0  0  0  0  0  2  0  0  0  0
   -4.6441    0.2062    0.0000 C   0  0  0  0  0  0  0  2  0  0  0  0
   -3.9296   -0.2062    0.0000 C   0  0  0  0  0  0  0  2  0  0  0  0
   -3.2151    0.2062    0.0000 C   0  0  0  0  0  0  0  2  0  0  0  0
   -2.5006   -0.2062    0.0000 C   0  0  0  0  0  0  0  2  0  0  0  0
   -1.7862    0.2062    0.0000 C   0  0  0  0  0  0  0  2  0  0  0  0
   -1.0717   -0.2062    0.0000 C   0  0  0  0  0  0  0  2  0  0  0  0
   -0.3572    0.2062    0.0000 C   0  0  0  0  0  0  0  2  0  0  0  0
    0.3572   -0.2062    0.0000 C   0  0  0  0  0  0  0  2  0  0  0  0
    1.0717    0.2062    0.0000 C   0  0  0  0  0  0  0  2  0  0  0  0
    1.7862   -0.2062    0.0000 C   0  0  0  0  0  0  0  2  0  0  0  0
    2.5006    0.2062    0.0000 C   0  0  0  0  0  0  0  2  0  0  0  0
    3.2151   -0.2062    0.0000 C   0  0  0  0  0  0  0  2  0  0  0  0
    3.9296    0.2062    0.0000 C   0  0  0  0  0  0  0  2  0  0  0  0
    4.6441   -0.2062    0.0000 C   0  0  0  0  0  0  0  2  0  0  0  0
    5.3585    0.2062    0.0000 C   0  0  0  0  0  0  0  2  0  0  0  0
    6.0730   -0.2062    0.0000 C   0  0  0  0  0  0  0  2  0  0  0  0
    6.7875    0.2062    0.0000 C   0  0  0  0  0  0  0  2  0  0  0  0
   -6.7875   -0.2062    0.0000 C   0  0  0  0  0  0  0  2  0  0  0  0
  1  2  1  0        0
  2  3  1  0        0
  3  4  1  0        0
  4  5  1  0        0
  5  6  1  0        0
  6  7  1  0        0
  7  8  1  0        0
  8  9  1  0        0
  9 10  1  0        0
 10 11  1  0        0
 11 12  1  0        0
 12 13  1  0        0
 13 14  1  0        0
 14 15  1  0        0
 15 16  1  0        0
 16 17  1  0        0
 17 18  1  0        0
 18 19  1  0        0
  1 20  1  0        0
M  END
$$$$

CDXL12

 15 15  0  0  0  0  0  0  0  0999 V2000
   -2.1434   -1.0313    0.0000 C   0  0  0  0  0  0  0  2  0  0  0  0
   -1.4289   -1.4438    0.0000 N   0  0  0  0  0  0  0  2  0  0  0  0
   -0.7145   -1.0313    0.0000 C   0  0  0  0  0  0  0  2  0  0  0  0
   -0.7145   -0.2062    0.0000 O   0  0  0  0  0  0  0  2  0  0  0  0
    0.0000   -1.4438    0.0000 O   0  0  0  0  0  0  0  2  0  0  0  0
    0.7145   -1.0313    0.0000 C   0  0  0  0  0  0  0  2  0  0  0  0
    1.4289   -1.4438    0.0000 C   0  0  0  0  0  0  0  2  0  0  0  0
    2.1434   -1.0313    0.0000 C   0  0  0  0  0  0  0  2  0  0  0  0
    2.1434   -0.2062    0.0000 C   0  0  0  0  0  0  0  2  0  0  0  0
    1.4289    0.2062    0.0000 C   0  0  0  0  0  0  0  2  0  0  0  0
    0.7145   -0.2062    0.0000 C   0  0  0  0  0  0  0  2  0  0  0  0
    0.0000    0.2062    0.0000 O   0  0  0  0  0  0  0  2  0  0  0  0
    0.0000    1.0313    0.0000 C   0  0  0  0  0  0  0  2  0  0  0  0
    0.7145    1.4438    0.0000 C   0  0  0  0  0  0  0  2  0  0  0  0
   -0.7145    1.4438    0.0000 C   0  0  0  0  0  0  0  2  0  0  0  0
  1  2  1  0        0
  2  3  1  0        0
  3  4  2  0        0
  3  5  1  0        0
  5  6  1  0        0
  6  7  4  0        0
  7  8  4  0        0
  8  9  4  0        0
  9 10  4  0        0
 10 11  4  0        0
  6 11  4  0        0
 11 12  1  0        0
 12 13  1  0        0
 13 14  1  0        0
 13 15  1  0        0
M  END
$$$$

CDXL12

 23 26  0  0  0  0  0  0  0  0999 V2000
    3.1171   -0.0000    0.0000 O   0  0  0  0  0  0  0  2  0  0  0  0
    2.4027   -0.4125    0.0000 C   0  0  0  0  0  0  0  2  0  0  0  0
    1.7576   -0.9269    0.0000 C   0  0  0  0  0  0  0  2  0  0  0  0
    1.2246   -0.0000    0.0000 N   0  0  0  0  0  0  0  2  0  0  0  0
    0.5102    0.4125    0.0000 Br  0  0  0  0  0  0  0  2  0  0  0  0
    0.5102   -0.4125    0.0000 C   0  0  0  0  0  0  0  2  0  0  0  0
    1.7576    0.9269    0.0000 C   0  0  0  0  0  0  0  2  0  0  0  0
    2.4027    0.4125    0.0000 C   0  0  0  0  0  0  0  2  0  0  0  0
    0.9533    0.7433    0.0000 C   0  0  0  0  0  0  0  2  0  0  0  0
    0.5954   -0.0000    0.0000 C   0  0  0  0  0  0  0  2  0  0  0  0
    0.9533   -0.7433    0.0000 C   0  0  0  0  0  0  0  2  0  0  0  0
   -0.2296   -0.0000    0.0000 O   0  0  0  0  0  0  0  2  0  0  0  0
   -0.6421    0.7145    0.0000 C   0  0  0  0  0  0  0  2  0  0  0  0
   -0.2296    1.4289    0.0000 O   0  0  0  0  0  0  0  2  0  0  0  0
   -1.4671    0.7145    0.0000 C   0  0  0  0  0  0  0  2  0  0  0  0
   -1.8796   -0.0000    0.0000 C   0  0  0  0  0  0  0  2  0  0  0  0
   -1.4671   -0.7145    0.0000 C   0  0  0  0  0  0  0  2  0  0  0  0
   -1.8796   -1.4289    0.0000 C   0  0  0  0  0  0  0  2  0  0  0  0
   -2.7046   -1.4289    0.0000 C   0  0  0  0  0  0  0  2  0  0  0  0
   -3.1171   -0.7145    0.0000 C   0  0  0  0  0  0  0  2  0  0  0  0
   -2.7046   -0.0000    0.0000 C   0  0  0  0  0  0  0  2  0  0  0  0
   -1.8796    1.4289    0.0000 C   0  0  0  0  0  0  0  2  0  0  0  0
   -2.7046    1.4289    0.0000 O   0  0  0  0  0  0  0  2  0  0  0  0
  1  2  1  0        0
  2  3  1  0        0
  3  4  1  0        0
  4  5  1  0        0
  4  6  1  0        0
  4  7  1  0        0
  7  8  1  0        0
  1  8  1  0        0
  2  8  1  0        0
  7  9  1  0        0
  9 10  1  0        0
 10 11  1  0        0
  3 11  1  0        0
 10 12  1  0        0
 12 13  1  0        0
 13 14  2  0        0
 13 15  1  0        0
 15 16  1  0        0
 16 17  4  0        0
 17 18  4  0        0
 18 19  4  0        0
 19 20  4  0        0
 20 21  4  0        0
 16 21  4  0        0
 15 22  1  0        0
 22 23  1  0        0
M  END
$$$$

CDXL12

  3  2  0  0  0  0  0  0  0  0999 V2000
    0.0000    0.2062    0.0000 C   0  0  0  0  0  0  0  2  0  0  0  0
    0.7145   -0.2062    0.0000 C   0  0  0  0  0  0  0  2  0  0  0  0
   -0.7145   -0.2062    0.0000 C   0  0  0  0  0  0  0  2  0  0  0  0
  1  2  2  0        0
  1  3  1  0        0
M  END
$$$$

CDXL12

  4  3  0  0  0  0  0  0  0  0999 V2000
    0.0000   -0.2062    0.0000 C   0  0  0  0  0  0  0  2  0  0  0  0
    0.0000    0.6188    0.0000 C   0  0  0  0  0  0  0  2  0  0  0  0
    0.7145   -0.6188    0.0000 C   0  0  0  0  0  0  0  2  0  0  0  0
   -0.7145   -0.6187    0.0000 C   0  0  0  0  0  0  0  2  0  0  0  0
  1  2  2  0        0
  1  3  1  0        0
  1  4  1  0        0
M  END
$$$$

CDXL12

 13 12  0  0  0  0  0  0  0  0999 V2000
   -2.1434   -0.2063    0.0000 C   0  0  0  0  0  0  0  2  0  0  0  0
   -1.4289   -0.6188    0.0000 C   0  0  0  0  0  0  0  2  0  0  0  0
   -0.7145   -0.2062    0.0000 S   0  0  0  0  0  0  0  2  0  0  0  0
   -0.3020   -0.9207    0.0000 O   0  0  0  0  0  0  0  2  0  0  0  0
   -1.1270    0.5082    0.0000 O   0  0  0  0  0  0  0  2  0  0  0  0
   -0.0000    0.2062    0.0000 C   0  0  0  0  0  0  0  2  0  0  0  0
   -0.4125    0.9207    0.0000 C   0  0  0  0  0  0  0  2  0  0  0  0
    0.4125    0.9207    0.0000 C   0  0  0  0  0  0  0  2  0  0  0  0
    0.7145   -0.2063    0.0000 S   0  0  0  0  0  0  0  2  0  0  0  0
    0.3020   -0.9207    0.0000 O   0  0  0  0  0  0  0  2  0  0  0  0
    1.1270    0.5082    0.0000 O   0  0  0  0  0  0  0  2  0  0  0  0
    1.4289   -0.6188    0.0000 C   0  0  0  0  0  0  0  2  0  0  0  0
    2.1434   -0.2063    0.0000 C   0  0  0  0  0  0  0  2  0  0  0  0
  1  2  1  0        0
  2  3  1  0        0
  3  4  2  0        0
  3  5  2  0        0
  3  6  1  0        0
  6  7  1  0        0
  6  8  1  0        0
  6  9  1  0        0
  9 10  2  0        0
  9 11  2  0        0
  9 12  1  0        0
 12 13  1  0        0
M  END
$$$$

CDXL12

 20 21  0  0  0  0  0  0  0  0999 V2000
   -0.7145    0.4125    0.0000 O   0  0  0  0  0  0  0  2  0  0  0  0
   -0.0000    0.0000    0.0000 C   0  0  0  0  0  0  0  2  0  0  0  0
    0.7145   -0.4125    0.0000 C   0  0  0  0  0  0  0  2  0  0  0  0
    1.4289   -0.0000    0.0000 C   0  0  0  0  0  0  0  2  0  0  0  0
    2.1434   -0.4125    0.0000 C   0  0  0  0  0  0  0  2  0  0  0  0
    2.1434   -1.2375    0.0000 C   0  0  0  0  0  0  0  2  0  0  0  0
    2.8579   -1.6500    0.0000 Cl  0  0  0  0  0  0  0  2  0  0  0  0
    1.4289   -1.6500    0.0000 C   0  0  0  0  0  0  0  2  0  0  0  0
    0.7145   -1.2375    0.0000 C   0  0  0  0  0  0  0  2  0  0  0  0
   -0.7145   -0.4125    0.0000 C   0  0  0  0  0  0  0  2  0  0  0  0
   -0.7145   -1.2375    0.0000 C   0  0  0  0  0  0  0  2  0  0  0  0
   -1.4289   -1.6500    0.0000 C   0  0  0  0  0  0  0  2  0  0  0  0
   -2.1434   -1.2375    0.0000 C   0  0  0  0  0  0  0  2  0  0  0  0
   -2.8579   -1.6500    0.0000 Cl  0  0  0  0  0  0  0  2  0  0  0  0
   -2.1434   -0.4125    0.0000 C   0  0  0  0  0  0  0  2  0  0  0  0
   -1.4289    0.0000    0.0000 C   0  0  0  0  0  0  0  2  0  0  0  0
   -0.0000    0.8250    0.0000 C   0  0  0  0  0  0  0  2  0  0  0  0
   -0.7145    1.2375    0.0000 Cl  0  0  0  0  0  0  0  2  0  0  0  0
    0.7145    1.2375    0.0000 Cl  0  0  0  0  0  0  0  2  0  0  0  0
   -0.0000    1.6500    0.0000 Cl  0  0  0  0  0  0  0  2  0  0  0  0
  1  2  1  0        0
  2  3  1  0        0
  3  4  4  0        0
  4  5  4  0        0
  5  6  4  0        0
  6  7  1  0        0
  6  8  4  0        0
  8  9  4  0        0
  3  9  4  0        0
  2 10  1  0        0
 10 11  4  0        0
 11 12  4  0        0
 12 13  4  0        0
 13 14  1  0        0
 13 15  4  0        0
 15 16  4  0        0
 10 16  4  0        0
  2 17  1  0        0
 17 18  1  0        0
 17 19  1  0        0
 17 20  1  0        0
M  END
$$$$

CDXL12

 16 16  0  0  0  0  0  0  0  0999 V2000
    0.5487   -1.4289    0.0000 O   0  0  0  0  0  0  0  2  0  0  0  0
    0.9612   -0.7145    0.0000 C   0  0  0  0  0  0  0  2  0  0  0  0
    1.7862   -0.7145    0.0000 N   0  0  0  0  0  0  0  2  0  0  0  0
    2.1987    0.0000    0.0000 C   0  0  0  0  0  0  0  2  0  0  0  0
    3.0237    0.0000    0.0000 O   0  0  0  0  0  0  0  2  0  0  0  0
    1.7862    0.7145    0.0000 N   0  0  0  0  0  0  0  2  0  0  0  0
    0.9612    0.7145    0.0000 C   0  0  0  0  0  0  0  2  0  0  0  0
    0.5487    1.4289    0.0000 O   0  0  0  0  0  0  0  2  0  0  0  0
    0.5487    0.0000    0.0000 C   0  0  0  0  0  0  0  2  0  0  0  0
   -0.1658    0.4125    0.0000 C   0  0  0  0  0  0  0  2  0  0  0  0
   -0.1658    1.2375    0.0000 C   0  0  0  0  0  0  0  2  0  0  0  0
   -0.1658   -0.4125    0.0000 C   0  0  0  0  0  0  0  2  0  0  0  0
   -0.8803   -0.0000    0.0000 C   0  0  0  0  0  0  0  2  0  0  0  0
   -1.5947   -0.4125    0.0000 C   0  0  0  0  0  0  0  2  0  0  0  0
   -2.3092   -0.0000    0.0000 C   0  0  0  0  0  0  0  2  0  0  0  0
   -3.0237   -0.4125    0.0000 C   0  0  0  0  0  0  0  2  0  0  0  0
  1  2  2  0        0
  2  3  1  0        0
  3  4  1  0        0
  4  5  2  0        0
  4  6  1  0        0
  6  7  1  0        0
  7  8  2  0        0
  7  9  1  0        0
  2  9  1  0        0
  9 10  1  0        0
 10 11  1  0        0
  9 12  1  0        0
 12 13  1  0        0
 13 14  1  0        0
 14 15  1  0        0
 15 16  1  0        0
M  END
$$$$

CDXL12

  9  8  0  0  0  0  0  0  0  0999 V2000
    1.4289    0.0000    0.0000 O   0  0  0  0  0  0  0  2  0  0  0  0
    0.7145   -0.4125    0.0000 C   0  0  0  0  0  0  0  2  0  0  0  0
    0.0000   -0.0000    0.0000 C   0  0  0  0  0  0  0  2  0  0  0  0
   -0.4125   -0.7145    0.0000 C   0  0  0  0  0  0  0  2  0  0  0  0
   -1.2375   -0.7145    0.0000 O   0  0  0  0  0  0  0  2  0  0  0  0
   -0.7145    0.4125    0.0000 C   0  0  0  0  0  0  0  2  0  0  0  0
   -1.4289   -0.0000    0.0000 O   0  0  0  0  0  0  0  2  0  0  0  0
    0.4125    0.7145    0.0000 C   0  0  0  0  0  0  0  2  0  0  0  0
    1.2375    0.7145    0.0000 O   0  0  0  0  0  0  0  2  0  0  0  0
  1  2  1  0        0
  2  3  1  0        0
  3  4  1  0        0
  4  5  1  0        0
  3  6  1  0        0
  6  7  1  0        0
  3  8  1  0        0
  8  9  1  0        0
M  END
$$$$

CDXL12

 25 26  0  0  0  0  0  0  0  0999 V2000
   -1.7862   -1.4437    0.0000 O   0  0  0  0  0  0  0  2  0  0  0  0
   -1.7862   -0.6187    0.0000 P   0  0  0  0  0  0  0  2  0  0  0  0
   -2.5006   -0.2062    0.0000 O   0  0  0  0  0  0  0  2  0  0  0  0
   -3.2151   -0.6187    0.0000 C   0  0  0  0  0  0  0  2  0  0  0  0
   -3.2151   -1.4437    0.0000 C   0  0  0  0  0  0  0  2  0  0  0  0
   -3.9296   -1.8563    0.0000 C   0  0  0  0  0  0  0  2  0  0  0  0
   -4.6441   -1.4438    0.0000 C   0  0  0  0  0  0  0  2  0  0  0  0
   -4.6441   -0.6188    0.0000 C   0  0  0  0  0  0  0  2  0  0  0  0
   -3.9296   -0.2062    0.0000 C   0  0  0  0  0  0  0  2  0  0  0  0
   -1.7862    0.2062    0.0000 O   0  0  0  0  0  0  0  2  0  0  0  0
   -2.5006    0.6188    0.0000 C   0  0  0  0  0  0  0  2  0  0  0  0
   -3.2151    0.2062    0.0000 C   0  0  0  0  0  0  0  2  0  0  0  0
   -3.9296    0.6188    0.0000 C   0  0  0  0  0  0  0  2  0  0  0  0
   -3.9296    1.4438    0.0000 C   0  0  0  0  0  0  0  2  0  0  0  0
   -3.2151    1.8563    0.0000 C   0  0  0  0  0  0  0  2  0  0  0  0
   -2.5006    1.4438    0.0000 C   0  0  0  0  0  0  0  2  0  0  0  0
   -1.0717   -0.2062    0.0000 O   0  0  0  0  0  0  0  2  0  0  0  0
   -0.3572   -0.6187    0.0000 C   0  0  0  0  0  0  0  2  0  0  0  0
    0.3572   -0.2062    0.0000 C   0  0  0  0  0  0  0  2  0  0  0  0
    1.0717   -0.6187    0.0000 C   0  0  0  0  0  0  0  2  0  0  0  0
    1.7862   -0.2062    0.0000 C   0  0  0  0  0  0  0  2  0  0  0  0
    2.5006   -0.6187    0.0000 C   0  0  0  0  0  0  0  2  0  0  0  0
    3.2151   -0.2062    0.0000 C   0  0  0  0  0  0  0  2  0  0  0  0
    3.9296   -0.6187    0.0000 C   0  0  0  0  0  0  0  2  0  0  0  0
    4.6441   -0.2062    0.0000 C   0  0  0  0  0  0  0  2  0  0  0  0
  1  2  2  0        0
  2  3  1  0        0
  3  4  1  0        0
  4  5  4  0        0
  5  6  4  0        0
  6  7  4  0        0
  7  8  4  0        0
  8  9  4  0        0
  4  9  4  0        0
  2 10  1  0        0
 10 11  1  0        0
 11 12  4  0        0
 12 13  4  0        0
 13 14  4  0        0
 14 15  4  0        0
 15 16  4  0        0
 11 16  4  0        0
  2 17  1  0        0
 17 18  1  0        0
 18 19  1  0        0
 19 20  1  0        0
 20 21  1  0        0
 21 22  1  0        0
 22 23  1  0        0
 23 24  1  0        0
 24 25  1  0        0
M  END
$$$$

CDXL12

 13 12  0  0  0  0  0  0  0  0999 V2000
   -1.4289    1.0313    0.0000 S   0  0  0  0  0  0  0  2  0  0  0  0
   -1.4289    0.2062    0.0000 P   0  0  0  0  0  0  0  2  0  0  0  0
   -2.1434   -0.2062    0.0000 O   0  0  0  0  0  0  0  2  0  0  0  0
   -2.8579    0.2062    0.0000 C   0  0  0  0  0  0  0  2  0  0  0  0
   -1.4289   -0.6188    0.0000 O   0  0  0  0  0  0  0  2  0  0  0  0
   -2.1434   -1.0313    0.0000 C   0  0  0  0  0  0  0  2  0  0  0  0
   -0.7145   -0.2062    0.0000 S   0  0  0  0  0  0  0  2  0  0  0  0
   -0.0000    0.2062    0.0000 C   0  0  0  0  0  0  0  2  0  0  0  0
    0.7145   -0.2062    0.0000 C   0  0  0  0  0  0  0  2  0  0  0  0
    0.7145   -1.0312    0.0000 O   0  0  0  0  0  0  0  2  0  0  0  0
    1.4289    0.2062    0.0000 N   0  0  0  0  0  0  0  2  0  0  0  0
    2.1434   -0.2062    0.0000 C   0  0  0  0  0  0  0  2  0  0  0  0
    2.8579    0.2062    0.0000 C   0  0  0  0  0  0  0  2  0  0  0  0
  1  2  2  0        0
  2  3  1  0        0
  3  4  1  0        0
  2  5  1  0        0
  5  6  1  0        0
  2  7  1  0        0
  7  8  1  0        0
  8  9  1  0        0
  9 10  2  0        0
  9 11  1  0        0
 11 12  1  0        0
 12 13  1  0        0
M  END
$$$$

CDXL12

  6  5  0  0  0  0  0  0  0  0999 V2000
    1.0717    0.2062    0.0000 F   0  0  0  0  0  0  0  2  0  0  0  0
    0.3572   -0.2062    0.0000 C   0  0  0  0  0  0  0  2  0  0  0  0
    0.3572   -1.0313    0.0000 F   0  0  0  0  0  0  0  2  0  0  0  0
   -0.3572    0.2062    0.0000 C   0  0  0  0  0  0  0  2  0  0  0  0
   -1.0717   -0.2062    0.0000 F   0  0  0  0  0  0  0  2  0  0  0  0
   -0.3572    1.0313    0.0000 F   0  0  0  0  0  0  0  2  0  0  0  0
  1  2  1  0        0
  2  3  1  0        0
  2  4  2  0        0
  4  5  1  0        0
  4  6  1  0        0
M  END
$$$$

CDXL12

 19 20  0  0  0  0  0  0  0  0999 V2000
    2.8579    1.6500    0.0000 Cl  0  0  0  0  0  0  0  2  0  0  0  0
    2.1434    1.2375    0.0000 C   0  0  0  0  0  0  0  2  0  0  0  0
    2.1434    0.4125    0.0000 C   0  0  0  0  0  0  0  2  0  0  0  0
    1.4289   -0.0000    0.0000 C   0  0  0  0  0  0  0  2  0  0  0  0
    0.7145    0.4125    0.0000 C   0  0  0  0  0  0  0  2  0  0  0  0
    0.7145    1.2375    0.0000 C   0  0  0  0  0  0  0  2  0  0  0  0
    1.4289    1.6500    0.0000 C   0  0  0  0  0  0  0  2  0  0  0  0
   -0.0000    0.0000    0.0000 S   0  0  0  0  0  0  0  2  0  0  0  0
    0.4125   -0.7145    0.0000 O   0  0  0  0  0  0  0  2  0  0  0  0
   -0.4125    0.7145    0.0000 O   0  0  0  0  0  0  0  2  0  0  0  0
   -0.7145   -0.4125    0.0000 C   0  0  0  0  0  0  0  2  0  0  0  0
   -1.4289    0.0000    0.0000 C   0  0  0  0  0  0  0  2  0  0  0  0
   -2.1434   -0.4125    0.0000 C   0  0  0  0  0  0  0  2  0  0  0  0
   -2.8579   -0.0000    0.0000 Cl  0  0  0  0  0  0  0  2  0  0  0  0
   -2.1434   -1.2375    0.0000 C   0  0  0  0  0  0  0  2  0  0  0  0
   -2.8579   -1.6500    0.0000 Cl  0  0  0  0  0  0  0  2  0  0  0  0
   -1.4289   -1.6500    0.0000 C   0  0  0  0  0  0  0  2  0  0  0  0
   -0.7145   -1.2375    0.0000 C   0  0  0  0  0  0  0  2  0  0  0  0
   -0.0000   -1.6500    0.0000 Cl  0  0  0  0  0  0  0  2  0  0  0  0
  1  2  1  0        0
  2  3  4  0        0
  3  4  4  0        0
  4  5  4  0        0
  5  6  4  0        0
  6  7  4  0        0
  2  7  4  0        0
  5  8  1  0        0
  8  9  2  0        0
  8 10  2  0        0
  8 11  1  0        0
 11 12  4  0        0
 12 13  4  0        0
 13 14  1  0        0
 13 15  4  0        0
 15 16  1  0        0
 15 17  4  0        0
 17 18  4  0        0
 11 18  4  0        0
 18 19  1  0        0
M  END
$$$$

CDXL12

 20 21  0  0  0  0  0  0  0  0999 V2000
   -1.4133    1.8563    0.0000 O   0  0  0  0  0  0  0  2  0  0  0  0
   -1.4133    1.0313    0.0000 N   0  0  0  0  0  0  0  2  0  0  0  0
   -2.1278    0.6188    0.0000 O   0  0  0  0  0  0  0  2  0  0  0  0
   -0.6989    0.6188    0.0000 C   0  0  0  0  0  0  0  2  0  0  0  0
   -0.6989   -0.2062    0.0000 C   0  0  0  0  0  0  0  2  0  0  0  0
    0.0156   -0.6188    0.0000 C   0  0  0  0  0  0  0  2  0  0  0  0
    0.0156   -1.4438    0.0000 N   0  0  0  0  0  0  0  2  0  0  0  0
    0.7301   -1.8563    0.0000 O   0  0  0  0  0  0  0  2  0  0  0  0
   -0.6989   -1.8563    0.0000 O   0  0  0  0  0  0  0  2  0  0  0  0
    0.7301   -0.2062    0.0000 C   0  0  0  0  0  0  0  2  0  0  0  0
    0.7301    0.6187    0.0000 C   0  0  0  0  0  0  0  2  0  0  0  0
    1.5147    0.8737    0.0000 C   0  0  0  0  0  0  0  2  0  0  0  0
    1.9996    0.2062    0.0000 C   0  0  0  0  0  0  0  2  0  0  0  0
    1.5147   -0.4612    0.0000 C   0  0  0  0  0  0  0  2  0  0  0  0
    2.1278   -1.0132    0.0000 C   0  0  0  0  0  0  0  2  0  0  0  0
    1.3432   -1.2682    0.0000 C   0  0  0  0  0  0  0  2  0  0  0  0
    1.3432    1.6807    0.0000 C   0  0  0  0  0  0  0  2  0  0  0  0
    2.1278    1.4257    0.0000 C   0  0  0  0  0  0  0  2  0  0  0  0
    0.0156    1.0313    0.0000 C   0  0  0  0  0  0  0  2  0  0  0  0
   -1.4133   -0.6187    0.0000 C   0  0  0  0  0  0  0  2  0  0  0  0
  1  2  2  0        0
  2  3  2  0        0
  2  4  1  0        0
  4  5  4  0        0
  5  6  4  0        0
  6  7  1  0        0
  7  8  2  0        0
  7  9  2  0        0
  6 10  4  0        0
 10 11  4  0        0
 11 12  1  0        0
 12 13  1  0        0
 13 14  1  0        0
 10 14  1  0        0
 14 15  1  0        0
 14 16  1  0        0
 12 17  1  0        0
 12 18  1  0        0
 11 19  4  0        0
  4 19  4  0        0
  5 20  1  0        0
M  END
$$$$

CDXL12

 18 20  0  0  0  0  0  0  0  0999 V2000
    0.0000   -1.6500    0.0000 O   0  0  0  0  0  0  0  2  0  0  0  0
    0.0000   -0.8250    0.0000 C   0  0  0  0  0  0  0  2  0  0  0  0
    0.7145   -0.4125    0.0000 C   0  0  0  0  0  0  0  2  0  0  0  0
    0.7145    0.4125    0.0000 C   0  0  0  0  0  0  0  2  0  0  0  0
    1.4289    0.8250    0.0000 C   0  0  0  0  0  0  0  2  0  0  0  0
    1.4289    1.6500    0.0000 O   0  0  0  0  0  0  0  2  0  0  0  0
    2.1434    0.4125    0.0000 C   0  0  0  0  0  0  0  2  0  0  0  0
    2.1434   -0.4125    0.0000 C   0  0  0  0  0  0  0  2  0  0  0  0
    1.4289   -0.8250    0.0000 C   0  0  0  0  0  0  0  2  0  0  0  0
    0.0000    0.8250    0.0000 C   0  0  0  0  0  0  0  2  0  0  0  0
    0.0000    1.6500    0.0000 O   0  0  0  0  0  0  0  2  0  0  0  0
   -0.7145    0.4125    0.0000 C   0  0  0  0  0  0  0  2  0  0  0  0
   -1.4289    0.8250    0.0000 C   0  0  0  0  0  0  0  2  0  0  0  0
   -2.1434    0.4125    0.0000 C   0  0  0  0  0  0  0  2  0  0  0  0
   -2.1434   -0.4125    0.0000 C   0  0  0  0  0  0  0  2  0  0  0  0
   -1.4289   -0.8250    0.0000 C   0  0  0  0  0  0  0  2  0  0  0  0
   -1.4289   -1.6500    0.0000 O   0  0  0  0  0  0  0  2  0  0  0  0
   -0.7145   -0.4125    0.0000 C   0  0  0  0  0  0  0  2  0  0  0  0
  1  2  2  0        0
  2  3  1  0        0
  3  4  4  0        0
  4  5  4  0        0
  5  6  1  0        0
  5  7  4  0        0
  7  8  4  0        0
  8  9  4  0        0
  3  9  4  0        0
  4 10  1  0        0
 10 11  2  0        0
 10 12  1  0        0
 12 13  4  0        0
 13 14  4  0        0
 14 15  4  0        0
 15 16  4  0        0
 16 17  1  0        0
 16 18  4  0        0
  2 18  1  0        0
 12 18  4  0        0
M  END
$$$$

CDXL12

 24 26  0  0  0  0  0  0  0  0999 V2000
    0.0000   -1.6500    0.0000 O   0  0  0  0  0  0  0  2  0  0  0  0
    0.0000   -0.8250    0.0000 C   0  0  0  0  0  0  0  2  0  0  0  0
    0.7145   -0.4125    0.0000 C   0  0  0  0  0  0  0  2  0  0  0  0
    0.7145    0.4125    0.0000 C   0  0  0  0  0  0  0  2  0  0  0  0
    1.4289    0.8250    0.0000 C   0  0  0  0  0  0  0  2  0  0  0  0
    1.4289    1.6500    0.0000 S   0  0  0  0  0  0  0  2  0  0  0  0
    2.2539    1.6500    0.0000 O   0  0  0  0  0  0  0  2  0  0  0  0
    0.6039    1.6500    0.0000 O   0  0  0  0  0  0  0  2  0  0  0  0
    1.4289    2.4750    0.0000 O   0  0  0  0  0  0  0  2  0  0  0  0
    2.1434    0.4125    0.0000 C   0  0  0  0  0  0  0  2  0  0  0  0
    2.1434   -0.4125    0.0000 C   0  0  0  0  0  0  0  2  0  0  0  0
    1.4289   -0.8250    0.0000 C   0  0  0  0  0  0  0  2  0  0  0  0
    0.0000    0.8250    0.0000 C   0  0  0  0  0  0  0  2  0  0  0  0
    0.0000    1.6500    0.0000 O   0  0  0  0  0  0  0  2  0  0  0  0
   -0.7145    0.4125    0.0000 C   0  0  0  0  0  0  0  2  0  0  0  0
   -1.4289    0.8250    0.0000 C   0  0  0  0  0  0  0  2  0  0  0  0
   -2.1434    0.4125    0.0000 C   0  0  0  0  0  0  0  2  0  0  0  0
   -2.1434   -0.4125    0.0000 C   0  0  0  0  0  0  0  2  0  0  0  0
   -1.4289   -0.8250    0.0000 C   0  0  0  0  0  0  0  2  0  0  0  0
   -1.4289   -1.6500    0.0000 S   0  0  0  0  0  0  0  2  0  0  0  0
   -2.2539   -1.6500    0.0000 O   0  0  0  0  0  0  0  2  0  0  0  0
   -0.6039   -1.6500    0.0000 O   0  0  0  0  0  0  0  2  0  0  0  0
   -1.4289   -2.4750    0.0000 O   0  0  0  0  0  0  0  2  0  0  0  0
   -0.7145   -0.4125    0.0000 C   0  0  0  0  0  0  0  2  0  0  0  0
  1  2  2  0        0
  2  3  1  0        0
  3  4  4  0        0
  4  5  4  0        0
  5  6  1  0        0
  6  7  2  0        0
  6  8  2  0        0
  6  9  1  0        0
  5 10  4  0        0
 10 11  4  0        0
 11 12  4  0        0
  3 12  4  0        0
  4 13  1  0        0
 13 14  2  0        0
 13 15  1  0        0
 15 16  4  0        0
 16 17  4  0        0
 17 18  4  0        0
 18 19  4  0        0
 19 20  1  0        0
 20 21  2  0        0
 20 22  2  0        0
 20 23  1  0        0
 19 24  4  0        0
  2 24  1  0        0
 15 24  4  0        0
M  END
$$$$

CDXL12

 13 13  0  0  0  0  0  0  0  0999 V2000
    1.7862    0.8250    0.0000 Cl  0  0  0  0  0  0  0  2  0  0  0  0
    1.0717    0.4125    0.0000 C   0  0  0  0  0  0  0  2  0  0  0  0
    1.0717   -0.4125    0.0000 C   0  0  0  0  0  0  0  2  0  0  0  0
    0.3572   -0.8250    0.0000 C   0  0  0  0  0  0  0  2  0  0  0  0
    0.3572   -1.6500    0.0000 Cl  0  0  0  0  0  0  0  2  0  0  0  0
   -0.3572   -0.4125    0.0000 C   0  0  0  0  0  0  0  2  0  0  0  0
   -1.0717   -0.8250    0.0000 Cl  0  0  0  0  0  0  0  2  0  0  0  0
   -0.3572    0.4125    0.0000 C   0  0  0  0  0  0  0  2  0  0  0  0
   -1.0717    0.8250    0.0000 N   0  0  0  0  0  0  0  2  0  0  0  0
   -1.0717    1.6500    0.0000 O   0  0  0  0  0  0  0  2  0  0  0  0
   -1.7862    0.4125    0.0000 O   0  0  0  0  0  0  0  2  0  0  0  0
    0.3572    0.8250    0.0000 C   0  0  0  0  0  0  0  2  0  0  0  0
    0.3572    1.6500    0.0000 Cl  0  0  0  0  0  0  0  2  0  0  0  0
  1  2  1  0        0
  2  3  4  0        0
  3  4  4  0        0
  4  5  1  0        0
  4  6  4  0        0
  6  7  1  0        0
  6  8  4  0        0
  8  9  1  0        0
  9 10  2  0        0
  9 11  2  0        0
  8 12  4  0        0
  2 12  4  0        0
 12 13  1  0        0
M  END
$$$$

CDXL12

 16 17  0  0  0  0  0  0  0  0999 V2000
    1.0717   -1.6500    0.0000 O   0  0  0  0  0  0  0  2  0  0  0  0
    1.0717   -0.8250    0.0000 C   0  0  0  0  0  0  0  2  0  0  0  0
    1.7862   -0.4125    0.0000 O   0  0  0  0  0  0  0  2  0  0  0  0
    0.3572   -0.4125    0.0000 C   0  0  0  0  0  0  0  2  0  0  0  0
   -0.3572   -0.8250    0.0000 C   0  0  0  0  0  0  0  2  0  0  0  0
   -0.3572   -1.6500    0.0000 C   0  0  0  0  0  0  0  2  0  0  0  0
   -1.0717   -2.0625    0.0000 C   0  0  0  0  0  0  0  2  0  0  0  0
   -1.7862   -1.6500    0.0000 C   0  0  0  0  0  0  0  2  0  0  0  0
   -1.7862   -0.8250    0.0000 C   0  0  0  0  0  0  0  2  0  0  0  0
   -1.0717   -0.4125    0.0000 C   0  0  0  0  0  0  0  2  0  0  0  0
    0.3572    0.4125    0.0000 C   0  0  0  0  0  0  0  2  0  0  0  0
   -0.3572    0.8250    0.0000 C   0  0  0  0  0  0  0  2  0  0  0  0
   -0.3572    1.6500    0.0000 C   0  0  0  0  0  0  0  2  0  0  0  0
    0.3572    2.0625    0.0000 C   0  0  0  0  0  0  0  2  0  0  0  0
    1.0717    1.6500    0.0000 C   0  0  0  0  0  0  0  2  0  0  0  0
    1.0717    0.8250    0.0000 C   0  0  0  0  0  0  0  2  0  0  0  0
  1  2  2  0        0
  2  3  1  0        0
  2  4  1  0        0
  4  5  1  0        0
  5  6  4  0        0
  6  7  4  0        0
  7  8  4  0        0
  8  9  4  0        0
  9 10  4  0        0
  5 10  4  0        0
  4 11  1  0        0
 11 12  4  0        0
 12 13  4  0        0
 13 14  4  0        0
 14 15  4  0        0
 15 16  4  0        0
 11 16  4  0        0
M  END
$$$$

CDXL12

 22 24  0  0  0  0  0  0  0  0999 V2000
   -3.2151    0.6188    0.0000 O   0  0  0  0  0  0  0  2  0  0  0  0
   -2.5006    0.2062    0.0000 C   0  0  0  0  0  0  0  2  0  0  0  0
   -2.5006   -0.6187    0.0000 C   0  0  0  0  0  0  0  2  0  0  0  0
   -1.7862   -1.0313    0.0000 C   0  0  0  0  0  0  0  2  0  0  0  0
   -1.7862   -1.8563    0.0000 O   0  0  0  0  0  0  0  2  0  0  0  0
   -1.0717   -0.6188    0.0000 C   0  0  0  0  0  0  0  2  0  0  0  0
   -0.3572   -1.0312    0.0000 C   0  0  0  0  0  0  0  2  0  0  0  0
   -0.3572   -1.8562    0.0000 O   0  0  0  0  0  0  0  2  0  0  0  0
    0.3572   -0.6187    0.0000 C   0  0  0  0  0  0  0  2  0  0  0  0
    1.0717   -1.0312    0.0000 O   0  0  0  0  0  0  0  2  0  0  0  0
    0.3572    0.2062    0.0000 C   0  0  0  0  0  0  0  2  0  0  0  0
    1.0717    0.6188    0.0000 C   0  0  0  0  0  0  0  2  0  0  0  0
    1.7862    0.2062    0.0000 C   0  0  0  0  0  0  0  2  0  0  0  0
    2.5006    0.6188    0.0000 C   0  0  0  0  0  0  0  2  0  0  0  0
    3.2151    0.2062    0.0000 O   0  0  0  0  0  0  0  2  0  0  0  0
    2.5006    1.4438    0.0000 C   0  0  0  0  0  0  0  2  0  0  0  0
    3.2151    1.8563    0.0000 O   0  0  0  0  0  0  0  2  0  0  0  0
    1.7862    1.8563    0.0000 C   0  0  0  0  0  0  0  2  0  0  0  0
    1.0717    1.4438    0.0000 C   0  0  0  0  0  0  0  2  0  0  0  0
   -0.3572    0.6188    0.0000 O   0  0  0  0  0  0  0  2  0  0  0  0
   -1.0717    0.2062    0.0000 C   0  0  0  0  0  0  0  2  0  0  0  0
   -1.7862    0.6188    0.0000 C   0  0  0  0  0  0  0  2  0  0  0  0
  1  2  1  0        0
  2  3  4  0        0
  3  4  4  0        0
  4  5  1  0        0
  4  6  4  0        0
  6  7  1  0        0
  7  8  2  0        0
  7  9  1  0        0
  9 10  1  0        0
  9 11  2  0        0
 11 12  1  0        0
 12 13  4  0        0
 13 14  4  0        0
 14 15  1  0        0
 14 16  4  0        0
 16 17  1  0        0
 16 18  4  0        0
 18 19  4  0        0
 12 19  4  0        0
 11 20  1  0        0
 20 21  1  0        0
  6 21  4  0        0
 21 22  4  0        0
  2 22  4  0        0
M  END
$$$$

CDXL12

 17 19  0  0  0  0  0  0  0  0999 V2000
   -0.3572    1.6500    0.0000 O   0  0  0  0  0  0  0  2  0  0  0  0
   -0.3572    0.8250    0.0000 C   0  0  0  0  0  0  0  2  0  0  0  0
    0.3572    0.4125    0.0000 C   0  0  0  0  0  0  0  2  0  0  0  0
    0.3572   -0.4125    0.0000 C   0  0  0  0  0  0  0  2  0  0  0  0
   -0.3572   -0.8250    0.0000 C   0  0  0  0  0  0  0  2  0  0  0  0
   -0.3572   -1.6500    0.0000 O   0  0  0  0  0  0  0  2  0  0  0  0
   -1.0717   -0.4125    0.0000 C   0  0  0  0  0  0  0  2  0  0  0  0
   -1.7862   -0.8250    0.0000 C   0  0  0  0  0  0  0  2  0  0  0  0
   -2.5006   -0.4125    0.0000 C   0  0  0  0  0  0  0  2  0  0  0  0
   -2.5006    0.4125    0.0000 C   0  0  0  0  0  0  0  2  0  0  0  0
   -1.7862    0.8250    0.0000 C   0  0  0  0  0  0  0  2  0  0  0  0
   -1.0717    0.4125    0.0000 C   0  0  0  0  0  0  0  2  0  0  0  0
    1.0717   -0.8250    0.0000 C   0  0  0  0  0  0  0  2  0  0  0  0
    1.7862   -0.4125    0.0000 C   0  0  0  0  0  0  0  2  0  0  0  0
    1.7862    0.4125    0.0000 C   0  0  0  0  0  0  0  2  0  0  0  0
    2.5006    0.8250    0.0000 N   0  0  0  0  0  0  0  2  0  0  0  0
    1.0717    0.8250    0.0000 C   0  0  0  0  0  0  0  2  0  0  0  0
  1  2  2  0        0
  2  3  1  0        0
  3  4  4  0        0
  4  5  1  0        0
  5  6  2  0        0
  5  7  1  0        0
  7  8  4  0        0
  8  9  4  0        0
  9 10  4  0        0
 10 11  4  0        0
 11 12  4  0        0
  2 12  1  0        0
  7 12  4  0        0
  4 13  4  0        0
 13 14  4  0        0
 14 15  4  0        0
 15 16  1  0        0
 15 17  4  0        0
  3 17  4  0        0
M  END
$$$$

CDXL12

 14 15  0  0  0  0  0  0  0  0999 V2000
   -1.7862   -0.4125    0.0000 C   0  0  0  0  0  0  0  2  0  0  0  0
   -1.7862    0.4125    0.0000 C   0  0  0  0  0  0  0  2  0  0  0  0
   -1.0717    0.8250    0.0000 C   0  0  0  0  0  0  0  2  0  0  0  0
   -0.3572    0.4125    0.0000 C   0  0  0  0  0  0  0  2  0  0  0  0
    0.3572    0.8250    0.0000 C   0  0  0  0  0  0  0  2  0  0  0  0
    0.3572    1.6500    0.0000 O   0  0  0  0  0  0  0  2  0  0  0  0
    1.0717    0.4125    0.0000 C   0  0  0  0  0  0  0  2  0  0  0  0
    1.7862    0.8250    0.0000 Cl  0  0  0  0  0  0  0  2  0  0  0  0
    1.0717   -0.4125    0.0000 C   0  0  0  0  0  0  0  2  0  0  0  0
    1.7862   -0.8250    0.0000 Cl  0  0  0  0  0  0  0  2  0  0  0  0
    0.3572   -0.8250    0.0000 C   0  0  0  0  0  0  0  2  0  0  0  0
    0.3572   -1.6500    0.0000 O   0  0  0  0  0  0  0  2  0  0  0  0
   -0.3572   -0.4125    0.0000 C   0  0  0  0  0  0  0  2  0  0  0  0
   -1.0717   -0.8250    0.0000 C   0  0  0  0  0  0  0  2  0  0  0  0
  1  2  4  0        0
  2  3  4  0        0
  3  4  4  0        0
  4  5  1  0        0
  5  6  2  0        0
  5  7  1  0        0
  7  8  1  0        0
  7  9  2  0        0
  9 10  1  0        0
  9 11  1  0        0
 11 12  2  0        0
 11 13  1  0        0
  4 13  4  0        0
 13 14  4  0        0
  1 14  4  0        0
M  END
$$$$

CDXL12

 28 28  0  0  0  0  0  0  0  0999 V2000
   -1.4289   -3.5063    0.0000 O   0  0  0  0  0  0  0  2  0  0  0  0
   -1.4289   -2.6812    0.0000 C   0  0  0  0  0  0  0  2  0  0  0  0
   -0.7145   -2.2687    0.0000 O   0  0  0  0  0  0  0  2  0  0  0  0
   -0.0000   -2.6812    0.0000 C   0  0  0  0  0  0  0  2  0  0  0  0
    0.7145   -2.2688    0.0000 C   0  0  0  0  0  0  0  2  0  0  0  0
    1.4289   -2.6812    0.0000 C   0  0  0  0  0  0  0  2  0  0  0  0
    2.1434   -2.2688    0.0000 C   0  0  0  0  0  0  0  2  0  0  0  0
    2.8579   -2.6812    0.0000 C   0  0  0  0  0  0  0  2  0  0  0  0
    3.5724   -2.2688    0.0000 C   0  0  0  0  0  0  0  2  0  0  0  0
    0.7145   -1.4438    0.0000 C   0  0  0  0  0  0  0  2  0  0  0  0
    1.4289   -1.0313    0.0000 C   0  0  0  0  0  0  0  2  0  0  0  0
   -2.1434   -2.2687    0.0000 C   0  0  0  0  0  0  0  2  0  0  0  0
   -2.1434   -1.4438    0.0000 C   0  0  0  0  0  0  0  2  0  0  0  0
   -2.8579   -1.0313    0.0000 C   0  0  0  0  0  0  0  2  0  0  0  0
   -3.5724   -1.4438    0.0000 C   0  0  0  0  0  0  0  2  0  0  0  0
   -3.5724   -2.2687    0.0000 C   0  0  0  0  0  0  0  2  0  0  0  0
   -2.8579   -2.6812    0.0000 C   0  0  0  0  0  0  0  2  0  0  0  0
   -1.4289   -1.0313    0.0000 C   0  0  0  0  0  0  0  2  0  0  0  0
   -0.7145   -1.4438    0.0000 O   0  0  0  0  0  0  0  2  0  0  0  0
   -1.4289   -0.2062    0.0000 O   0  0  0  0  0  0  0  2  0  0  0  0
   -0.7145    0.2062    0.0000 C   0  0  0  0  0  0  0  2  0  0  0  0
   -0.7145    1.0313    0.0000 C   0  0  0  0  0  0  0  2  0  0  0  0
   -0.0000    1.4438    0.0000 C   0  0  0  0  0  0  0  2  0  0  0  0
   -0.0000    2.2687    0.0000 C   0  0  0  0  0  0  0  2  0  0  0  0
    0.7145    2.6812    0.0000 C   0  0  0  0  0  0  0  2  0  0  0  0
    0.7145    3.5063    0.0000 C   0  0  0  0  0  0  0  2  0  0  0  0
   -1.4289    1.4438    0.0000 C   0  0  0  0  0  0  0  2  0  0  0  0
   -2.1434    1.0312    0.0000 C   0  0  0  0  0  0  0  2  0  0  0  0
  1  2  2  0        0
  2  3  1  0        0
  3  4  1  0        0
  4  5  1  0        0
  5  6  1  0        0
  6  7  1  0        0
  7  8  1  0        0
  8  9  1  0        0
  5 10  1  0        0
 10 11  1  0        0
  2 12  1  0        0
 12 13  4  0        0
 13 14  4  0        0
 14 15  4  0        0
 15 16  4  0        0
 16 17  4  0        0
 12 17  4  0        0
 13 18  1  0        0
 18 19  2  0        0
 18 20  1  0        0
 20 21  1  0        0
 21 22  1  0        0
 22 23  1  0        0
 23 24  1  0        0
 24 25  1  0        0
 25 26  1  0        0
 22 27  1  0        0
 27 28  1  0        0
M  END
$$$$

CDXL12

 26 26  0  0  0  0  0  0  0  0999 V2000
   -1.7862   -1.6500    0.0000 O   0  0  0  0  0  0  0  2  0  0  0  0
   -1.7862   -0.8250    0.0000 C   0  0  0  0  0  0  0  2  0  0  0  0
   -1.0717   -0.4125    0.0000 O   0  0  0  0  0  0  0  2  0  0  0  0
   -0.3572   -0.8250    0.0000 C   0  0  0  0  0  0  0  2  0  0  0  0
    0.3572   -0.4125    0.0000 C   0  0  0  0  0  0  0  2  0  0  0  0
    1.0717   -0.8250    0.0000 O   0  0  0  0  0  0  0  2  0  0  0  0
    1.7862   -0.4125    0.0000 C   0  0  0  0  0  0  0  2  0  0  0  0
    2.5006   -0.8250    0.0000 C   0  0  0  0  0  0  0  2  0  0  0  0
    3.2151   -0.4125    0.0000 C   0  0  0  0  0  0  0  2  0  0  0  0
    3.9296   -0.8250    0.0000 C   0  0  0  0  0  0  0  2  0  0  0  0
   -2.5006   -0.4125    0.0000 C   0  0  0  0  0  0  0  2  0  0  0  0
   -2.5006    0.4125    0.0000 C   0  0  0  0  0  0  0  2  0  0  0  0
   -3.2151    0.8250    0.0000 C   0  0  0  0  0  0  0  2  0  0  0  0
   -3.9296    0.4125    0.0000 C   0  0  0  0  0  0  0  2  0  0  0  0
   -3.9296   -0.4125    0.0000 C   0  0  0  0  0  0  0  2  0  0  0  0
   -3.2151   -0.8250    0.0000 C   0  0  0  0  0  0  0  2  0  0  0  0
   -1.7862    0.8250    0.0000 C   0  0  0  0  0  0  0  2  0  0  0  0
   -1.7862    1.6500    0.0000 O   0  0  0  0  0  0  0  2  0  0  0  0
   -1.0717    0.4125    0.0000 O   0  0  0  0  0  0  0  2  0  0  0  0
   -0.3572    0.8250    0.0000 C   0  0  0  0  0  0  0  2  0  0  0  0
    0.3572    0.4125    0.0000 C   0  0  0  0  0  0  0  2  0  0  0  0
    1.0717    0.8250    0.0000 O   0  0  0  0  0  0  0  2  0  0  0  0
    1.7862    0.4125    0.0000 C   0  0  0  0  0  0  0  2  0  0  0  0
    2.5006    0.8250    0.0000 C   0  0  0  0  0  0  0  2  0  0  0  0
    3.2151    0.4125    0.0000 C   0  0  0  0  0  0  0  2  0  0  0  0
    3.9296    0.8250    0.0000 C   0  0  0  0  0  0  0  2  0  0  0  0
  1  2  2  0        0
  2  3  1  0        0
  3  4  1  0        0
  4  5  1  0        0
  5  6  1  0        0
  6  7  1  0        0
  7  8  1  0        0
  8  9  1  0        0
  9 10  1  0        0
  2 11  1  0        0
 11 12  4  0        0
 12 13  4  0        0
 13 14  4  0        0
 14 15  4  0        0
 15 16  4  0        0
 11 16  4  0        0
 12 17  1  0        0
 17 18  2  0        0
 17 19  1  0        0
 19 20  1  0        0
 20 21  1  0        0
 21 22  1  0        0
 22 23  1  0        0
 23 24  1  0        0
 24 25  1  0        0
 25 26  1  0        0
M  END
$$$$

CDXL12

 28 28  0  0  0  0  0  0  0  0999 V2000
   -2.1434   -1.6500    0.0000 O   0  0  0  0  0  0  0  2  0  0  0  0
   -2.1434   -0.8250    0.0000 C   0  0  0  0  0  0  0  2  0  0  0  0
   -1.4289   -0.4125    0.0000 O   0  0  0  0  0  0  0  2  0  0  0  0
   -0.7145   -0.8250    0.0000 C   0  0  0  0  0  0  0  2  0  0  0  0
   -0.0000   -0.4125    0.0000 C   0  0  0  0  0  0  0  2  0  0  0  0
    0.7145   -0.8250    0.0000 C   0  0  0  0  0  0  0  2  0  0  0  0
    1.4289   -0.4125    0.0000 C   0  0  0  0  0  0  0  2  0  0  0  0
    2.1434   -0.8250    0.0000 C   0  0  0  0  0  0  0  2  0  0  0  0
    2.8579   -0.4125    0.0000 C   0  0  0  0  0  0  0  2  0  0  0  0
    3.5724   -0.8250    0.0000 C   0  0  0  0  0  0  0  2  0  0  0  0
    4.2868   -0.4125    0.0000 C   0  0  0  0  0  0  0  2  0  0  0  0
   -2.8579   -0.4125    0.0000 C   0  0  0  0  0  0  0  2  0  0  0  0
   -2.8579    0.4125    0.0000 C   0  0  0  0  0  0  0  2  0  0  0  0
   -3.5724    0.8250    0.0000 C   0  0  0  0  0  0  0  2  0  0  0  0
   -4.2868    0.4125    0.0000 C   0  0  0  0  0  0  0  2  0  0  0  0
   -4.2868   -0.4125    0.0000 C   0  0  0  0  0  0  0  2  0  0  0  0
   -3.5724   -0.8250    0.0000 C   0  0  0  0  0  0  0  2  0  0  0  0
   -2.1434    0.8250    0.0000 C   0  0  0  0  0  0  0  2  0  0  0  0
   -2.1434    1.6500    0.0000 O   0  0  0  0  0  0  0  2  0  0  0  0
   -1.4289    0.4125    0.0000 O   0  0  0  0  0  0  0  2  0  0  0  0
   -0.7145    0.8250    0.0000 C   0  0  0  0  0  0  0  2  0  0  0  0
   -0.0000    0.4125    0.0000 C   0  0  0  0  0  0  0  2  0  0  0  0
    0.7145    0.8250    0.0000 C   0  0  0  0  0  0  0  2  0  0  0  0
    1.4289    0.4125    0.0000 C   0  0  0  0  0  0  0  2  0  0  0  0
    2.1434    0.8250    0.0000 C   0  0  0  0  0  0  0  2  0  0  0  0
    2.8579    0.4125    0.0000 C   0  0  0  0  0  0  0  2  0  0  0  0
    3.5724    0.8250    0.0000 C   0  0  0  0  0  0  0  2  0  0  0  0
    4.2868    0.4125    0.0000 C   0  0  0  0  0  0  0  2  0  0  0  0
  1  2  2  0        0
  2  3  1  0        0
  3  4  1  0        0
  4  5  1  0        0
  5  6  1  0        0
  6  7  1  0        0
  7  8  1  0        0
  8  9  1  0        0
  9 10  1  0        0
 10 11  1  0        0
  2 12  1  0        0
 12 13  4  0        0
 13 14  4  0        0
 14 15  4  0        0
 15 16  4  0        0
 16 17  4  0        0
 12 17  4  0        0
 13 18  1  0        0
 18 19  2  0        0
 18 20  1  0        0
 20 21  1  0        0
 21 22  1  0        0
 22 23  1  0        0
 23 24  1  0        0
 24 25  1  0        0
 25 26  1  0        0
 26 27  1  0        0
 27 28  1  0        0
M  END
$$$$

CDXL12

 28 31  0  0  0  0  0  0  0  0999 V2000
   -3.5724    2.6812    0.0000 C   0  0  0  0  0  0  0  2  0  0  0  0
   -2.8579    2.2687    0.0000 N   0  0  0  0  0  0  0  2  0  0  0  0
   -2.1434    2.6812    0.0000 C   0  0  0  0  0  0  0  2  0  0  0  0
   -1.4289    2.2687    0.0000 C   0  0  0  0  0  0  0  2  0  0  0  0
   -1.4289    1.4438    0.0000 N   0  0  0  0  0  0  0  2  0  0  0  0
   -0.7145    1.0313    0.0000 C   0  0  0  0  0  0  0  2  0  0  0  0
   -0.7145    0.2062    0.0000 C   0  0  0  0  0  0  0  2  0  0  0  0
    0.0000   -0.2062    0.0000 C   0  0  0  0  0  0  0  2  0  0  0  0
    0.0000   -1.0313    0.0000 N   0  0  0  0  0  0  0  2  0  0  0  0
   -0.7145   -1.4438    0.0000 C   0  0  0  0  0  0  0  2  0  0  0  0
   -1.4289   -1.0313    0.0000 C   0  0  0  0  0  0  0  2  0  0  0  0
   -2.1434   -1.4438    0.0000 C   0  0  0  0  0  0  0  2  0  0  0  0
   -2.1434   -2.2687    0.0000 C   0  0  0  0  0  0  0  2  0  0  0  0
   -1.4289   -2.6812    0.0000 C   0  0  0  0  0  0  0  2  0  0  0  0
   -0.7145   -2.2687    0.0000 C   0  0  0  0  0  0  0  2  0  0  0  0
    0.0000   -2.6812    0.0000 S   0  0  0  0  0  0  0  2  0  0  0  0
    0.7145   -2.2687    0.0000 C   0  0  0  0  0  0  0  2  0  0  0  0
    1.4289   -2.6812    0.0000 C   0  0  0  0  0  0  0  2  0  0  0  0
    2.1434   -2.2687    0.0000 C   0  0  0  0  0  0  0  2  0  0  0  0
    2.1434   -1.4438    0.0000 C   0  0  0  0  0  0  0  2  0  0  0  0
    1.4289   -1.0313    0.0000 C   0  0  0  0  0  0  0  2  0  0  0  0
    0.7145   -1.4438    0.0000 C   0  0  0  0  0  0  0  2  0  0  0  0
    2.8579   -1.0313    0.0000 C   0  0  0  0  0  0  0  2  0  0  0  0
    3.5724   -0.6188    0.0000 F   0  0  0  0  0  0  0  2  0  0  0  0
    2.8579   -0.2063    0.0000 F   0  0  0  0  0  0  0  2  0  0  0  0
    3.5724   -1.4438    0.0000 F   0  0  0  0  0  0  0  2  0  0  0  0
   -2.1434    1.0313    0.0000 C   0  0  0  0  0  0  0  2  0  0  0  0
   -2.8579    1.4438    0.0000 C   0  0  0  0  0  0  0  2  0  0  0  0
  1  2  1  0        0
  2  3  1  0        0
  3  4  1  0        0
  4  5  1  0        0
  5  6  1  0        0
  6  7  1  0        0
  7  8  1  0        0
  8  9  1  0        0
  9 10  1  0        0
 10 11  4  0        0
 11 12  4  0        0
 12 13  4  0        0
 13 14  4  0        0
 14 15  4  0        0
 10 15  4  0        0
 15 16  1  0        0
 16 17  1  0        0
 17 18  4  0        0
 18 19  4  0        0
 19 20  4  0        0
 20 21  4  0        0
 21 22  4  0        0
  9 22  1  0        0
 17 22  4  0        0
 20 23  1  0        0
 23 24  1  0        0
 23 25  1  0        0
 23 26  1  0        0
  5 27  1  0        0
 27 28  1  0        0
  2 28  1  0        0
M  END
$$$$

CDXL12

 22 25  0  0  0  0  0  0  0  0999 V2000
   -1.4289   -0.8250    0.0000 O   0  0  0  0  0  0  0  2  0  0  0  0
   -0.7145   -0.4125    0.0000 C   0  0  0  0  0  0  0  2  0  0  0  0
   -0.7145    0.4125    0.0000 C   0  0  0  0  0  0  0  2  0  0  0  0
   -1.4289    0.8250    0.0000 C   0  0  0  0  0  0  0  2  0  0  0  0
   -1.4289    1.6500    0.0000 C   0  0  0  0  0  0  0  2  0  0  0  0
   -0.7145    2.0625    0.0000 N   0  0  0  0  0  0  0  2  0  0  0  0
   -0.0000    1.6500    0.0000 C   0  0  0  0  0  0  0  2  0  0  0  0
   -0.0000    0.8250    0.0000 C   0  0  0  0  0  0  0  2  0  0  0  0
   -2.1434    2.0625    0.0000 C   0  0  0  0  0  0  0  2  0  0  0  0
   -2.8579    1.6500    0.0000 C   0  0  0  0  0  0  0  2  0  0  0  0
   -2.8579    0.8250    0.0000 C   0  0  0  0  0  0  0  2  0  0  0  0
   -2.1434    0.4125    0.0000 C   0  0  0  0  0  0  0  2  0  0  0  0
   -0.0000   -0.8250    0.0000 C   0  0  0  0  0  0  0  2  0  0  0  0
    0.7145   -0.4125    0.0000 N   0  0  0  0  0  0  0  2  0  0  0  0
    1.0565   -0.9281    0.0000 C   0  0  0  0  0  0  0  2  0  0  0  0
    1.0565   -1.5469    0.0000 C   0  0  0  0  0  0  0  2  0  0  0  0
    0.7145   -2.0625    0.0000 C   0  0  0  0  0  0  0  2  0  0  0  0
    1.4289   -1.6500    0.0000 C   0  0  0  0  0  0  0  2  0  0  0  0
    2.1434   -2.0625    0.0000 C   0  0  0  0  0  0  0  2  0  0  0  0
    2.8579   -1.6500    0.0000 C   0  0  0  0  0  0  0  2  0  0  0  0
    1.4289   -0.8250    0.0000 C   0  0  0  0  0  0  0  2  0  0  0  0
   -0.0000   -1.6500    0.0000 C   0  0  0  0  0  0  0  2  0  0  0  0
  1  2  1  0        0
  2  3  1  0        0
  3  4  4  0        0
  4  5  4  0        0
  5  6  4  0        0
  6  7  4  0        0
  7  8  4  0        0
  3  8  4  0        0
  5  9  4  0        0
  9 10  4  0        0
 10 11  4  0        0
 11 12  4  0        0
  4 12  4  0        0
  2 13  1  0        0
 13 14  1  0        0
 14 15  1  0        0
 15 16  1  0        0
 16 17  1  0        0
 17 18  1  0        0
 18 19  1  0        0
 19 20  2  0        0
 18 21  1  0        0
 14 21  1  0        0
 17 22  1  0        0
 13 22  1  0        0
M  END
$$$$

CDXL12

 19 20  0  0  0  0  0  0  0  0999 V2000
    1.3737   -2.0072    0.0000 O   0  0  0  0  0  0  0  2  0  0  0  0
    1.7862   -1.2928    0.0000 S   0  0  0  0  0  0  0  2  0  0  0  0
    2.1987   -0.5783    0.0000 O   0  0  0  0  0  0  0  2  0  0  0  0
    2.5006   -1.7053    0.0000 O   0  0  0  0  0  0  0  2  0  0  0  0
    1.0717   -0.8803    0.0000 C   0  0  0  0  0  0  0  2  0  0  0  0
    1.0717   -0.0553    0.0000 C   0  0  0  0  0  0  0  2  0  0  0  0
    0.3572    0.3572    0.0000 C   0  0  0  0  0  0  0  2  0  0  0  0
   -0.3572   -0.0553    0.0000 C   0  0  0  0  0  0  0  2  0  0  0  0
   -0.3572   -0.8803    0.0000 C   0  0  0  0  0  0  0  2  0  0  0  0
   -1.0717   -1.2928    0.0000 C   0  0  0  0  0  0  0  2  0  0  0  0
   -1.7862   -0.8803    0.0000 C   0  0  0  0  0  0  0  2  0  0  0  0
   -2.5006   -1.2928    0.0000 N   0  0  0  0  0  0  0  2  0  0  0  0
   -1.7862   -0.0553    0.0000 C   0  0  0  0  0  0  0  2  0  0  0  0
   -1.0717    0.3572    0.0000 C   0  0  0  0  0  0  0  2  0  0  0  0
    0.3572   -1.2928    0.0000 C   0  0  0  0  0  0  0  2  0  0  0  0
    0.3572    1.1822    0.0000 S   0  0  0  0  0  0  0  2  0  0  0  0
    1.1822    1.1822    0.0000 O   0  0  0  0  0  0  0  2  0  0  0  0
   -0.4678    1.1822    0.0000 O   0  0  0  0  0  0  0  2  0  0  0  0
    0.3572    2.0072    0.0000 O   0  0  0  0  0  0  0  2  0  0  0  0
  1  2  2  0        0
  2  3  2  0        0
  2  4  1  0        0
  2  5  1  0        0
  5  6  4  0        0
  6  7  4  0        0
  7  8  4  0        0
  8  9  4  0        0
  9 10  4  0        0
 10 11  4  0        0
 11 12  1  0        0
 11 13  4  0        0
 13 14  4  0        0
  8 14  4  0        0
  9 15  4  0        0
  5 15  4  0        0
  7 16  1  0        0
 16 17  2  0        0
 16 18  2  0        0
 16 19  1  0        0
M  END
$$$$

CDXL12

 13 14  0  0  0  0  0  0  0  0999 V2000
    0.7145    0.6188    0.0000 N   0  0  0  0  0  0  0  2  0  0  0  0
    0.7145   -0.2063    0.0000 C   0  0  0  0  0  0  0  2  0  0  0  0
    0.0000   -0.6188    0.0000 C   0  0  0  0  0  0  0  2  0  0  0  0
    0.0000   -1.4438    0.0000 C   0  0  0  0  0  0  0  2  0  0  0  0
   -0.7145   -1.8563    0.0000 C   0  0  0  0  0  0  0  2  0  0  0  0
   -1.4289   -1.4437    0.0000 C   0  0  0  0  0  0  0  2  0  0  0  0
   -1.4289   -0.6188    0.0000 C   0  0  0  0  0  0  0  2  0  0  0  0
   -0.7145   -0.2062    0.0000 C   0  0  0  0  0  0  0  2  0  0  0  0
    0.7145   -1.8563    0.0000 C   0  0  0  0  0  0  0  2  0  0  0  0
    1.4289   -1.4438    0.0000 C   0  0  0  0  0  0  0  2  0  0  0  0
    1.4289   -0.6188    0.0000 C   0  0  0  0  0  0  0  2  0  0  0  0
    1.4289    1.0313    0.0000 C   0  0  0  0  0  0  0  2  0  0  0  0
    1.4289    1.8563    0.0000 C   0  0  0  0  0  0  0  2  0  0  0  0
  1  2  1  0        0
  2  3  4  0        0
  3  4  4  0        0
  4  5  4  0        0
  5  6  4  0        0
  6  7  4  0        0
  7  8  4  0        0
  3  8  4  0        0
  4  9  4  0        0
  9 10  4  0        0
 10 11  4  0        0
  2 11  4  0        0
  1 12  1  0        0
 12 13  1  0        0
M  END
$$$$

CDXL12

 16 17  0  0  0  0  0  0  0  0999 V2000
   -0.3572    1.0313    0.0000 O   0  0  0  0  0  0  0  2  0  0  0  0
   -0.3572    0.2062    0.0000 C   0  0  0  0  0  0  0  2  0  0  0  0
    0.3572   -0.2063    0.0000 O   0  0  0  0  0  0  0  2  0  0  0  0
    1.0717    0.2062    0.0000 C   0  0  0  0  0  0  0  2  0  0  0  0
    1.0717    1.0313    0.0000 C   0  0  0  0  0  0  0  2  0  0  0  0
    1.7862    1.4438    0.0000 C   0  0  0  0  0  0  0  2  0  0  0  0
    2.5006    1.0313    0.0000 C   0  0  0  0  0  0  0  2  0  0  0  0
    2.5006    0.2062    0.0000 C   0  0  0  0  0  0  0  2  0  0  0  0
    1.7862   -0.2062    0.0000 C   0  0  0  0  0  0  0  2  0  0  0  0
   -1.0717   -0.2062    0.0000 C   0  0  0  0  0  0  0  2  0  0  0  0
   -1.0717   -1.0313    0.0000 C   0  0  0  0  0  0  0  2  0  0  0  0
   -0.3572   -1.4438    0.0000 O   0  0  0  0  0  0  0  2  0  0  0  0
   -1.7862   -1.4437    0.0000 C   0  0  0  0  0  0  0  2  0  0  0  0
   -2.5006   -1.0313    0.0000 C   0  0  0  0  0  0  0  2  0  0  0  0
   -2.5006   -0.2062    0.0000 C   0  0  0  0  0  0  0  2  0  0  0  0
   -1.7862    0.2062    0.0000 C   0  0  0  0  0  0  0  2  0  0  0  0
  1  2  2  0        0
  2  3  1  0        0
  3  4  1  0        0
  4  5  4  0        0
  5  6  4  0        0
  6  7  4  0        0
  7  8  4  0        0
  8  9  4  0        0
  4  9  4  0        0
  2 10  1  0        0
 10 11  4  0        0
 11 12  1  0        0
 11 13  4  0        0
 13 14  4  0        0
 14 15  4  0        0
 15 16  4  0        0
 10 16  4  0        0
M  END
$$$$

CDXL12

  9  9  0  0  0  0  0  0  0  0999 V2000
   -0.3572   -1.2375    0.0000 O   0  0  0  0  0  0  0  2  0  0  0  0
    0.3572   -0.8250    0.0000 C   0  0  0  0  0  0  0  2  0  0  0  0
    1.0717   -1.2375    0.0000 C   0  0  0  0  0  0  0  2  0  0  0  0
    0.3572    0.0000    0.0000 C   0  0  0  0  0  0  0  2  0  0  0  0
    1.0717    0.4125    0.0000 O   0  0  0  0  0  0  0  2  0  0  0  0
   -0.3572    0.4125    0.0000 C   0  0  0  0  0  0  0  2  0  0  0  0
   -0.3572    1.2375    0.0000 O   0  0  0  0  0  0  0  2  0  0  0  0
   -1.0717   -0.0000    0.0000 C   0  0  0  0  0  0  0  2  0  0  0  0
   -1.0717   -0.8250    0.0000 C   0  0  0  0  0  0  0  2  0  0  0  0
  1  2  1  0        0
  2  3  1  0        0
  2  4  2  0        0
  4  5  1  0        0
  4  6  1  0        0
  6  7  2  0        0
  6  8  1  0        0
  8  9  2  0        0
  1  9  1  0        0
M  END
$$$$

CDXL12

 12 12  0  0  0  0  0  0  0  0999 V2000
    0.7145   -0.4125    0.0000 C   0  0  0  0  0  0  0  2  0  0  0  0
    0.0000   -0.8250    0.0000 C   0  0  0  0  0  0  0  2  0  0  0  0
   -0.7145   -0.4125    0.0000 C   0  0  0  0  0  0  0  2  0  0  0  0
   -0.7145    0.4125    0.0000 C   0  0  0  0  0  0  0  2  0  0  0  0
    0.0000    0.8250    0.0000 C   0  0  0  0  0  0  0  2  0  0  0  0
    0.0000    1.6500    0.0000 Cl  0  0  0  0  0  0  0  2  0  0  0  0
    0.7145    0.4125    0.0000 C   0  0  0  0  0  0  0  2  0  0  0  0
    1.4289    0.8250    0.0000 Cl  0  0  0  0  0  0  0  2  0  0  0  0
   -1.4289    0.8250    0.0000 Cl  0  0  0  0  0  0  0  2  0  0  0  0
   -1.4289   -0.8250    0.0000 Cl  0  0  0  0  0  0  0  2  0  0  0  0
    0.0000   -1.6500    0.0000 Cl  0  0  0  0  0  0  0  2  0  0  0  0
    1.4289   -0.8250    0.0000 Cl  0  0  0  0  0  0  0  2  0  0  0  0
  1  2  4  0        0
  2  3  4  0        0
  3  4  4  0        0
  4  5  4  0        0
  5  6  1  0        0
  5  7  4  0        0
  1  7  4  0        0
  7  8  1  0        0
  4  9  1  0        0
  3 10  1  0        0
  2 11  1  0        0
  1 12  1  0        0
M  END
$$$$

CDXL12

 12 12  0  0  0  0  0  0  0  0999 V2000
    0.0000    1.6500    0.0000 O   0  0  0  0  0  0  0  2  0  0  0  0
    0.0000    0.8250    0.0000 C   0  0  0  0  0  0  0  2  0  0  0  0
    0.7145    0.4125    0.0000 C   0  0  0  0  0  0  0  2  0  0  0  0
    1.4289    0.8250    0.0000 Cl  0  0  0  0  0  0  0  2  0  0  0  0
    0.7145   -0.4125    0.0000 C   0  0  0  0  0  0  0  2  0  0  0  0
    1.4289   -0.8250    0.0000 Cl  0  0  0  0  0  0  0  2  0  0  0  0
    0.0000   -0.8250    0.0000 C   0  0  0  0  0  0  0  2  0  0  0  0
    0.0000   -1.6500    0.0000 O   0  0  0  0  0  0  0  2  0  0  0  0
   -0.7145   -0.4125    0.0000 C   0  0  0  0  0  0  0  2  0  0  0  0
   -1.4289   -0.8250    0.0000 Cl  0  0  0  0  0  0  0  2  0  0  0  0
   -0.7145    0.4125    0.0000 C   0  0  0  0  0  0  0  2  0  0  0  0
   -1.4289    0.8250    0.0000 Cl  0  0  0  0  0  0  0  2  0  0  0  0
  1  2  2  0        0
  2  3  1  0        0
  3  4  1  0        0
  3  5  2  0        0
  5  6  1  0        0
  5  7  1  0        0
  7  8  2  0        0
  7  9  1  0        0
  9 10  1  0        0
  9 11  2  0        0
  2 11  1  0        0
 11 12  1  0        0
M  END
$$$$

CDXL12

 10 10  0  0  0  0  0  0  0  0999 V2000
    1.4289    0.4125    0.0000 O   0  0  0  0  0  0  0  2  0  0  0  0
    0.7145    0.0000    0.0000 C   0  0  0  0  0  0  0  2  0  0  0  0
    0.7145   -0.8250    0.0000 C   0  0  0  0  0  0  0  2  0  0  0  0
    0.0000   -1.2375    0.0000 C   0  0  0  0  0  0  0  2  0  0  0  0
   -0.7145   -0.8250    0.0000 C   0  0  0  0  0  0  0  2  0  0  0  0
   -0.7145    0.0000    0.0000 C   0  0  0  0  0  0  0  2  0  0  0  0
    0.0000    0.4125    0.0000 C   0  0  0  0  0  0  0  2  0  0  0  0
    0.0000    1.2375    0.0000 Br  0  0  0  0  0  0  0  2  0  0  0  0
   -1.4289   -1.2375    0.0000 Br  0  0  0  0  0  0  0  2  0  0  0  0
    1.4289   -1.2375    0.0000 Br  0  0  0  0  0  0  0  2  0  0  0  0
  1  2  1  0        0
  2  3  4  0        0
  3  4  4  0        0
  4  5  4  0        0
  5  6  4  0        0
  6  7  4  0        0
  2  7  4  0        0
  7  8  1  0        0
  5  9  1  0        0
  3 10  1  0        0
M  END
$$$$

CDXL12

 14 14  0  0  0  0  0  0  0  0999 V2000
    1.0717   -0.8250    0.0000 C   0  0  0  0  0  0  0  2  0  0  0  0
    1.0717   -1.6500    0.0000 F   0  0  0  0  0  0  0  2  0  0  0  0
    1.7862   -1.2375    0.0000 F   0  0  0  0  0  0  0  2  0  0  0  0
    1.7862   -0.4125    0.0000 F   0  0  0  0  0  0  0  2  0  0  0  0
    0.3572   -0.4125    0.0000 C   0  0  0  0  0  0  0  2  0  0  0  0
   -0.3572   -0.8250    0.0000 C   0  0  0  0  0  0  0  2  0  0  0  0
   -1.0717   -0.4125    0.0000 C   0  0  0  0  0  0  0  2  0  0  0  0
   -1.7862   -0.8250    0.0000 Cl  0  0  0  0  0  0  0  2  0  0  0  0
   -1.0717    0.4125    0.0000 C   0  0  0  0  0  0  0  2  0  0  0  0
   -0.3572    0.8250    0.0000 C   0  0  0  0  0  0  0  2  0  0  0  0
    0.3572    0.4125    0.0000 C   0  0  0  0  0  0  0  2  0  0  0  0
    1.0717    0.8250    0.0000 N   0  0  0  0  0  0  0  2  0  0  0  0
    1.0717    1.6500    0.0000 O   0  0  0  0  0  0  0  2  0  0  0  0
    1.7862    0.4125    0.0000 O   0  0  0  0  0  0  0  2  0  0  0  0
  1  2  1  0        0
  1  3  1  0        0
  1  4  1  0        0
  1  5  1  0        0
  5  6  4  0        0
  6  7  4  0        0
  7  8  1  0        0
  7  9  4  0        0
  9 10  4  0        0
 10 11  4  0        0
  5 11  4  0        0
 11 12  1  0        0
 12 13  2  0        0
 12 14  2  0        0
M  END
$$$$

CDXL12

 10 10  0  0  0  0  0  0  0  0999 V2000
    0.7145    1.2375    0.0000 O   0  0  0  0  0  0  0  2  0  0  0  0
    0.7145    0.4125    0.0000 C   0  0  0  0  0  0  0  2  0  0  0  0
    1.4289   -0.0000    0.0000 O   0  0  0  0  0  0  0  2  0  0  0  0
    0.0000   -0.0000    0.0000 C   0  0  0  0  0  0  0  2  0  0  0  0
    0.0000   -0.8250    0.0000 C   0  0  0  0  0  0  0  2  0  0  0  0
   -0.7145   -1.2375    0.0000 C   0  0  0  0  0  0  0  2  0  0  0  0
   -1.4289   -0.8250    0.0000 C   0  0  0  0  0  0  0  2  0  0  0  0
   -1.4289    0.0000    0.0000 C   0  0  0  0  0  0  0  2  0  0  0  0
   -0.7145    0.4125    0.0000 C   0  0  0  0  0  0  0  2  0  0  0  0
    0.7145   -1.2375    0.0000 C   0  0  0  0  0  0  0  2  0  0  0  0
  1  2  2  0        0
  2  3  1  0        0
  2  4  1  0        0
  4  5  4  0        0
  5  6  4  0        0
  6  7  4  0        0
  7  8  4  0        0
  8  9  4  0        0
  4  9  4  0        0
  5 10  1  0        0
M  END
$$$$

CDXL12

 10 10  0  0  0  0  0  0  0  0999 V2000
    0.7145    1.2375    0.0000 O   0  0  0  0  0  0  0  2  0  0  0  0
    0.7145    0.4125    0.0000 C   0  0  0  0  0  0  0  2  0  0  0  0
    1.4289   -0.0000    0.0000 O   0  0  0  0  0  0  0  2  0  0  0  0
    0.0000   -0.0000    0.0000 C   0  0  0  0  0  0  0  2  0  0  0  0
    0.0000   -0.8250    0.0000 C   0  0  0  0  0  0  0  2  0  0  0  0
   -0.7145   -1.2375    0.0000 C   0  0  0  0  0  0  0  2  0  0  0  0
   -1.4289   -0.8250    0.0000 C   0  0  0  0  0  0  0  2  0  0  0  0
   -1.4289    0.0000    0.0000 C   0  0  0  0  0  0  0  2  0  0  0  0
   -0.7145    0.4125    0.0000 C   0  0  0  0  0  0  0  2  0  0  0  0
    0.7145   -1.2375    0.0000 Cl  0  0  0  0  0  0  0  2  0  0  0  0
  1  2  2  0        0
  2  3  1  0        0
  2  4  1  0        0
  4  5  4  0        0
  5  6  4  0        0
  6  7  4  0        0
  7  8  4  0        0
  8  9  4  0        0
  4  9  4  0        0
  5 10  1  0        0
M  END
$$$$

CDXL12

 10 10  0  0  0  0  0  0  0  0999 V2000
    0.7145    1.2375    0.0000 O   0  0  0  0  0  0  0  2  0  0  0  0
    0.7145    0.4125    0.0000 C   0  0  0  0  0  0  0  2  0  0  0  0
    1.4289   -0.0000    0.0000 O   0  0  0  0  0  0  0  2  0  0  0  0
    0.0000   -0.0000    0.0000 C   0  0  0  0  0  0  0  2  0  0  0  0
    0.0000   -0.8250    0.0000 C   0  0  0  0  0  0  0  2  0  0  0  0
    0.7145   -1.2375    0.0000 N   0  0  0  0  0  0  0  2  0  0  0  0
   -0.7145   -1.2375    0.0000 C   0  0  0  0  0  0  0  2  0  0  0  0
   -1.4289   -0.8250    0.0000 C   0  0  0  0  0  0  0  2  0  0  0  0
   -1.4289    0.0000    0.0000 C   0  0  0  0  0  0  0  2  0  0  0  0
   -0.7145    0.4125    0.0000 C   0  0  0  0  0  0  0  2  0  0  0  0
  1  2  2  0        0
  2  3  1  0        0
  2  4  1  0        0
  4  5  4  0        0
  5  6  1  0        0
  5  7  4  0        0
  7  8  4  0        0
  8  9  4  0        0
  9 10  4  0        0
  4 10  4  0        0
M  END
$$$$

CDXL12

 16 16  0  0  0  0  0  0  0  0999 V2000
   -1.4289    1.8562    0.0000 O   0  0  0  0  0  0  0  2  0  0  0  0
   -1.4289    1.0312    0.0000 N   0  0  0  0  0  0  0  2  0  0  0  0
   -2.1434    0.6187    0.0000 O   0  0  0  0  0  0  0  2  0  0  0  0
   -0.7145    0.6187    0.0000 C   0  0  0  0  0  0  0  2  0  0  0  0
   -0.7145   -0.2063    0.0000 C   0  0  0  0  0  0  0  2  0  0  0  0
    0.0000   -0.6188    0.0000 C   0  0  0  0  0  0  0  2  0  0  0  0
    0.0000   -1.4437    0.0000 N   0  0  0  0  0  0  0  2  0  0  0  0
   -0.7145   -1.8562    0.0000 O   0  0  0  0  0  0  0  2  0  0  0  0
    0.7145   -1.8562    0.0000 O   0  0  0  0  0  0  0  2  0  0  0  0
    0.7145   -0.2063    0.0000 C   0  0  0  0  0  0  0  2  0  0  0  0
    0.7145    0.6187    0.0000 C   0  0  0  0  0  0  0  2  0  0  0  0
    1.4289    1.0312    0.0000 N   0  0  0  0  0  0  0  2  0  0  0  0
    1.4289    1.8562    0.0000 O   0  0  0  0  0  0  0  2  0  0  0  0
    2.1434    0.6187    0.0000 O   0  0  0  0  0  0  0  2  0  0  0  0
    0.0000    1.0312    0.0000 C   0  0  0  0  0  0  0  2  0  0  0  0
    1.4289   -0.6188    0.0000 C   0  0  0  0  0  0  0  2  0  0  0  0
  1  2  2  0        0
  2  3  2  0        0
  2  4  1  0        0
  4  5  4  0        0
  5  6  4  0        0
  6  7  1  0        0
  7  8  2  0        0
  7  9  2  0        0
  6 10  4  0        0
 10 11  4  0        0
 11 12  1  0        0
 12 13  2  0        0
 12 14  2  0        0
 11 15  4  0        0
  4 15  4  0        0
 10 16  1  0        0
M  END
$$$$

CDXL12

 20 21  0  0  0  0  0  0  0  0999 V2000
   -1.4289    2.8875    0.0000 O   0  0  0  0  0  0  0  2  0  0  0  0
   -1.4289    2.0625    0.0000 N   0  0  0  0  0  0  0  2  0  0  0  0
   -2.1434    1.6500    0.0000 O   0  0  0  0  0  0  0  2  0  0  0  0
   -0.7145    1.6500    0.0000 C   0  0  0  0  0  0  0  2  0  0  0  0
   -0.7145    0.8250    0.0000 C   0  0  0  0  0  0  0  2  0  0  0  0
    0.0000    0.4125    0.0000 C   0  0  0  0  0  0  0  2  0  0  0  0
    0.7145    0.8250    0.0000 C   0  0  0  0  0  0  0  2  0  0  0  0
    1.4289    0.4125    0.0000 N   0  0  0  0  0  0  0  2  0  0  0  0
    1.4289   -0.4125    0.0000 C   0  0  0  0  0  0  0  2  0  0  0  0
    0.7145   -0.8250    0.0000 C   0  0  0  0  0  0  0  2  0  0  0  0
    0.7145   -1.6500    0.0000 C   0  0  0  0  0  0  0  2  0  0  0  0
    1.4289   -2.0625    0.0000 C   0  0  0  0  0  0  0  2  0  0  0  0
    1.4289   -2.8875    0.0000 O   0  0  0  0  0  0  0  2  0  0  0  0
    2.1434   -1.6500    0.0000 C   0  0  0  0  0  0  0  2  0  0  0  0
    2.1434   -0.8250    0.0000 C   0  0  0  0  0  0  0  2  0  0  0  0
    0.7145    1.6500    0.0000 C   0  0  0  0  0  0  0  2  0  0  0  0
    1.4289    2.0625    0.0000 N   0  0  0  0  0  0  0  2  0  0  0  0
    1.4289    2.8875    0.0000 O   0  0  0  0  0  0  0  2  0  0  0  0
    2.1434    1.6500    0.0000 O   0  0  0  0  0  0  0  2  0  0  0  0
    0.0000    2.0625    0.0000 C   0  0  0  0  0  0  0  2  0  0  0  0
  1  2  2  0        0
  2  3  2  0        0
  2  4  1  0        0
  4  5  4  0        0
  5  6  4  0        0
  6  7  4  0        0
  7  8  1  0        0
  8  9  1  0        0
  9 10  4  0        0
 10 11  4  0        0
 11 12  4  0        0
 12 13  1  0        0
 12 14  4  0        0
 14 15  4  0        0
  9 15  4  0        0
  7 16  4  0        0
 16 17  1  0        0
 17 18  2  0        0
 17 19  2  0        0
 16 20  4  0        0
  4 20  4  0        0
M  END
$$$$

CDXL12

 14 14  0  0  0  0  0  0  0  0999 V2000
   -1.4289    1.2375    0.0000 O   0  0  0  0  0  0  0  2  0  0  0  0
   -1.4289    0.4125    0.0000 N   0  0  0  0  0  0  0  2  0  0  0  0
   -2.1434   -0.0000    0.0000 O   0  0  0  0  0  0  0  2  0  0  0  0
   -0.7145   -0.0000    0.0000 C   0  0  0  0  0  0  0  2  0  0  0  0
   -0.7145   -0.8250    0.0000 C   0  0  0  0  0  0  0  2  0  0  0  0
    0.0000   -1.2375    0.0000 C   0  0  0  0  0  0  0  2  0  0  0  0
    0.7145   -0.8250    0.0000 C   0  0  0  0  0  0  0  2  0  0  0  0
    1.4289   -1.2375    0.0000 O   0  0  0  0  0  0  0  2  0  0  0  0
    2.1434   -0.8250    0.0000 C   0  0  0  0  0  0  0  2  0  0  0  0
    0.7145   -0.0000    0.0000 C   0  0  0  0  0  0  0  2  0  0  0  0
    1.4289    0.4125    0.0000 N   0  0  0  0  0  0  0  2  0  0  0  0
    1.4289    1.2375    0.0000 O   0  0  0  0  0  0  0  2  0  0  0  0
    2.1434   -0.0000    0.0000 O   0  0  0  0  0  0  0  2  0  0  0  0
    0.0000    0.4125    0.0000 C   0  0  0  0  0  0  0  2  0  0  0  0
  1  2  2  0        0
  2  3  2  0        0
  2  4  1  0        0
  4  5  4  0        0
  5  6  4  0        0
  6  7  4  0        0
  7  8  1  0        0
  8  9  1  0        0
  7 10  4  0        0
 10 11  1  0        0
 11 12  2  0        0
 11 13  2  0        0
 10 14  4  0        0
  4 14  4  0        0
M  END
$$$$

CDXL12

 11 11  0  0  0  0  0  0  0  0999 V2000
   -1.0717    1.2375    0.0000 O   0  0  0  0  0  0  0  2  0  0  0  0
   -1.0717    0.4125    0.0000 N   0  0  0  0  0  0  0  2  0  0  0  0
   -1.7862   -0.0000    0.0000 O   0  0  0  0  0  0  0  2  0  0  0  0
   -0.3572   -0.0000    0.0000 C   0  0  0  0  0  0  0  2  0  0  0  0
   -0.3572   -0.8250    0.0000 C   0  0  0  0  0  0  0  2  0  0  0  0
   -1.0717   -1.2375    0.0000 O   0  0  0  0  0  0  0  2  0  0  0  0
    0.3572   -1.2375    0.0000 C   0  0  0  0  0  0  0  2  0  0  0  0
    1.0717   -0.8250    0.0000 C   0  0  0  0  0  0  0  2  0  0  0  0
    1.0717    0.0000    0.0000 C   0  0  0  0  0  0  0  2  0  0  0  0
    1.7862    0.4125    0.0000 C   0  0  0  0  0  0  0  2  0  0  0  0
    0.3572    0.4125    0.0000 C   0  0  0  0  0  0  0  2  0  0  0  0
  1  2  2  0        0
  2  3  2  0        0
  2  4  1  0        0
  4  5  4  0        0
  5  6  1  0        0
  5  7  4  0        0
  7  8  4  0        0
  8  9  4  0        0
  9 10  1  0        0
  9 11  4  0        0
  4 11  4  0        0
M  END
$$$$

CDXL12

 11 11  0  0  0  0  0  0  0  0999 V2000
    0.3572    1.2375    0.0000 O   0  0  0  0  0  0  0  2  0  0  0  0
    0.3572    0.4125    0.0000 C   0  0  0  0  0  0  0  2  0  0  0  0
    1.0717   -0.0000    0.0000 O   0  0  0  0  0  0  0  2  0  0  0  0
    1.7862    0.4125    0.0000 C   0  0  0  0  0  0  0  2  0  0  0  0
   -0.3572   -0.0000    0.0000 C   0  0  0  0  0  0  0  2  0  0  0  0
   -0.3572   -0.8250    0.0000 C   0  0  0  0  0  0  0  2  0  0  0  0
    0.3572   -1.2375    0.0000 O   0  0  0  0  0  0  0  2  0  0  0  0
   -1.0717   -1.2375    0.0000 C   0  0  0  0  0  0  0  2  0  0  0  0
   -1.7862   -0.8250    0.0000 C   0  0  0  0  0  0  0  2  0  0  0  0
   -1.7862    0.0000    0.0000 C   0  0  0  0  0  0  0  2  0  0  0  0
   -1.0717    0.4125    0.0000 C   0  0  0  0  0  0  0  2  0  0  0  0
  1  2  2  0        0
  2  3  1  0        0
  3  4  1  0        0
  2  5  1  0        0
  5  6  4  0        0
  6  7  1  0        0
  6  8  4  0        0
  8  9  4  0        0
  9 10  4  0        0
 10 11  4  0        0
  5 11  4  0        0
M  END
$$$$

CDXL12

 15 15  0  0  0  0  0  0  0  0999 V2000
    2.2839   -1.4230    0.0000 C   0  0  0  0  0  0  0  2  0  0  0  0
    1.4992   -1.1681    0.0000 C   0  0  0  0  0  0  0  2  0  0  0  0
    0.8861   -1.7201    0.0000 C   0  0  0  0  0  0  0  2  0  0  0  0
    1.3277   -0.3611    0.0000 N   0  0  0  0  0  0  0  2  0  0  0  0
    1.8797    0.2520    0.0000 N   0  0  0  0  0  0  0  2  0  0  0  0
    1.4672    0.9664    0.0000 C   0  0  0  0  0  0  0  2  0  0  0  0
    1.8028    1.7201    0.0000 C   0  0  0  0  0  0  0  2  0  0  0  0
    0.6603    0.7949    0.0000 C   0  0  0  0  0  0  0  2  0  0  0  0
    0.5740   -0.0256    0.0000 C   0  0  0  0  0  0  0  2  0  0  0  0
   -0.1404   -0.4381    0.0000 O   0  0  0  0  0  0  0  2  0  0  0  0
   -0.8549   -0.0256    0.0000 C   0  0  0  0  0  0  0  2  0  0  0  0
   -0.8549    0.7994    0.0000 O   0  0  0  0  0  0  0  2  0  0  0  0
   -1.5694   -0.4381    0.0000 N   0  0  0  0  0  0  0  2  0  0  0  0
   -1.5694   -1.2631    0.0000 C   0  0  0  0  0  0  0  2  0  0  0  0
   -2.2839   -0.0256    0.0000 C   0  0  0  0  0  0  0  2  0  0  0  0
  1  2  1  0        0
  2  3  1  0        0
  2  4  1  0        0
  4  5  4  0        0
  5  6  4  0        0
  6  7  1  0        0
  6  8  4  0        0
  8  9  4  0        0
  4  9  4  0        0
  9 10  1  0        0
 10 11  1  0        0
 11 12  2  0        0
 11 13  1  0        0
 13 14  1  0        0
 13 15  1  0        0
M  END
$$$$

CDXL12

 25 26  0  0  0  0  0  0  0  0999 V2000
   -1.4289    1.6500    0.0000 O   0  0  0  0  0  0  0  2  0  0  0  0
   -1.4289    0.8250    0.0000 C   0  0  0  0  0  0  0  2  0  0  0  0
   -0.7145    0.4125    0.0000 C   0  0  0  0  0  0  0  2  0  0  0  0
   -0.7145   -0.4125    0.0000 C   0  0  0  0  0  0  0  2  0  0  0  0
   -1.4289   -0.8250    0.0000 C   0  0  0  0  0  0  0  2  0  0  0  0
   -2.1434   -0.4125    0.0000 C   0  0  0  0  0  0  0  2  0  0  0  0
   -2.1434    0.4125    0.0000 C   0  0  0  0  0  0  0  2  0  0  0  0
   -2.8579    0.8250    0.0000 C   0  0  0  0  0  0  0  2  0  0  0  0
   -3.5724    1.2375    0.0000 C   0  0  0  0  0  0  0  2  0  0  0  0
   -2.8579    1.6500    0.0000 C   0  0  0  0  0  0  0  2  0  0  0  0
   -3.5724    0.4125    0.0000 C   0  0  0  0  0  0  0  2  0  0  0  0
   -1.4289   -1.6500    0.0000 C   0  0  0  0  0  0  0  2  0  0  0  0
   -0.0000    0.8250    0.0000 C   0  0  0  0  0  0  0  2  0  0  0  0
    0.7145    0.4125    0.0000 C   0  0  0  0  0  0  0  2  0  0  0  0
    1.4289    0.8250    0.0000 C   0  0  0  0  0  0  0  2  0  0  0  0
    1.4289    1.6500    0.0000 O   0  0  0  0  0  0  0  2  0  0  0  0
    2.1434    0.4125    0.0000 C   0  0  0  0  0  0  0  2  0  0  0  0
    2.1434   -0.4125    0.0000 C   0  0  0  0  0  0  0  2  0  0  0  0
    1.4289   -0.8250    0.0000 C   0  0  0  0  0  0  0  2  0  0  0  0
    1.4289   -1.6500    0.0000 C   0  0  0  0  0  0  0  2  0  0  0  0
    0.7145   -0.4125    0.0000 C   0  0  0  0  0  0  0  2  0  0  0  0
    2.8579    0.8250    0.0000 C   0  0  0  0  0  0  0  2  0  0  0  0
    2.8579    1.6500    0.0000 C   0  0  0  0  0  0  0  2  0  0  0  0
    3.5724    1.2375    0.0000 C   0  0  0  0  0  0  0  2  0  0  0  0
    3.5724    0.4125    0.0000 C   0  0  0  0  0  0  0  2  0  0  0  0
  1  2  1  0        0
  2  3  4  0        0
  3  4  4  0        0
  4  5  4  0        0
  5  6  4  0        0
  6  7  4  0        0
  2  7  4  0        0
  7  8  1  0        0
  8  9  1  0        0
  8 10  1  0        0
  8 11  1  0        0
  5 12  1  0        0
  3 13  1  0        0
 13 14  1  0        0
 14 15  4  0        0
 15 16  1  0        0
 15 17  4  0        0
 17 18  4  0        0
 18 19  4  0        0
 19 20  1  0        0
 19 21  4  0        0
 14 21  4  0        0
 17 22  1  0        0
 22 23  1  0        0
 22 24  1  0        0
 22 25  1  0        0
M  END
$$$$

CDXL12

 16 17  0  0  0  0  0  0  0  0999 V2000
   -0.3572    1.0312    0.0000 O   0  0  0  0  0  0  0  2  0  0  0  0
   -0.3572    0.2062    0.0000 C   0  0  0  0  0  0  0  2  0  0  0  0
   -1.0717   -0.2063    0.0000 C   0  0  0  0  0  0  0  2  0  0  0  0
   -1.0717   -1.0313    0.0000 C   0  0  0  0  0  0  0  2  0  0  0  0
   -1.7862   -1.4437    0.0000 C   0  0  0  0  0  0  0  2  0  0  0  0
   -2.5006   -1.0313    0.0000 C   0  0  0  0  0  0  0  2  0  0  0  0
   -2.5006   -0.2063    0.0000 C   0  0  0  0  0  0  0  2  0  0  0  0
   -1.7862    0.2062    0.0000 C   0  0  0  0  0  0  0  2  0  0  0  0
    0.3572   -0.2063    0.0000 C   0  0  0  0  0  0  0  2  0  0  0  0
    0.3572   -1.0313    0.0000 O   0  0  0  0  0  0  0  2  0  0  0  0
    1.0717    0.2062    0.0000 C   0  0  0  0  0  0  0  2  0  0  0  0
    1.0717    1.0312    0.0000 C   0  0  0  0  0  0  0  2  0  0  0  0
    1.7862    1.4437    0.0000 C   0  0  0  0  0  0  0  2  0  0  0  0
    2.5006    1.0312    0.0000 C   0  0  0  0  0  0  0  2  0  0  0  0
    2.5006    0.2062    0.0000 C   0  0  0  0  0  0  0  2  0  0  0  0
    1.7862   -0.2063    0.0000 C   0  0  0  0  0  0  0  2  0  0  0  0
  1  2  2  0        0
  2  3  1  0        0
  3  4  4  0        0
  4  5  4  0        0
  5  6  4  0        0
  6  7  4  0        0
  7  8  4  0        0
  3  8  4  0        0
  2  9  1  0        0
  9 10  1  0        0
  9 11  1  0        0
 11 12  4  0        0
 12 13  4  0        0
 13 14  4  0        0
 14 15  4  0        0
 15 16  4  0        0
 11 16  4  0        0
M  END
$$$$

CDXL12

 15 16  0  0  0  0  0  0  0  0999 V2000
    0.3572    1.2375    0.0000 O   0  0  0  0  0  0  0  2  0  0  0  0
    0.3572    0.4125    0.0000 C   0  0  0  0  0  0  0  2  0  0  0  0
    1.0717   -0.0000    0.0000 C   0  0  0  0  0  0  0  2  0  0  0  0
    1.7862    0.4125    0.0000 C   0  0  0  0  0  0  0  2  0  0  0  0
    2.5006    0.0000    0.0000 C   0  0  0  0  0  0  0  2  0  0  0  0
    2.5006   -0.8250    0.0000 C   0  0  0  0  0  0  0  2  0  0  0  0
    1.7862   -1.2375    0.0000 C   0  0  0  0  0  0  0  2  0  0  0  0
    1.0717   -0.8250    0.0000 C   0  0  0  0  0  0  0  2  0  0  0  0
   -0.3572    0.0000    0.0000 C   0  0  0  0  0  0  0  2  0  0  0  0
   -0.3572   -0.8250    0.0000 C   0  0  0  0  0  0  0  2  0  0  0  0
   -1.0717   -1.2375    0.0000 C   0  0  0  0  0  0  0  2  0  0  0  0
   -1.7862   -0.8250    0.0000 C   0  0  0  0  0  0  0  2  0  0  0  0
   -1.7862    0.0000    0.0000 C   0  0  0  0  0  0  0  2  0  0  0  0
   -1.0717    0.4125    0.0000 C   0  0  0  0  0  0  0  2  0  0  0  0
   -2.5006   -1.2375    0.0000 Cl  0  0  0  0  0  0  0  2  0  0  0  0
  1  2  1  0        0
  2  3  1  0        0
  3  4  4  0        0
  4  5  4  0        0
  5  6  4  0        0
  6  7  4  0        0
  7  8  4  0        0
  3  8  4  0        0
  2  9  1  0        0
  9 10  4  0        0
 10 11  4  0        0
 11 12  4  0        0
 12 13  4  0        0
 13 14  4  0        0
  9 14  4  0        0
 12 15  1  0        0
M  END
$$$$

CDXL12

 14 15  0  0  0  0  0  0  0  0999 V2000
    0.0000    1.2375    0.0000 O   0  0  0  0  0  0  0  2  0  0  0  0
    0.0000    0.4125    0.0000 C   0  0  0  0  0  0  0  2  0  0  0  0
   -0.7145    0.0000    0.0000 C   0  0  0  0  0  0  0  2  0  0  0  0
   -0.7145   -0.8250    0.0000 C   0  0  0  0  0  0  0  2  0  0  0  0
   -1.4289   -1.2375    0.0000 C   0  0  0  0  0  0  0  2  0  0  0  0
   -2.1434   -0.8250    0.0000 C   0  0  0  0  0  0  0  2  0  0  0  0
   -2.1434    0.0000    0.0000 C   0  0  0  0  0  0  0  2  0  0  0  0
   -1.4289    0.4125    0.0000 C   0  0  0  0  0  0  0  2  0  0  0  0
    0.7145   -0.0000    0.0000 C   0  0  0  0  0  0  0  2  0  0  0  0
    1.4289    0.4125    0.0000 C   0  0  0  0  0  0  0  2  0  0  0  0
    2.1434    0.0000    0.0000 C   0  0  0  0  0  0  0  2  0  0  0  0
    2.1434   -0.8250    0.0000 C   0  0  0  0  0  0  0  2  0  0  0  0
    1.4289   -1.2375    0.0000 C   0  0  0  0  0  0  0  2  0  0  0  0
    0.7145   -0.8250    0.0000 C   0  0  0  0  0  0  0  2  0  0  0  0
  1  2  2  0        0
  2  3  1  0        0
  3  4  4  0        0
  4  5  4  0        0
  5  6  4  0        0
  6  7  4  0        0
  7  8  4  0        0
  3  8  4  0        0
  2  9  1  0        0
  9 10  4  0        0
 10 11  4  0        0
 11 12  4  0        0
 12 13  4  0        0
 13 14  4  0        0
  9 14  4  0        0
M  END
$$$$

CDXL12

 10 11  0  0  0  0  0  0  0  0999 V2000
    0.0000   -0.4125    0.0000 C   0  0  0  0  0  0  0  2  0  0  0  0
    0.0000    0.4125    0.0000 C   0  0  0  0  0  0  0  2  0  0  0  0
   -0.7145    0.8250    0.0000 C   0  0  0  0  0  0  0  2  0  0  0  0
   -1.4289    0.4125    0.0000 C   0  0  0  0  0  0  0  2  0  0  0  0
   -1.4289   -0.4125    0.0000 C   0  0  0  0  0  0  0  2  0  0  0  0
   -0.7145   -0.8250    0.0000 C   0  0  0  0  0  0  0  2  0  0  0  0
    0.7145    0.8250    0.0000 C   0  0  0  0  0  0  0  2  0  0  0  0
    1.4289    0.4125    0.0000 C   0  0  0  0  0  0  0  2  0  0  0  0
    1.4289   -0.4125    0.0000 C   0  0  0  0  0  0  0  2  0  0  0  0
    0.7145   -0.8250    0.0000 C   0  0  0  0  0  0  0  2  0  0  0  0
  1  2  4  0        0
  2  3  4  0        0
  3  4  4  0        0
  4  5  4  0        0
  5  6  4  0        0
  1  6  4  0        0
  2  7  1  0        0
  7  8  1  0        0
  8  9  1  0        0
  9 10  1  0        0
  1 10  1  0        0
M  END
$$$$

CDXL12

 10 11  0  0  0  0  0  0  0  0999 V2000
    1.4289    0.4125    0.0000 N   0  0  0  0  0  0  0  2  0  0  0  0
    1.4289   -0.4125    0.0000 C   0  0  0  0  0  0  0  2  0  0  0  0
    0.7145   -0.8250    0.0000 C   0  0  0  0  0  0  0  2  0  0  0  0
    0.0000   -0.4125    0.0000 C   0  0  0  0  0  0  0  2  0  0  0  0
    0.0000    0.4125    0.0000 C   0  0  0  0  0  0  0  2  0  0  0  0
   -0.7145    0.8250    0.0000 C   0  0  0  0  0  0  0  2  0  0  0  0
   -1.4289    0.4125    0.0000 C   0  0  0  0  0  0  0  2  0  0  0  0
   -1.4289   -0.4125    0.0000 C   0  0  0  0  0  0  0  2  0  0  0  0
   -0.7145   -0.8250    0.0000 C   0  0  0  0  0  0  0  2  0  0  0  0
    0.7145    0.8250    0.0000 C   0  0  0  0  0  0  0  2  0  0  0  0
  1  2  4  0        0
  2  3  4  0        0
  3  4  4  0        0
  4  5  4  0        0
  5  6  4  0        0
  6  7  4  0        0
  7  8  4  0        0
  8  9  4  0        0
  4  9  4  0        0
  5 10  4  0        0
  1 10  4  0        0
M  END
$$$$

CDXL12

 15 16  0  0  0  0  0  0  0  0999 V2000
   -1.8414   -0.1658    0.0000 O   0  0  0  0  0  0  0  2  0  0  0  0
   -1.4289   -0.8803    0.0000 S   0  0  0  0  0  0  0  2  0  0  0  0
   -1.0164   -1.5947    0.0000 O   0  0  0  0  0  0  0  2  0  0  0  0
   -2.1434   -1.2928    0.0000 O   0  0  0  0  0  0  0  2  0  0  0  0
   -0.7145   -0.4678    0.0000 C   0  0  0  0  0  0  0  2  0  0  0  0
   -0.7145    0.3572    0.0000 C   0  0  0  0  0  0  0  2  0  0  0  0
    0.0000    0.7697    0.0000 C   0  0  0  0  0  0  0  2  0  0  0  0
    0.7145    0.3572    0.0000 C   0  0  0  0  0  0  0  2  0  0  0  0
    0.7145   -0.4678    0.0000 C   0  0  0  0  0  0  0  2  0  0  0  0
    1.4289   -0.8803    0.0000 C   0  0  0  0  0  0  0  2  0  0  0  0
    2.1434   -0.4678    0.0000 C   0  0  0  0  0  0  0  2  0  0  0  0
    2.1434    0.3572    0.0000 C   0  0  0  0  0  0  0  2  0  0  0  0
    1.4289    0.7697    0.0000 C   0  0  0  0  0  0  0  2  0  0  0  0
    1.4289    1.5947    0.0000 N   0  0  0  0  0  0  0  2  0  0  0  0
    0.0000   -0.8803    0.0000 C   0  0  0  0  0  0  0  2  0  0  0  0
  1  2  2  0        0
  2  3  2  0        0
  2  4  1  0        0
  2  5  1  0        0
  5  6  4  0        0
  6  7  4  0        0
  7  8  4  0        0
  8  9  4  0        0
  9 10  4  0        0
 10 11  4  0        0
 11 12  4  0        0
 12 13  4  0        0
  8 13  4  0        0
 13 14  1  0        0
  9 15  4  0        0
  5 15  4  0        0
M  END
$$$$

CDXL12

 18 19  0  0  0  0  0  0  0  0999 V2000
    2.5006   -0.2062    0.0000 O   0  0  0  0  0  0  0  2  0  0  0  0
    1.7862    0.2062    0.0000 C   0  0  0  0  0  0  0  2  0  0  0  0
    1.7862    1.0313    0.0000 C   0  0  0  0  0  0  0  2  0  0  0  0
    2.5006    1.4438    0.0000 N   0  0  0  0  0  0  0  2  0  0  0  0
    1.0717    1.4438    0.0000 C   0  0  0  0  0  0  0  2  0  0  0  0
    0.3572    1.0312    0.0000 C   0  0  0  0  0  0  0  2  0  0  0  0
    0.3572    0.2062    0.0000 C   0  0  0  0  0  0  0  2  0  0  0  0
   -0.3572   -0.2062    0.0000 C   0  0  0  0  0  0  0  2  0  0  0  0
   -0.3572   -1.0313    0.0000 C   0  0  0  0  0  0  0  2  0  0  0  0
   -1.0717   -1.4438    0.0000 C   0  0  0  0  0  0  0  2  0  0  0  0
   -1.7862   -1.0313    0.0000 C   0  0  0  0  0  0  0  2  0  0  0  0
   -2.5006   -1.4438    0.0000 N   0  0  0  0  0  0  0  2  0  0  0  0
   -1.7862   -0.2062    0.0000 C   0  0  0  0  0  0  0  2  0  0  0  0
   -2.5006    0.2062    0.0000 O   0  0  0  0  0  0  0  2  0  0  0  0
   -3.2151   -0.2062    0.0000 C   0  0  0  0  0  0  0  2  0  0  0  0
   -1.0717    0.2062    0.0000 C   0  0  0  0  0  0  0  2  0  0  0  0
    1.0717   -0.2062    0.0000 C   0  0  0  0  0  0  0  2  0  0  0  0
    3.2151    0.2062    0.0000 C   0  0  0  0  0  0  0  2  0  0  0  0
  1  2  1  0        0
  2  3  4  0        0
  3  4  1  0        0
  3  5  4  0        0
  5  6  4  0        0
  6  7  4  0        0
  7  8  1  0        0
  8  9  4  0        0
  9 10  4  0        0
 10 11  4  0        0
 11 12  1  0        0
 11 13  4  0        0
 13 14  1  0        0
 14 15  1  0        0
 13 16  4  0        0
  8 16  4  0        0
  7 17  4  0        0
  2 17  4  0        0
  1 18  1  0        0
M  END
$$$$

CDXL12

 20 23  0  0  0  0  0  0  0  0999 V2000
   -1.0717    0.2062    0.0000 N   0  0  0  0  0  0  0  2  0  0  0  0
   -1.7862   -0.2062    0.0000 C   0  0  0  0  0  0  0  2  0  0  0  0
   -1.7862   -1.0313    0.0000 C   0  0  0  0  0  0  0  2  0  0  0  0
   -2.5006   -1.4438    0.0000 C   0  0  0  0  0  0  0  2  0  0  0  0
   -3.2151   -1.0312    0.0000 C   0  0  0  0  0  0  0  2  0  0  0  0
   -3.2151   -0.2062    0.0000 C   0  0  0  0  0  0  0  2  0  0  0  0
   -2.5006    0.2062    0.0000 C   0  0  0  0  0  0  0  2  0  0  0  0
   -1.0717   -1.4438    0.0000 C   0  0  0  0  0  0  0  2  0  0  0  0
   -0.3572   -1.0313    0.0000 C   0  0  0  0  0  0  0  2  0  0  0  0
   -0.3572   -0.2063    0.0000 C   0  0  0  0  0  0  0  2  0  0  0  0
    0.3572    0.2062    0.0000 C   0  0  0  0  0  0  0  2  0  0  0  0
    1.0717   -0.2063    0.0000 N   0  0  0  0  0  0  0  2  0  0  0  0
    1.7862    0.2062    0.0000 C   0  0  0  0  0  0  0  2  0  0  0  0
    1.7862    1.0313    0.0000 C   0  0  0  0  0  0  0  2  0  0  0  0
    2.5006    1.4438    0.0000 C   0  0  0  0  0  0  0  2  0  0  0  0
    3.2151    1.0313    0.0000 C   0  0  0  0  0  0  0  2  0  0  0  0
    3.2151    0.2062    0.0000 C   0  0  0  0  0  0  0  2  0  0  0  0
    2.5006   -0.2063    0.0000 C   0  0  0  0  0  0  0  2  0  0  0  0
    1.0717    1.4438    0.0000 C   0  0  0  0  0  0  0  2  0  0  0  0
    0.3572    1.0312    0.0000 C   0  0  0  0  0  0  0  2  0  0  0  0
  1  2  4  0        0
  2  3  4  0        0
  3  4  4  0        0
  4  5  4  0        0
  5  6  4  0        0
  6  7  4  0        0
  2  7  4  0        0
  3  8  4  0        0
  8  9  4  0        0
  9 10  4  0        0
  1 10  4  0        0
 10 11  1  0        0
 11 12  4  0        0
 12 13  4  0        0
 13 14  4  0        0
 14 15  4  0        0
 15 16  4  0        0
 16 17  4  0        0
 17 18  4  0        0
 13 18  4  0        0
 14 19  4  0        0
 19 20  4  0        0
 11 20  4  0        0
M  END
$$$$

CDXL12

 16 17  0  0  0  0  0  0  0  0999 V2000
    2.5006    1.4437    0.0000 N   0  0  0  0  0  0  0  2  0  0  0  0
    1.7862    1.0312    0.0000 C   0  0  0  0  0  0  0  2  0  0  0  0
    1.7862    0.2062    0.0000 C   0  0  0  0  0  0  0  2  0  0  0  0
    1.0717   -0.2062    0.0000 C   0  0  0  0  0  0  0  2  0  0  0  0
    0.3572    0.2062    0.0000 C   0  0  0  0  0  0  0  2  0  0  0  0
   -0.3572   -0.2062    0.0000 C   0  0  0  0  0  0  0  2  0  0  0  0
   -0.3572   -1.0312    0.0000 C   0  0  0  0  0  0  0  2  0  0  0  0
   -1.0717   -1.4437    0.0000 C   0  0  0  0  0  0  0  2  0  0  0  0
   -1.7862   -1.0312    0.0000 C   0  0  0  0  0  0  0  2  0  0  0  0
   -2.5006   -1.4437    0.0000 N   0  0  0  0  0  0  0  2  0  0  0  0
   -1.7862   -0.2062    0.0000 C   0  0  0  0  0  0  0  2  0  0  0  0
   -2.5006    0.2062    0.0000 C   0  0  0  0  0  0  0  2  0  0  0  0
   -1.0717    0.2062    0.0000 C   0  0  0  0  0  0  0  2  0  0  0  0
    0.3572    1.0312    0.0000 C   0  0  0  0  0  0  0  2  0  0  0  0
    1.0717    1.4437    0.0000 C   0  0  0  0  0  0  0  2  0  0  0  0
    2.5006   -0.2063    0.0000 C   0  0  0  0  0  0  0  2  0  0  0  0
  1  2  1  0        0
  2  3  4  0        0
  3  4  4  0        0
  4  5  4  0        0
  5  6  1  0        0
  6  7  4  0        0
  7  8  4  0        0
  8  9  4  0        0
  9 10  1  0        0
  9 11  4  0        0
 11 12  1  0        0
 11 13  4  0        0
  6 13  4  0        0
  5 14  4  0        0
 14 15  4  0        0
  2 15  4  0        0
  3 16  1  0        0
M  END
$$$$

CDXL12

 13 13  0  0  0  0  0  0  0  0999 V2000
   -2.1434   -1.4438    0.0000 O   0  0  0  0  0  0  0  2  0  0  0  0
   -1.4289   -1.0313    0.0000 C   0  0  0  0  0  0  0  2  0  0  0  0
   -0.7145   -1.4438    0.0000 C   0  0  0  0  0  0  0  2  0  0  0  0
    0.0000   -1.0313    0.0000 N   0  0  0  0  0  0  0  2  0  0  0  0
    0.0000   -0.2062    0.0000 C   0  0  0  0  0  0  0  2  0  0  0  0
   -0.7145    0.2062    0.0000 C   0  0  0  0  0  0  0  2  0  0  0  0
   -0.7145    1.0313    0.0000 C   0  0  0  0  0  0  0  2  0  0  0  0
    0.0000    1.4438    0.0000 C   0  0  0  0  0  0  0  2  0  0  0  0
    0.7145    1.0313    0.0000 C   0  0  0  0  0  0  0  2  0  0  0  0
    0.7145    0.2062    0.0000 C   0  0  0  0  0  0  0  2  0  0  0  0
    0.7145   -1.4438    0.0000 C   0  0  0  0  0  0  0  2  0  0  0  0
    1.4289   -1.0313    0.0000 C   0  0  0  0  0  0  0  2  0  0  0  0
    2.1434   -1.4438    0.0000 O   0  0  0  0  0  0  0  2  0  0  0  0
  1  2  1  0        0
  2  3  1  0        0
  3  4  1  0        0
  4  5  1  0        0
  5  6  4  0        0
  6  7  4  0        0
  7  8  4  0        0
  8  9  4  0        0
  9 10  4  0        0
  5 10  4  0        0
  4 11  1  0        0
 11 12  1  0        0
 12 13  1  0        0
M  END
$$$$

CDXL12

 14 16  0  0  0  0  0  0  0  0999 V2000
    0.7145   -0.4125    0.0000 C   0  0  0  0  0  0  0  2  0  0  0  0
    0.7145    0.4125    0.0000 C   0  0  0  0  0  0  0  2  0  0  0  0
    1.4289    0.8250    0.0000 C   0  0  0  0  0  0  0  2  0  0  0  0
    2.1434    0.4125    0.0000 C   0  0  0  0  0  0  0  2  0  0  0  0
    2.1434   -0.4125    0.0000 C   0  0  0  0  0  0  0  2  0  0  0  0
    1.4289   -0.8250    0.0000 C   0  0  0  0  0  0  0  2  0  0  0  0
    0.0000    0.8250    0.0000 C   0  0  0  0  0  0  0  2  0  0  0  0
   -0.7145    0.4125    0.0000 C   0  0  0  0  0  0  0  2  0  0  0  0
   -0.7145   -0.4125    0.0000 C   0  0  0  0  0  0  0  2  0  0  0  0
   -1.4289   -0.8250    0.0000 C   0  0  0  0  0  0  0  2  0  0  0  0
   -2.1434   -0.4125    0.0000 C   0  0  0  0  0  0  0  2  0  0  0  0
   -2.1434    0.4125    0.0000 C   0  0  0  0  0  0  0  2  0  0  0  0
   -1.4289    0.8250    0.0000 C   0  0  0  0  0  0  0  2  0  0  0  0
    0.0000   -0.8250    0.0000 C   0  0  0  0  0  0  0  2  0  0  0  0
  1  2  4  0        0
  2  3  4  0        0
  3  4  4  0        0
  4  5  4  0        0
  5  6  4  0        0
  1  6  4  0        0
  2  7  4  0        0
  7  8  4  0        0
  8  9  4  0        0
  9 10  4  0        0
 10 11  4  0        0
 11 12  4  0        0
 12 13  4  0        0
  8 13  4  0        0
  9 14  4  0        0
  1 14  4  0        0
M  END
$$$$

CDXL12

 14 15  0  0  0  0  0  0  0  0999 V2000
    1.8414   -0.2467    0.0000 O   0  0  0  0  0  0  0  2  0  0  0  0
    1.4289    0.4678    0.0000 S   0  0  0  0  0  0  0  2  0  0  0  0
    1.0164    1.1822    0.0000 O   0  0  0  0  0  0  0  2  0  0  0  0
    2.1434    0.8803    0.0000 O   0  0  0  0  0  0  0  2  0  0  0  0
    0.7145    0.0553    0.0000 C   0  0  0  0  0  0  0  2  0  0  0  0
    0.7145   -0.7697    0.0000 C   0  0  0  0  0  0  0  2  0  0  0  0
    0.0000   -1.1822    0.0000 C   0  0  0  0  0  0  0  2  0  0  0  0
   -0.7145   -0.7697    0.0000 C   0  0  0  0  0  0  0  2  0  0  0  0
   -0.7145    0.0553    0.0000 C   0  0  0  0  0  0  0  2  0  0  0  0
   -1.4289    0.4678    0.0000 C   0  0  0  0  0  0  0  2  0  0  0  0
   -2.1434    0.0553    0.0000 C   0  0  0  0  0  0  0  2  0  0  0  0
   -2.1434   -0.7697    0.0000 C   0  0  0  0  0  0  0  2  0  0  0  0
   -1.4289   -1.1822    0.0000 C   0  0  0  0  0  0  0  2  0  0  0  0
    0.0000    0.4678    0.0000 C   0  0  0  0  0  0  0  2  0  0  0  0
  1  2  2  0        0
  2  3  2  0        0
  2  4  1  0        0
  2  5  1  0        0
  5  6  4  0        0
  6  7  4  0        0
  7  8  4  0        0
  8  9  4  0        0
  9 10  4  0        0
 10 11  4  0        0
 11 12  4  0        0
 12 13  4  0        0
  8 13  4  0        0
  9 14  4  0        0
  5 14  4  0        0
M  END
$$$$

CDXL12

 15 16  0  0  0  0  0  0  0  0999 V2000
    0.3572    0.8250    0.0000 O   0  0  0  0  0  0  0  2  0  0  0  0
   -0.3572    0.4125    0.0000 C   0  0  0  0  0  0  0  2  0  0  0  0
   -0.3572   -0.4125    0.0000 C   0  0  0  0  0  0  0  2  0  0  0  0
   -1.0717   -0.8250    0.0000 C   0  0  0  0  0  0  0  2  0  0  0  0
   -1.7862   -0.4125    0.0000 C   0  0  0  0  0  0  0  2  0  0  0  0
   -1.7862    0.4125    0.0000 C   0  0  0  0  0  0  0  2  0  0  0  0
   -1.0717    0.8250    0.0000 C   0  0  0  0  0  0  0  2  0  0  0  0
   -2.5006   -0.8250    0.0000 Cl  0  0  0  0  0  0  0  2  0  0  0  0
    0.3572   -0.8250    0.0000 C   0  0  0  0  0  0  0  2  0  0  0  0
    1.0717   -0.4125    0.0000 C   0  0  0  0  0  0  0  2  0  0  0  0
    1.0717    0.4125    0.0000 C   0  0  0  0  0  0  0  2  0  0  0  0
    1.7862    0.8250    0.0000 C   0  0  0  0  0  0  0  2  0  0  0  0
    2.5006    0.4125    0.0000 C   0  0  0  0  0  0  0  2  0  0  0  0
    2.5006   -0.4125    0.0000 C   0  0  0  0  0  0  0  2  0  0  0  0
    1.7862   -0.8250    0.0000 C   0  0  0  0  0  0  0  2  0  0  0  0
  1  2  1  0        0
  2  3  4  0        0
  3  4  4  0        0
  4  5  4  0        0
  5  6  4  0        0
  6  7  4  0        0
  2  7  4  0        0
  5  8  1  0        0
  3  9  1  0        0
  9 10  1  0        0
 10 11  4  0        0
 11 12  4  0        0
 12 13  4  0        0
 13 14  4  0        0
 14 15  4  0        0
 10 15  4  0        0
M  END
$$$$

CDXL12

 12 12  0  0  0  0  0  0  0  0999 V2000
    0.3572    1.2375    0.0000 O   0  0  0  0  0  0  0  2  0  0  0  0
    0.3572    0.4125    0.0000 C   0  0  0  0  0  0  0  2  0  0  0  0
    1.0717   -0.0000    0.0000 O   0  0  0  0  0  0  0  2  0  0  0  0
    1.7862    0.4125    0.0000 C   0  0  0  0  0  0  0  2  0  0  0  0
    2.5006   -0.0000    0.0000 C   0  0  0  0  0  0  0  2  0  0  0  0
   -0.3572   -0.0000    0.0000 C   0  0  0  0  0  0  0  2  0  0  0  0
   -0.3572   -0.8250    0.0000 C   0  0  0  0  0  0  0  2  0  0  0  0
   -1.0717   -1.2375    0.0000 C   0  0  0  0  0  0  0  2  0  0  0  0
   -1.7862   -0.8250    0.0000 C   0  0  0  0  0  0  0  2  0  0  0  0
   -2.5006   -1.2375    0.0000 O   0  0  0  0  0  0  0  2  0  0  0  0
   -1.7862   -0.0000    0.0000 C   0  0  0  0  0  0  0  2  0  0  0  0
   -1.0717    0.4125    0.0000 C   0  0  0  0  0  0  0  2  0  0  0  0
  1  2  2  0        0
  2  3  1  0        0
  3  4  1  0        0
  4  5  1  0        0
  2  6  1  0        0
  6  7  4  0        0
  7  8  4  0        0
  8  9  4  0        0
  9 10  1  0        0
  9 11  4  0        0
 11 12  4  0        0
  6 12  4  0        0
M  END
$$$$

CDXL12

 11 12  0  0  0  0  0  0  0  0999 V2000
   -2.0637   -0.4125    0.0000 O   0  0  0  0  0  0  0  2  0  0  0  0
   -1.3492   -0.8250    0.0000 C   0  0  0  0  0  0  0  2  0  0  0  0
   -0.6348   -0.4125    0.0000 C   0  0  0  0  0  0  0  2  0  0  0  0
   -0.6348    0.4125    0.0000 C   0  0  0  0  0  0  0  2  0  0  0  0
    0.0797    0.8250    0.0000 C   0  0  0  0  0  0  0  2  0  0  0  0
    0.7942    0.4125    0.0000 C   0  0  0  0  0  0  0  2  0  0  0  0
    1.5788    0.6674    0.0000 O   0  0  0  0  0  0  0  2  0  0  0  0
    2.0637   -0.0000    0.0000 C   0  0  0  0  0  0  0  2  0  0  0  0
    1.5788   -0.6674    0.0000 O   0  0  0  0  0  0  0  2  0  0  0  0
    0.7942   -0.4125    0.0000 C   0  0  0  0  0  0  0  2  0  0  0  0
    0.0797   -0.8250    0.0000 C   0  0  0  0  0  0  0  2  0  0  0  0
  1  2  2  0        0
  2  3  1  0        0
  3  4  4  0        0
  4  5  4  0        0
  5  6  4  0        0
  6  7  1  0        0
  7  8  1  0        0
  8  9  1  0        0
  9 10  1  0        0
  6 10  4  0        0
 10 11  4  0        0
  3 11  4  0        0
M  END
$$$$

CDXL12

 14 14  0  0  0  0  0  0  0  0999 V2000
    1.4289   -1.6500    0.0000 O   0  0  0  0  0  0  0  2  0  0  0  0
    1.4289   -0.8250    0.0000 C   0  0  0  0  0  0  0  2  0  0  0  0
    2.1434   -0.4125    0.0000 O   0  0  0  0  0  0  0  2  0  0  0  0
    2.8579   -0.8250    0.0000 C   0  0  0  0  0  0  0  2  0  0  0  0
    0.7145   -0.4125    0.0000 C   0  0  0  0  0  0  0  2  0  0  0  0
    0.0000   -0.8250    0.0000 C   0  0  0  0  0  0  0  2  0  0  0  0
   -0.7145   -0.4125    0.0000 C   0  0  0  0  0  0  0  2  0  0  0  0
   -0.7145    0.4125    0.0000 C   0  0  0  0  0  0  0  2  0  0  0  0
    0.0000    0.8250    0.0000 C   0  0  0  0  0  0  0  2  0  0  0  0
    0.7145    0.4125    0.0000 C   0  0  0  0  0  0  0  2  0  0  0  0
   -1.4289    0.8250    0.0000 C   0  0  0  0  0  0  0  2  0  0  0  0
   -1.4289    1.6500    0.0000 O   0  0  0  0  0  0  0  2  0  0  0  0
   -2.1434    0.4125    0.0000 O   0  0  0  0  0  0  0  2  0  0  0  0
   -2.8579    0.8250    0.0000 C   0  0  0  0  0  0  0  2  0  0  0  0
  1  2  2  0        0
  2  3  1  0        0
  3  4  1  0        0
  2  5  1  0        0
  5  6  4  0        0
  6  7  4  0        0
  7  8  4  0        0
  8  9  4  0        0
  9 10  4  0        0
  5 10  4  0        0
  8 11  1  0        0
 11 12  2  0        0
 11 13  1  0        0
 13 14  1  0        0
M  END
$$$$

CDXL12

  9 10  0  0  0  0  0  0  0  0999 V2000
   -1.3492    0.4125    0.0000 C   0  0  0  0  0  0  0  2  0  0  0  0
   -1.3492   -0.4125    0.0000 C   0  0  0  0  0  0  0  2  0  0  0  0
   -0.6348   -0.8250    0.0000 C   0  0  0  0  0  0  0  2  0  0  0  0
    0.0797   -0.4125    0.0000 C   0  0  0  0  0  0  0  2  0  0  0  0
    0.8643   -0.6674    0.0000 C   0  0  0  0  0  0  0  2  0  0  0  0
    1.3492   -0.0000    0.0000 C   0  0  0  0  0  0  0  2  0  0  0  0
    0.8643    0.6674    0.0000 N   0  0  0  0  0  0  0  2  0  0  0  0
    0.0797    0.4125    0.0000 C   0  0  0  0  0  0  0  2  0  0  0  0
   -0.6348    0.8250    0.0000 C   0  0  0  0  0  0  0  2  0  0  0  0
  1  2  4  0        0
  2  3  4  0        0
  3  4  4  0        0
  4  5  4  0        0
  5  6  4  0        0
  6  7  4  0        0
  7  8  4  0        0
  4  8  4  0        0
  8  9  4  0        0
  1  9  4  0        0
M  END
$$$$

CDXL12

  9 10  0  0  0  0  0  0  0  0999 V2000
   -1.3492   -0.4125    0.0000 C   0  0  0  0  0  0  0  2  0  0  0  0
   -1.3492    0.4125    0.0000 N   0  0  0  0  0  0  0  2  0  0  0  0
   -0.6348    0.8250    0.0000 C   0  0  0  0  0  0  0  2  0  0  0  0
    0.0797    0.4125    0.0000 C   0  0  0  0  0  0  0  2  0  0  0  0
    0.8643    0.6674    0.0000 N   0  0  0  0  0  0  0  2  0  0  0  0
    1.3492   -0.0000    0.0000 C   0  0  0  0  0  0  0  2  0  0  0  0
    0.8643   -0.6674    0.0000 N   0  0  0  0  0  0  0  2  0  0  0  0
    0.0797   -0.4125    0.0000 C   0  0  0  0  0  0  0  2  0  0  0  0
   -0.6348   -0.8250    0.0000 N   0  0  0  0  0  0  0  2  0  0  0  0
  1  2  4  0        0
  2  3  4  0        0
  3  4  4  0        0
  4  5  4  0        0
  5  6  4  0        0
  6  7  4  0        0
  7  8  4  0        0
  4  8  4  0        0
  8  9  4  0        0
  1  9  4  0        0
M  END
$$$$

CDXL12

  8  8  0  0  0  0  0  0  0  0999 V2000
    1.0717    0.8250    0.0000 O   0  0  0  0  0  0  0  2  0  0  0  0
    0.3572    0.4125    0.0000 C   0  0  0  0  0  0  0  2  0  0  0  0
    0.3572   -0.4125    0.0000 C   0  0  0  0  0  0  0  2  0  0  0  0
    1.0717   -0.8250    0.0000 O   0  0  0  0  0  0  0  2  0  0  0  0
   -0.3572   -0.8250    0.0000 C   0  0  0  0  0  0  0  2  0  0  0  0
   -1.0717   -0.4125    0.0000 C   0  0  0  0  0  0  0  2  0  0  0  0
   -1.0717    0.4125    0.0000 C   0  0  0  0  0  0  0  2  0  0  0  0
   -0.3572    0.8250    0.0000 C   0  0  0  0  0  0  0  2  0  0  0  0
  1  2  1  0        0
  2  3  4  0        0
  3  4  1  0        0
  3  5  4  0        0
  5  6  4  0        0
  6  7  4  0        0
  7  8  4  0        0
  2  8  4  0        0
M  END
$$$$

CDXL12

  9  9  0  0  0  0  0  0  0  0999 V2000
   -0.7145   -0.4125    0.0000 C   0  0  0  0  0  0  0  2  0  0  0  0
   -0.7145    0.4125    0.0000 C   0  0  0  0  0  0  0  2  0  0  0  0
    0.0000    0.8250    0.0000 C   0  0  0  0  0  0  0  2  0  0  0  0
    0.7145    0.4125    0.0000 C   0  0  0  0  0  0  0  2  0  0  0  0
    0.7145   -0.4125    0.0000 C   0  0  0  0  0  0  0  2  0  0  0  0
    1.4289   -0.8250    0.0000 Cl  0  0  0  0  0  0  0  2  0  0  0  0
    0.0000   -0.8250    0.0000 C   0  0  0  0  0  0  0  2  0  0  0  0
    1.4289    0.8250    0.0000 Cl  0  0  0  0  0  0  0  2  0  0  0  0
   -1.4289   -0.8250    0.0000 Cl  0  0  0  0  0  0  0  2  0  0  0  0
  1  2  4  0        0
  2  3  4  0        0
  3  4  4  0        0
  4  5  4  0        0
  5  6  1  0        0
  5  7  4  0        0
  1  7  4  0        0
  4  8  1  0        0
  1  9  1  0        0
M  END
$$$$

CDXL12

  9  9  0  0  0  0  0  0  0  0999 V2000
    1.4289    0.8250    0.0000 O   0  0  0  0  0  0  0  2  0  0  0  0
    0.7145    0.4125    0.0000 C   0  0  0  0  0  0  0  2  0  0  0  0
    0.7145   -0.4125    0.0000 C   0  0  0  0  0  0  0  2  0  0  0  0
    0.0000   -0.8250    0.0000 C   0  0  0  0  0  0  0  2  0  0  0  0
   -0.7145   -0.4125    0.0000 C   0  0  0  0  0  0  0  2  0  0  0  0
   -0.7145    0.4125    0.0000 C   0  0  0  0  0  0  0  2  0  0  0  0
    0.0000    0.8250    0.0000 C   0  0  0  0  0  0  0  2  0  0  0  0
   -1.4289   -0.8250    0.0000 Cl  0  0  0  0  0  0  0  2  0  0  0  0
    1.4289   -0.8250    0.0000 Cl  0  0  0  0  0  0  0  2  0  0  0  0
  1  2  1  0        0
  2  3  4  0        0
  3  4  4  0        0
  4  5  4  0        0
  5  6  4  0        0
  6  7  4  0        0
  2  7  4  0        0
  5  8  1  0        0
  3  9  1  0        0
M  END
$$$$

CDXL12

 13 13  0  0  0  0  0  0  0  0999 V2000
   -1.4289    1.2375    0.0000 O   0  0  0  0  0  0  0  2  0  0  0  0
   -1.4289    0.4125    0.0000 N   0  0  0  0  0  0  0  2  0  0  0  0
   -2.1434   -0.0000    0.0000 O   0  0  0  0  0  0  0  2  0  0  0  0
   -0.7145   -0.0000    0.0000 C   0  0  0  0  0  0  0  2  0  0  0  0
   -0.7145   -0.8250    0.0000 C   0  0  0  0  0  0  0  2  0  0  0  0
    0.0000   -1.2375    0.0000 C   0  0  0  0  0  0  0  2  0  0  0  0
    0.7145   -0.8250    0.0000 C   0  0  0  0  0  0  0  2  0  0  0  0
    0.7145   -0.0000    0.0000 C   0  0  0  0  0  0  0  2  0  0  0  0
    1.4289    0.4125    0.0000 N   0  0  0  0  0  0  0  2  0  0  0  0
    1.4289    1.2375    0.0000 O   0  0  0  0  0  0  0  2  0  0  0  0
    2.1434   -0.0000    0.0000 O   0  0  0  0  0  0  0  2  0  0  0  0
    0.0000    0.4125    0.0000 C   0  0  0  0  0  0  0  2  0  0  0  0
    1.4289   -1.2375    0.0000 C   0  0  0  0  0  0  0  2  0  0  0  0
  1  2  2  0        0
  2  3  2  0        0
  2  4  1  0        0
  4  5  4  0        0
  5  6  4  0        0
  6  7  4  0        0
  7  8  4  0        0
  8  9  1  0        0
  9 10  2  0        0
  9 11  2  0        0
  8 12  4  0        0
  4 12  4  0        0
  7 13  1  0        0
M  END
$$$$

CDXL12

 11 11  0  0  0  0  0  0  0  0999 V2000
    2.1434   -0.4125    0.0000 O   0  0  0  0  0  0  0  2  0  0  0  0
    1.4289   -0.8250    0.0000 C   0  0  0  0  0  0  0  2  0  0  0  0
    0.7145   -0.4125    0.0000 C   0  0  0  0  0  0  0  2  0  0  0  0
    0.7145    0.4125    0.0000 C   0  0  0  0  0  0  0  2  0  0  0  0
    0.0000    0.8250    0.0000 C   0  0  0  0  0  0  0  2  0  0  0  0
   -0.7145    0.4125    0.0000 C   0  0  0  0  0  0  0  2  0  0  0  0
   -1.4289    0.8250    0.0000 O   0  0  0  0  0  0  0  2  0  0  0  0
   -0.7145   -0.4125    0.0000 C   0  0  0  0  0  0  0  2  0  0  0  0
   -1.4289   -0.8250    0.0000 O   0  0  0  0  0  0  0  2  0  0  0  0
   -2.1434   -0.4125    0.0000 C   0  0  0  0  0  0  0  2  0  0  0  0
    0.0000   -0.8250    0.0000 C   0  0  0  0  0  0  0  2  0  0  0  0
  1  2  2  0        0
  2  3  1  0        0
  3  4  4  0        0
  4  5  4  0        0
  5  6  4  0        0
  6  7  1  0        0
  6  8  4  0        0
  8  9  1  0        0
  9 10  1  0        0
  8 11  4  0        0
  3 11  4  0        0
M  END
$$$$

CDXL12

 12 12  0  0  0  0  0  0  0  0999 V2000
    1.4289    1.2375    0.0000 O   0  0  0  0  0  0  0  2  0  0  0  0
    1.4289    0.4125    0.0000 C   0  0  0  0  0  0  0  2  0  0  0  0
    2.1434   -0.0000    0.0000 O   0  0  0  0  0  0  0  2  0  0  0  0
    0.7145   -0.0000    0.0000 C   0  0  0  0  0  0  0  2  0  0  0  0
    0.7145   -0.8250    0.0000 C   0  0  0  0  0  0  0  2  0  0  0  0
    0.0000   -1.2375    0.0000 C   0  0  0  0  0  0  0  2  0  0  0  0
   -0.7145   -0.8250    0.0000 C   0  0  0  0  0  0  0  2  0  0  0  0
   -1.4289   -1.2375    0.0000 O   0  0  0  0  0  0  0  2  0  0  0  0
   -0.7145    0.0000    0.0000 C   0  0  0  0  0  0  0  2  0  0  0  0
   -1.4289    0.4125    0.0000 O   0  0  0  0  0  0  0  2  0  0  0  0
   -2.1434    0.0000    0.0000 C   0  0  0  0  0  0  0  2  0  0  0  0
    0.0000    0.4125    0.0000 C   0  0  0  0  0  0  0  2  0  0  0  0
  1  2  2  0        0
  2  3  1  0        0
  2  4  1  0        0
  4  5  4  0        0
  5  6  4  0        0
  6  7  4  0        0
  7  8  1  0        0
  7  9  4  0        0
  9 10  1  0        0
 10 11  1  0        0
  9 12  4  0        0
  4 12  4  0        0
M  END
$$$$

CDXL12

 11 11  0  0  0  0  0  0  0  0999 V2000
    1.4842   -0.2467    0.0000 O   0  0  0  0  0  0  0  2  0  0  0  0
    1.0717    0.4678    0.0000 S   0  0  0  0  0  0  0  2  0  0  0  0
    0.6592    1.1822    0.0000 O   0  0  0  0  0  0  0  2  0  0  0  0
    1.7862    0.8803    0.0000 O   0  0  0  0  0  0  0  2  0  0  0  0
    0.3572    0.0553    0.0000 C   0  0  0  0  0  0  0  2  0  0  0  0
    0.3572   -0.7697    0.0000 C   0  0  0  0  0  0  0  2  0  0  0  0
   -0.3572   -1.1822    0.0000 C   0  0  0  0  0  0  0  2  0  0  0  0
   -1.0717   -0.7697    0.0000 C   0  0  0  0  0  0  0  2  0  0  0  0
   -1.0717    0.0553    0.0000 C   0  0  0  0  0  0  0  2  0  0  0  0
   -1.7862    0.4678    0.0000 N   0  0  0  0  0  0  0  2  0  0  0  0
   -0.3572    0.4678    0.0000 C   0  0  0  0  0  0  0  2  0  0  0  0
  1  2  2  0        0
  2  3  2  0        0
  2  4  1  0        0
  2  5  1  0        0
  5  6  4  0        0
  6  7  4  0        0
  7  8  4  0        0
  8  9  4  0        0
  9 10  1  0        0
  9 11  4  0        0
  5 11  4  0        0
M  END
$$$$

CDXL12

 11 11  0  0  0  0  0  0  0  0999 V2000
    1.4842   -0.2467    0.0000 O   0  0  0  0  0  0  0  2  0  0  0  0
    1.0717    0.4678    0.0000 S   0  0  0  0  0  0  0  2  0  0  0  0
    0.6592    1.1822    0.0000 O   0  0  0  0  0  0  0  2  0  0  0  0
    1.7862    0.8803    0.0000 O   0  0  0  0  0  0  0  2  0  0  0  0
    0.3572    0.0553    0.0000 C   0  0  0  0  0  0  0  2  0  0  0  0
    0.3572   -0.7697    0.0000 C   0  0  0  0  0  0  0  2  0  0  0  0
   -0.3572   -1.1822    0.0000 C   0  0  0  0  0  0  0  2  0  0  0  0
   -1.0717   -0.7697    0.0000 C   0  0  0  0  0  0  0  2  0  0  0  0
   -1.7862   -1.1822    0.0000 N   0  0  0  0  0  0  0  2  0  0  0  0
   -1.0717    0.0553    0.0000 C   0  0  0  0  0  0  0  2  0  0  0  0
   -0.3572    0.4678    0.0000 C   0  0  0  0  0  0  0  2  0  0  0  0
  1  2  2  0        0
  2  3  2  0        0
  2  4  1  0        0
  2  5  1  0        0
  5  6  4  0        0
  6  7  4  0        0
  7  8  4  0        0
  8  9  1  0        0
  8 10  4  0        0
 10 11  4  0        0
  5 11  4  0        0
M  END
$$$$

CDXL12

 14 14  0  0  0  0  0  0  0  0999 V2000
    0.3572    0.4678    0.0000 C   0  0  0  0  0  0  0  2  0  0  0  0
   -0.3572    0.0553    0.0000 C   0  0  0  0  0  0  0  2  0  0  0  0
   -0.3572   -0.7697    0.0000 C   0  0  0  0  0  0  0  2  0  0  0  0
   -1.0717   -1.1822    0.0000 N   0  0  0  0  0  0  0  2  0  0  0  0
   -1.7862   -0.7697    0.0000 C   0  0  0  0  0  0  0  2  0  0  0  0
   -1.7862    0.0553    0.0000 O   0  0  0  0  0  0  0  2  0  0  0  0
   -2.5006   -1.1822    0.0000 C   0  0  0  0  0  0  0  2  0  0  0  0
    0.3572   -1.1822    0.0000 C   0  0  0  0  0  0  0  2  0  0  0  0
    1.0717   -0.7697    0.0000 C   0  0  0  0  0  0  0  2  0  0  0  0
    1.0717    0.0553    0.0000 C   0  0  0  0  0  0  0  2  0  0  0  0
    1.7862    0.4678    0.0000 S   0  0  0  0  0  0  0  2  0  0  0  0
    1.3737    1.1822    0.0000 O   0  0  0  0  0  0  0  2  0  0  0  0
    2.1987   -0.2467    0.0000 O   0  0  0  0  0  0  0  2  0  0  0  0
    2.5006    0.8803    0.0000 N   0  0  0  0  0  0  0  2  0  0  0  0
  1  2  4  0        0
  2  3  4  0        0
  3  4  1  0        0
  4  5  1  0        0
  5  6  2  0        0
  5  7  1  0        0
  3  8  4  0        0
  8  9  4  0        0
  9 10  4  0        0
  1 10  4  0        0
 10 11  1  0        0
 11 12  2  0        0
 11 13  2  0        0
 11 14  1  0        0
M  END
$$$$

CDXL12

 10 10  0  0  0  0  0  0  0  0999 V2000
   -1.0717    1.2375    0.0000 O   0  0  0  0  0  0  0  2  0  0  0  0
   -1.0717    0.4125    0.0000 N   0  0  0  0  0  0  0  2  0  0  0  0
   -1.7862   -0.0000    0.0000 O   0  0  0  0  0  0  0  2  0  0  0  0
   -0.3572   -0.0000    0.0000 C   0  0  0  0  0  0  0  2  0  0  0  0
   -0.3572   -0.8250    0.0000 C   0  0  0  0  0  0  0  2  0  0  0  0
    0.3572   -1.2375    0.0000 C   0  0  0  0  0  0  0  2  0  0  0  0
    1.0717   -0.8250    0.0000 C   0  0  0  0  0  0  0  2  0  0  0  0
    1.0717    0.0000    0.0000 C   0  0  0  0  0  0  0  2  0  0  0  0
    1.7862    0.4125    0.0000 Cl  0  0  0  0  0  0  0  2  0  0  0  0
    0.3572    0.4125    0.0000 C   0  0  0  0  0  0  0  2  0  0  0  0
  1  2  2  0        0
  2  3  2  0        0
  2  4  1  0        0
  4  5  4  0        0
  5  6  4  0        0
  6  7  4  0        0
  7  8  4  0        0
  8  9  1  0        0
  8 10  4  0        0
  4 10  4  0        0
M  END
$$$$

CDXL12

 19 18  0  0  0  0  0  0  0  0999 V2000
    3.2151   -1.0312    0.0000 C   0  0  0  0  0  0  0  2  0  0  0  0
    2.5006   -0.6187    0.0000 C   0  0  0  0  0  0  0  2  0  0  0  0
    1.7862   -1.0312    0.0000 O   0  0  0  0  0  0  0  2  0  0  0  0
    1.0717   -0.6187    0.0000 C   0  0  0  0  0  0  0  2  0  0  0  0
    1.0717    0.2063    0.0000 O   0  0  0  0  0  0  0  2  0  0  0  0
    0.3572   -1.0312    0.0000 C   0  0  0  0  0  0  0  2  0  0  0  0
   -0.3572   -0.6187    0.0000 C   0  0  0  0  0  0  0  2  0  0  0  0
   -1.0717   -1.0312    0.0000 S   0  0  0  0  0  0  0  2  0  0  0  0
   -1.7862   -0.6187    0.0000 P   0  0  0  0  0  0  0  2  0  0  0  0
   -1.7862    0.2063    0.0000 S   0  0  0  0  0  0  0  2  0  0  0  0
   -2.5006   -1.0312    0.0000 O   0  0  0  0  0  0  0  2  0  0  0  0
   -3.2151   -0.6187    0.0000 C   0  0  0  0  0  0  0  2  0  0  0  0
   -1.7862   -1.4437    0.0000 O   0  0  0  0  0  0  0  2  0  0  0  0
   -2.5006   -1.8562    0.0000 C   0  0  0  0  0  0  0  2  0  0  0  0
   -0.3572    0.2063    0.0000 C   0  0  0  0  0  0  0  2  0  0  0  0
    0.3572    0.6188    0.0000 O   0  0  0  0  0  0  0  2  0  0  0  0
   -1.0717    0.6188    0.0000 O   0  0  0  0  0  0  0  2  0  0  0  0
   -1.0717    1.4437    0.0000 C   0  0  0  0  0  0  0  2  0  0  0  0
   -1.7862    1.8562    0.0000 C   0  0  0  0  0  0  0  2  0  0  0  0
  1  2  1  0        0
  2  3  1  0        0
  3  4  1  0        0
  4  5  2  0        0
  4  6  1  0        0
  6  7  1  0        0
  7  8  1  0        0
  8  9  1  0        0
  9 10  2  0        0
  9 11  1  0        0
 11 12  1  0        0
  9 13  1  0        0
 13 14  1  0        0
  7 15  1  0        0
 15 16  2  0        0
 15 17  1  0        0
 17 18  1  0        0
 18 19  1  0        0
M  END
$$$$

CDXL12

 15 15  0  0  0  0  0  0  0  0999 V2000
    0.0000   -1.6500    0.0000 O   0  0  0  0  0  0  0  2  0  0  0  0
    0.0000   -0.8250    0.0000 C   0  0  0  0  0  0  0  2  0  0  0  0
    0.7145   -0.4125    0.0000 O   0  0  0  0  0  0  0  2  0  0  0  0
    1.4289   -0.8250    0.0000 C   0  0  0  0  0  0  0  2  0  0  0  0
    2.1434   -0.4125    0.0000 C   0  0  0  0  0  0  0  2  0  0  0  0
    2.8579   -0.8250    0.0000 C   0  0  0  0  0  0  0  2  0  0  0  0
   -0.7145   -0.4125    0.0000 C   0  0  0  0  0  0  0  2  0  0  0  0
   -1.4289   -0.8250    0.0000 C   0  0  0  0  0  0  0  2  0  0  0  0
   -2.1434   -0.4125    0.0000 C   0  0  0  0  0  0  0  2  0  0  0  0
   -2.8579   -0.8250    0.0000 O   0  0  0  0  0  0  0  2  0  0  0  0
   -2.1434    0.4125    0.0000 C   0  0  0  0  0  0  0  2  0  0  0  0
   -2.8579    0.8250    0.0000 O   0  0  0  0  0  0  0  2  0  0  0  0
   -1.4289    0.8250    0.0000 C   0  0  0  0  0  0  0  2  0  0  0  0
   -1.4289    1.6500    0.0000 O   0  0  0  0  0  0  0  2  0  0  0  0
   -0.7145    0.4125    0.0000 C   0  0  0  0  0  0  0  2  0  0  0  0
  1  2  2  0        0
  2  3  1  0        0
  3  4  1  0        0
  4  5  1  0        0
  5  6  1  0        0
  2  7  1  0        0
  7  8  4  0        0
  8  9  4  0        0
  9 10  1  0        0
  9 11  4  0        0
 11 12  1  0        0
 11 13  4  0        0
 13 14  1  0        0
 13 15  4  0        0
  7 15  4  0        0
M  END
$$$$

CDXL12

 15 15  0  0  0  0  0  0  0  0999 V2000
   -1.4289    1.8562    0.0000 O   0  0  0  0  0  0  0  2  0  0  0  0
   -1.4289    1.0312    0.0000 N   0  0  0  0  0  0  0  2  0  0  0  0
   -2.1434    0.6187    0.0000 O   0  0  0  0  0  0  0  2  0  0  0  0
   -0.7145    0.6187    0.0000 N   0  0  0  0  0  0  0  2  0  0  0  0
   -0.7145   -0.2063    0.0000 C   0  0  0  0  0  0  0  2  0  0  0  0
    0.0000   -0.6188    0.0000 N   0  0  0  0  0  0  0  2  0  0  0  0
    0.0000   -1.4437    0.0000 N   0  0  0  0  0  0  0  2  0  0  0  0
   -0.7145   -1.8562    0.0000 O   0  0  0  0  0  0  0  2  0  0  0  0
    0.7145   -1.8562    0.0000 O   0  0  0  0  0  0  0  2  0  0  0  0
    0.7145   -0.2063    0.0000 C   0  0  0  0  0  0  0  2  0  0  0  0
    0.7145    0.6187    0.0000 N   0  0  0  0  0  0  0  2  0  0  0  0
    1.4289    1.0312    0.0000 N   0  0  0  0  0  0  0  2  0  0  0  0
    1.4289    1.8562    0.0000 O   0  0  0  0  0  0  0  2  0  0  0  0
    2.1434    0.6187    0.0000 O   0  0  0  0  0  0  0  2  0  0  0  0
    0.0000    1.0312    0.0000 C   0  0  0  0  0  0  0  2  0  0  0  0
  1  2  2  0        0
  2  3  2  0        0
  2  4  1  0        0
  4  5  1  0        0
  5  6  1  0        0
  6  7  1  0        0
  7  8  2  0        0
  7  9  2  0        0
  6 10  1  0        0
 10 11  1  0        0
 11 12  1  0        0
 12 13  2  0        0
 12 14  2  0        0
 11 15  1  0        0
  4 15  1  0        0
M  END
$$$$

CDXL12

 12 12  0  0  0  0  0  0  0  0999 V2000
   -1.4289    1.2375    0.0000 O   0  0  0  0  0  0  0  2  0  0  0  0
   -1.4289    0.4125    0.0000 C   0  0  0  0  0  0  0  2  0  0  0  0
   -2.1434   -0.0000    0.0000 O   0  0  0  0  0  0  0  2  0  0  0  0
   -0.7145   -0.0000    0.0000 C   0  0  0  0  0  0  0  2  0  0  0  0
   -0.7145   -0.8250    0.0000 C   0  0  0  0  0  0  0  2  0  0  0  0
    0.0000   -1.2375    0.0000 C   0  0  0  0  0  0  0  2  0  0  0  0
    0.7145   -0.8250    0.0000 C   0  0  0  0  0  0  0  2  0  0  0  0
    0.7145   -0.0000    0.0000 C   0  0  0  0  0  0  0  2  0  0  0  0
    1.4289    0.4125    0.0000 C   0  0  0  0  0  0  0  2  0  0  0  0
    1.4289    1.2375    0.0000 O   0  0  0  0  0  0  0  2  0  0  0  0
    2.1434   -0.0000    0.0000 O   0  0  0  0  0  0  0  2  0  0  0  0
    0.0000    0.4125    0.0000 C   0  0  0  0  0  0  0  2  0  0  0  0
  1  2  2  0        0
  2  3  1  0        0
  2  4  1  0        0
  4  5  4  0        0
  5  6  4  0        0
  6  7  4  0        0
  7  8  4  0        0
  8  9  1  0        0
  9 10  2  0        0
  9 11  1  0        0
  8 12  4  0        0
  4 12  4  0        0
M  END
$$$$

CDXL12

 12 12  0  0  0  0  0  0  0  0999 V2000
    1.4289    1.2375    0.0000 O   0  0  0  0  0  0  0  2  0  0  0  0
    1.4289    0.4125    0.0000 C   0  0  0  0  0  0  0  2  0  0  0  0
    2.1434   -0.0000    0.0000 O   0  0  0  0  0  0  0  2  0  0  0  0
    0.7145   -0.0000    0.0000 C   0  0  0  0  0  0  0  2  0  0  0  0
    0.7145   -0.8250    0.0000 C   0  0  0  0  0  0  0  2  0  0  0  0
    0.0000   -1.2375    0.0000 C   0  0  0  0  0  0  0  2  0  0  0  0
   -0.7145   -0.8250    0.0000 C   0  0  0  0  0  0  0  2  0  0  0  0
   -0.7145   -0.0000    0.0000 C   0  0  0  0  0  0  0  2  0  0  0  0
   -1.4289    0.4125    0.0000 N   0  0  0  0  0  0  0  2  0  0  0  0
   -1.4289    1.2375    0.0000 O   0  0  0  0  0  0  0  2  0  0  0  0
   -2.1434   -0.0000    0.0000 O   0  0  0  0  0  0  0  2  0  0  0  0
    0.0000    0.4125    0.0000 C   0  0  0  0  0  0  0  2  0  0  0  0
  1  2  2  0        0
  2  3  1  0        0
  2  4  1  0        0
  4  5  4  0        0
  5  6  4  0        0
  6  7  4  0        0
  7  8  4  0        0
  8  9  1  0        0
  9 10  2  0        0
  9 11  2  0        0
  8 12  4  0        0
  4 12  4  0        0
M  END
$$$$

CDXL12

 21 22  0  0  0  0  0  0  0  0999 V2000
    2.1434    0.8803    0.0000 C   0  0  0  0  0  0  0  2  0  0  0  0
    2.8579    0.4678    0.0000 C   0  0  0  0  0  0  0  2  0  0  0  0
    2.8579   -0.3572    0.0000 C   0  0  0  0  0  0  0  2  0  0  0  0
    3.5724   -0.7697    0.0000 N   0  0  0  0  0  0  0  2  0  0  0  0
    2.1434   -0.7697    0.0000 C   0  0  0  0  0  0  0  2  0  0  0  0
    1.4289   -0.3572    0.0000 C   0  0  0  0  0  0  0  2  0  0  0  0
    1.4289    0.4678    0.0000 C   0  0  0  0  0  0  0  2  0  0  0  0
    0.7145    0.8803    0.0000 S   0  0  0  0  0  0  0  2  0  0  0  0
    0.3020    0.1658    0.0000 O   0  0  0  0  0  0  0  2  0  0  0  0
    1.1270    1.5947    0.0000 O   0  0  0  0  0  0  0  2  0  0  0  0
   -0.0000    1.2928    0.0000 N   0  0  0  0  0  0  0  2  0  0  0  0
   -0.7145    0.8803    0.0000 C   0  0  0  0  0  0  0  2  0  0  0  0
   -0.7145    0.0553    0.0000 N   0  0  0  0  0  0  0  2  0  0  0  0
   -1.4289   -0.3572    0.0000 C   0  0  0  0  0  0  0  2  0  0  0  0
   -1.4289   -1.1822    0.0000 O   0  0  0  0  0  0  0  2  0  0  0  0
   -2.1434   -1.5947    0.0000 C   0  0  0  0  0  0  0  2  0  0  0  0
   -2.1434    0.0553    0.0000 N   0  0  0  0  0  0  0  2  0  0  0  0
   -2.1434    0.8803    0.0000 C   0  0  0  0  0  0  0  2  0  0  0  0
   -2.8579    1.2928    0.0000 O   0  0  0  0  0  0  0  2  0  0  0  0
   -3.5724    0.8803    0.0000 C   0  0  0  0  0  0  0  2  0  0  0  0
   -1.4289    1.2928    0.0000 C   0  0  0  0  0  0  0  2  0  0  0  0
  1  2  4  0        0
  2  3  4  0        0
  3  4  1  0        0
  3  5  4  0        0
  5  6  4  0        0
  6  7  4  0        0
  1  7  4  0        0
  7  8  1  0        0
  8  9  2  0        0
  8 10  2  0        0
  8 11  1  0        0
 11 12  1  0        0
 12 13  4  0        0
 13 14  4  0        0
 14 15  1  0        0
 15 16  1  0        0
 14 17  4  0        0
 17 18  4  0        0
 18 19  1  0        0
 19 20  1  0        0
 18 21  4  0        0
 12 21  4  0        0
M  END
$$$$

CDXL12

 13 13  0  0  0  0  0  0  0  0999 V2000
   -1.7862    0.8250    0.0000 O   0  0  0  0  0  0  0  2  0  0  0  0
   -1.7862    0.0000    0.0000 C   0  0  0  0  0  0  0  2  0  0  0  0
   -1.0717   -0.4125    0.0000 N   0  0  0  0  0  0  0  2  0  0  0  0
   -0.3572    0.0000    0.0000 C   0  0  0  0  0  0  0  2  0  0  0  0
   -0.3572    0.8250    0.0000 C   0  0  0  0  0  0  0  2  0  0  0  0
    0.3572    1.2375    0.0000 C   0  0  0  0  0  0  0  2  0  0  0  0
    1.0717    0.8250    0.0000 C   0  0  0  0  0  0  0  2  0  0  0  0
    1.0717   -0.0000    0.0000 C   0  0  0  0  0  0  0  2  0  0  0  0
    1.7862   -0.4125    0.0000 N   0  0  0  0  0  0  0  2  0  0  0  0
    1.7862   -1.2375    0.0000 O   0  0  0  0  0  0  0  2  0  0  0  0
    2.5006   -0.0000    0.0000 O   0  0  0  0  0  0  0  2  0  0  0  0
    0.3572   -0.4125    0.0000 C   0  0  0  0  0  0  0  2  0  0  0  0
   -2.5006   -0.4125    0.0000 C   0  0  0  0  0  0  0  2  0  0  0  0
  1  2  2  0        0
  2  3  1  0        0
  3  4  1  0        0
  4  5  4  0        0
  5  6  4  0        0
  6  7  4  0        0
  7  8  4  0        0
  8  9  1  0        0
  9 10  2  0        0
  9 11  2  0        0
  8 12  4  0        0
  4 12  4  0        0
  2 13  1  0        0
M  END
$$$$

CDXL12

 13 13  0  0  0  0  0  0  0  0999 V2000
   -0.7145   -0.0000    0.0000 N   0  0  0  0  0  0  0  2  0  0  0  0
   -0.7145   -0.8250    0.0000 C   0  0  0  0  0  0  0  2  0  0  0  0
    0.0000   -1.2375    0.0000 N   0  0  0  0  0  0  0  2  0  0  0  0
    0.7145   -0.8250    0.0000 C   0  0  0  0  0  0  0  2  0  0  0  0
    0.7145   -0.0000    0.0000 N   0  0  0  0  0  0  0  2  0  0  0  0
    0.0000    0.4125    0.0000 C   0  0  0  0  0  0  0  2  0  0  0  0
    0.0000    1.2375    0.0000 Cl  0  0  0  0  0  0  0  2  0  0  0  0
    1.4289   -1.2375    0.0000 N   0  0  0  0  0  0  0  2  0  0  0  0
    2.1434   -0.8250    0.0000 C   0  0  0  0  0  0  0  2  0  0  0  0
    2.8579   -1.2375    0.0000 C   0  0  0  0  0  0  0  2  0  0  0  0
   -1.4289   -1.2375    0.0000 N   0  0  0  0  0  0  0  2  0  0  0  0
   -2.1434   -0.8250    0.0000 C   0  0  0  0  0  0  0  2  0  0  0  0
   -2.8579   -1.2375    0.0000 C   0  0  0  0  0  0  0  2  0  0  0  0
  1  2  4  0        0
  2  3  4  0        0
  3  4  4  0        0
  4  5  4  0        0
  5  6  4  0        0
  1  6  4  0        0
  6  7  1  0        0
  4  8  1  0        0
  8  9  1  0        0
  9 10  1  0        0
  2 11  1  0        0
 11 12  1  0        0
 12 13  1  0        0
M  END
$$$$

CDXL12

 13 14  0  0  0  0  0  0  0  0999 V2000
    0.0000    0.8250    0.0000 N   0  0  0  0  0  0  0  2  0  0  0  0
   -0.7145    0.4125    0.0000 C   0  0  0  0  0  0  0  2  0  0  0  0
   -0.7145   -0.4125    0.0000 C   0  0  0  0  0  0  0  2  0  0  0  0
   -1.4289   -0.8250    0.0000 C   0  0  0  0  0  0  0  2  0  0  0  0
   -2.1434   -0.4125    0.0000 C   0  0  0  0  0  0  0  2  0  0  0  0
   -2.1434    0.4125    0.0000 C   0  0  0  0  0  0  0  2  0  0  0  0
   -1.4289    0.8250    0.0000 C   0  0  0  0  0  0  0  2  0  0  0  0
    0.7145    0.4125    0.0000 C   0  0  0  0  0  0  0  2  0  0  0  0
    1.4289    0.8250    0.0000 C   0  0  0  0  0  0  0  2  0  0  0  0
    2.1434    0.4125    0.0000 C   0  0  0  0  0  0  0  2  0  0  0  0
    2.1434   -0.4125    0.0000 C   0  0  0  0  0  0  0  2  0  0  0  0
    1.4289   -0.8250    0.0000 C   0  0  0  0  0  0  0  2  0  0  0  0
    0.7145   -0.4125    0.0000 C   0  0  0  0  0  0  0  2  0  0  0  0
  1  2  1  0        0
  2  3  4  0        0
  3  4  4  0        0
  4  5  4  0        0
  5  6  4  0        0
  6  7  4  0        0
  2  7  4  0        0
  1  8  1  0        0
  8  9  4  0        0
  9 10  4  0        0
 10 11  4  0        0
 11 12  4  0        0
 12 13  4  0        0
  8 13  4  0        0
M  END
$$$$

CDXL12

 11 11  0  0  0  0  0  0  0  0999 V2000
    1.4289    1.2375    0.0000 O   0  0  0  0  0  0  0  2  0  0  0  0
    1.4289    0.4125    0.0000 C   0  0  0  0  0  0  0  2  0  0  0  0
    2.1434    0.0000    0.0000 O   0  0  0  0  0  0  0  2  0  0  0  0
    0.7145    0.0000    0.0000 C   0  0  0  0  0  0  0  2  0  0  0  0
    0.0000    0.4125    0.0000 O   0  0  0  0  0  0  0  2  0  0  0  0
   -0.7145    0.0000    0.0000 C   0  0  0  0  0  0  0  2  0  0  0  0
   -0.7145   -0.8250    0.0000 C   0  0  0  0  0  0  0  2  0  0  0  0
   -1.4289   -1.2375    0.0000 C   0  0  0  0  0  0  0  2  0  0  0  0
   -2.1434   -0.8250    0.0000 C   0  0  0  0  0  0  0  2  0  0  0  0
   -2.1434   -0.0000    0.0000 C   0  0  0  0  0  0  0  2  0  0  0  0
   -1.4289    0.4125    0.0000 C   0  0  0  0  0  0  0  2  0  0  0  0
  1  2  2  0        0
  2  3  1  0        0
  2  4  1  0        0
  4  5  1  0        0
  5  6  1  0        0
  6  7  4  0        0
  7  8  4  0        0
  8  9  4  0        0
  9 10  4  0        0
 10 11  4  0        0
  6 11  4  0        0
M  END
$$$$

CDXL12

 11 12  0  0  0  0  0  0  0  0999 V2000
    2.1987    0.4678    0.0000 O   0  0  0  0  0  0  0  2  0  0  0  0
    1.3737    0.4678    0.0000 C   0  0  0  0  0  0  0  2  0  0  0  0
    0.6592    0.0553    0.0000 C   0  0  0  0  0  0  0  2  0  0  0  0
   -0.0553    0.4678    0.0000 O   0  0  0  0  0  0  0  2  0  0  0  0
   -0.7697    0.0553    0.0000 C   0  0  0  0  0  0  0  2  0  0  0  0
   -0.7697   -0.7697    0.0000 C   0  0  0  0  0  0  0  2  0  0  0  0
   -1.4842   -1.1822    0.0000 C   0  0  0  0  0  0  0  2  0  0  0  0
   -2.1987   -0.7697    0.0000 C   0  0  0  0  0  0  0  2  0  0  0  0
   -2.1987    0.0553    0.0000 C   0  0  0  0  0  0  0  2  0  0  0  0
   -1.4842    0.4678    0.0000 C   0  0  0  0  0  0  0  2  0  0  0  0
    1.7862    1.1822    0.0000 C   0  0  0  0  0  0  0  2  0  0  0  0
  1  2  1  0        0
  2  3  1  0        0
  3  4  1  0        0
  4  5  1  0        0
  5  6  4  0        0
  6  7  4  0        0
  7  8  4  0        0
  8  9  4  0        0
  9 10  4  0        0
  5 10  4  0        0
  2 11  1  0        0
  1 11  1  0        0
M  END
$$$$

CDXL12

 14 15  0  0  0  0  0  0  0  0999 V2000
    0.3572   -0.2063    0.0000 N   0  0  0  0  0  0  0  2  0  0  0  0
   -0.3572    0.2062    0.0000 N   0  0  0  0  0  0  0  2  0  0  0  0
   -1.0717   -0.2063    0.0000 C   0  0  0  0  0  0  0  2  0  0  0  0
   -1.0717   -1.0313    0.0000 C   0  0  0  0  0  0  0  2  0  0  0  0
   -1.7862   -1.4437    0.0000 C   0  0  0  0  0  0  0  2  0  0  0  0
   -2.5006   -1.0313    0.0000 C   0  0  0  0  0  0  0  2  0  0  0  0
   -2.5006   -0.2063    0.0000 C   0  0  0  0  0  0  0  2  0  0  0  0
   -1.7862    0.2062    0.0000 C   0  0  0  0  0  0  0  2  0  0  0  0
    1.0717    0.2062    0.0000 C   0  0  0  0  0  0  0  2  0  0  0  0
    1.0717    1.0312    0.0000 C   0  0  0  0  0  0  0  2  0  0  0  0
    1.7862    1.4437    0.0000 C   0  0  0  0  0  0  0  2  0  0  0  0
    2.5006    1.0312    0.0000 C   0  0  0  0  0  0  0  2  0  0  0  0
    2.5006    0.2062    0.0000 C   0  0  0  0  0  0  0  2  0  0  0  0
    1.7862   -0.2063    0.0000 C   0  0  0  0  0  0  0  2  0  0  0  0
  1  2  1  0        0
  2  3  1  0        0
  3  4  4  0        0
  4  5  4  0        0
  5  6  4  0        0
  6  7  4  0        0
  7  8  4  0        0
  3  8  4  0        0
  1  9  1  0        0
  9 10  4  0        0
 10 11  4  0        0
 11 12  4  0        0
 12 13  4  0        0
 13 14  4  0        0
  9 14  4  0        0
M  END
$$$$

CDXL12

 12 12  0  0  0  0  0  0  0  0999 V2000
    1.7862    1.2375    0.0000 O   0  0  0  0  0  0  0  2  0  0  0  0
    1.7862    0.4125    0.0000 C   0  0  0  0  0  0  0  2  0  0  0  0
    2.5006    0.0000    0.0000 O   0  0  0  0  0  0  0  2  0  0  0  0
    1.0717    0.0000    0.0000 C   0  0  0  0  0  0  0  2  0  0  0  0
    0.3572    0.4125    0.0000 O   0  0  0  0  0  0  0  2  0  0  0  0
   -0.3572    0.0000    0.0000 C   0  0  0  0  0  0  0  2  0  0  0  0
   -0.3572   -0.8250    0.0000 C   0  0  0  0  0  0  0  2  0  0  0  0
   -1.0717   -1.2375    0.0000 C   0  0  0  0  0  0  0  2  0  0  0  0
   -1.7862   -0.8250    0.0000 C   0  0  0  0  0  0  0  2  0  0  0  0
   -1.7862   -0.0000    0.0000 C   0  0  0  0  0  0  0  2  0  0  0  0
   -1.0717    0.4125    0.0000 C   0  0  0  0  0  0  0  2  0  0  0  0
   -2.5006   -1.2375    0.0000 Cl  0  0  0  0  0  0  0  2  0  0  0  0
  1  2  2  0        0
  2  3  1  0        0
  2  4  1  0        0
  4  5  1  0        0
  5  6  1  0        0
  6  7  4  0        0
  7  8  4  0        0
  8  9  4  0        0
  9 10  4  0        0
 10 11  4  0        0
  6 11  4  0        0
  9 12  1  0        0
M  END
$$$$

CDXL12

 10 10  0  0  0  0  0  0  0  0999 V2000
    2.1434   -0.4125    0.0000 O   0  0  0  0  0  0  0  2  0  0  0  0
    1.4289   -0.8250    0.0000 C   0  0  0  0  0  0  0  2  0  0  0  0
    0.7145   -0.4125    0.0000 C   0  0  0  0  0  0  0  2  0  0  0  0
    0.0000   -0.8250    0.0000 C   0  0  0  0  0  0  0  2  0  0  0  0
   -0.7145   -0.4125    0.0000 C   0  0  0  0  0  0  0  2  0  0  0  0
   -1.4289   -0.8250    0.0000 C   0  0  0  0  0  0  0  2  0  0  0  0
   -2.1434   -0.4125    0.0000 C   0  0  0  0  0  0  0  2  0  0  0  0
   -2.1434    0.4125    0.0000 C   0  0  0  0  0  0  0  2  0  0  0  0
   -1.4289    0.8250    0.0000 C   0  0  0  0  0  0  0  2  0  0  0  0
   -0.7145    0.4125    0.0000 C   0  0  0  0  0  0  0  2  0  0  0  0
  1  2  1  0        0
  2  3  1  0        0
  3  4  1  0        0
  4  5  1  0        0
  5  6  4  0        0
  6  7  4  0        0
  7  8  4  0        0
  8  9  4  0        0
  9 10  4  0        0
  5 10  4  0        0
M  END
$$$$

CDXL12

 10 10  0  0  0  0  0  0  0  0999 V2000
    0.0000   -0.8250    0.0000 O   0  0  0  0  0  0  0  2  0  0  0  0
    0.7145   -0.4125    0.0000 C   0  0  0  0  0  0  0  2  0  0  0  0
    0.7145    0.4125    0.0000 C   0  0  0  0  0  0  0  2  0  0  0  0
    1.4289    0.8250    0.0000 C   0  0  0  0  0  0  0  2  0  0  0  0
    2.1434    0.4125    0.0000 C   0  0  0  0  0  0  0  2  0  0  0  0
    2.1434   -0.4125    0.0000 C   0  0  0  0  0  0  0  2  0  0  0  0
    1.4289   -0.8250    0.0000 C   0  0  0  0  0  0  0  2  0  0  0  0
   -0.7145   -0.4125    0.0000 C   0  0  0  0  0  0  0  2  0  0  0  0
   -1.4289   -0.8250    0.0000 C   0  0  0  0  0  0  0  2  0  0  0  0
   -2.1434   -0.4125    0.0000 O   0  0  0  0  0  0  0  2  0  0  0  0
  1  2  1  0        0
  2  3  4  0        0
  3  4  4  0        0
  4  5  4  0        0
  5  6  4  0        0
  6  7  4  0        0
  2  7  4  0        0
  1  8  1  0        0
  8  9  1  0        0
  9 10  1  0        0
M  END
$$$$

CDXL12

  9  8  0  0  0  0  0  0  0  0999 V2000
    2.1434   -0.4125    0.0000 Cl  0  0  0  0  0  0  0  2  0  0  0  0
    1.4289   -0.8250    0.0000 C   0  0  0  0  0  0  0  2  0  0  0  0
    0.7145   -0.4125    0.0000 C   0  0  0  0  0  0  0  2  0  0  0  0
    0.0000   -0.8250    0.0000 C   0  0  0  0  0  0  0  2  0  0  0  0
   -0.7145   -0.4125    0.0000 C   0  0  0  0  0  0  0  2  0  0  0  0
   -1.4289   -0.8250    0.0000 C   0  0  0  0  0  0  0  2  0  0  0  0
   -2.1434   -0.4125    0.0000 C   0  0  0  0  0  0  0  2  0  0  0  0
    0.7145    0.4125    0.0000 C   0  0  0  0  0  0  0  2  0  0  0  0
    1.4289    0.8250    0.0000 C   0  0  0  0  0  0  0  2  0  0  0  0
  1  2  1  0        0
  2  3  1  0        0
  3  4  1  0        0
  4  5  1  0        0
  5  6  1  0        0
  6  7  1  0        0
  3  8  1  0        0
  8  9  1  0        0
M  END
$$$$

CDXL12

  9  8  0  0  0  0  0  0  0  0999 V2000
    2.1434   -0.4125    0.0000 O   0  0  0  0  0  0  0  2  0  0  0  0
    1.4289   -0.8250    0.0000 C   0  0  0  0  0  0  0  2  0  0  0  0
    0.7145   -0.4125    0.0000 C   0  0  0  0  0  0  0  2  0  0  0  0
    0.0000   -0.8250    0.0000 C   0  0  0  0  0  0  0  2  0  0  0  0
   -0.7145   -0.4125    0.0000 C   0  0  0  0  0  0  0  2  0  0  0  0
   -1.4289   -0.8250    0.0000 C   0  0  0  0  0  0  0  2  0  0  0  0
   -2.1434   -0.4125    0.0000 C   0  0  0  0  0  0  0  2  0  0  0  0
    0.7145    0.4125    0.0000 C   0  0  0  0  0  0  0  2  0  0  0  0
    1.4289    0.8250    0.0000 C   0  0  0  0  0  0  0  2  0  0  0  0
  1  2  2  0        0
  2  3  1  0        0
  3  4  1  0        0
  4  5  1  0        0
  5  6  1  0        0
  6  7  1  0        0
  3  8  1  0        0
  8  9  1  0        0
M  END
$$$$

CDXL12

  9  9  0  0  0  0  0  0  0  0999 V2000
   -1.7862    0.8250    0.0000 O   0  0  0  0  0  0  0  2  0  0  0  0
   -1.0717    0.4125    0.0000 C   0  0  0  0  0  0  0  2  0  0  0  0
   -0.3572    0.8250    0.0000 C   0  0  0  0  0  0  0  2  0  0  0  0
    0.3572    0.4125    0.0000 C   0  0  0  0  0  0  0  2  0  0  0  0
    0.3572   -0.4125    0.0000 C   0  0  0  0  0  0  0  2  0  0  0  0
   -0.3572   -0.8250    0.0000 C   0  0  0  0  0  0  0  2  0  0  0  0
   -1.0717   -0.4125    0.0000 C   0  0  0  0  0  0  0  2  0  0  0  0
    1.0717   -0.8250    0.0000 C   0  0  0  0  0  0  0  2  0  0  0  0
    1.7862   -0.4125    0.0000 C   0  0  0  0  0  0  0  2  0  0  0  0
  1  2  1  0        0
  2  3  4  0        0
  3  4  4  0        0
  4  5  4  0        0
  5  6  4  0        0
  6  7  4  0        0
  2  7  4  0        0
  5  8  1  0        0
  8  9  1  0        0
M  END
$$$$

CDXL12

 10 10  0  0  0  0  0  0  0  0999 V2000
    2.1434   -0.4125    0.0000 O   0  0  0  0  0  0  0  2  0  0  0  0
    1.4289   -0.8250    0.0000 C   0  0  0  0  0  0  0  2  0  0  0  0
    0.7145   -0.4125    0.0000 C   0  0  0  0  0  0  0  2  0  0  0  0
    0.0000   -0.8250    0.0000 C   0  0  0  0  0  0  0  2  0  0  0  0
   -0.7145   -0.4125    0.0000 C   0  0  0  0  0  0  0  2  0  0  0  0
   -0.7145    0.4125    0.0000 C   0  0  0  0  0  0  0  2  0  0  0  0
   -1.4289    0.8250    0.0000 O   0  0  0  0  0  0  0  2  0  0  0  0
   -2.1434    0.4125    0.0000 C   0  0  0  0  0  0  0  2  0  0  0  0
    0.0000    0.8250    0.0000 C   0  0  0  0  0  0  0  2  0  0  0  0
    0.7145    0.4125    0.0000 C   0  0  0  0  0  0  0  2  0  0  0  0
  1  2  2  0        0
  2  3  1  0        0
  3  4  4  0        0
  4  5  4  0        0
  5  6  4  0        0
  6  7  1  0        0
  7  8  1  0        0
  6  9  4  0        0
  9 10  4  0        0
  3 10  4  0        0
M  END
$$$$

CDXL12

  7  6  0  0  0  0  0  0  0  0999 V2000
    1.7862   -0.2062    0.0000 O   0  0  0  0  0  0  0  2  0  0  0  0
    1.0717   -0.6187    0.0000 C   0  0  0  0  0  0  0  2  0  0  0  0
    0.3572   -0.2062    0.0000 C   0  0  0  0  0  0  0  2  0  0  0  0
   -0.3572   -0.6187    0.0000 C   0  0  0  0  0  0  0  2  0  0  0  0
   -1.0717   -0.2062    0.0000 C   0  0  0  0  0  0  0  2  0  0  0  0
   -1.7862   -0.6187    0.0000 C   0  0  0  0  0  0  0  2  0  0  0  0
    0.3572    0.6187    0.0000 C   0  0  0  0  0  0  0  2  0  0  0  0
  1  2  2  0        0
  2  3  1  0        0
  3  4  1  0        0
  4  5  1  0        0
  5  6  1  0        0
  3  7  1  0        0
M  END
$$$$

CDXL12

 12 11  0  0  0  0  0  0  0  0999 V2000
    1.0717   -1.0312    0.0000 O   0  0  0  0  0  0  0  2  0  0  0  0
    1.0717   -0.2062    0.0000 C   0  0  0  0  0  0  0  2  0  0  0  0
    1.7862    0.2063    0.0000 O   0  0  0  0  0  0  0  2  0  0  0  0
    2.5006   -0.2062    0.0000 C   0  0  0  0  0  0  0  2  0  0  0  0
    3.2151    0.2062    0.0000 C   0  0  0  0  0  0  0  2  0  0  0  0
    0.3572    0.2062    0.0000 C   0  0  0  0  0  0  0  2  0  0  0  0
   -0.3572   -0.2062    0.0000 C   0  0  0  0  0  0  0  2  0  0  0  0
   -1.0717    0.2062    0.0000 C   0  0  0  0  0  0  0  2  0  0  0  0
   -1.0717    1.0312    0.0000 O   0  0  0  0  0  0  0  2  0  0  0  0
   -1.7862   -0.2062    0.0000 O   0  0  0  0  0  0  0  2  0  0  0  0
   -2.5006    0.2062    0.0000 C   0  0  0  0  0  0  0  2  0  0  0  0
   -3.2151   -0.2062    0.0000 C   0  0  0  0  0  0  0  2  0  0  0  0
  1  2  2  0        0
  2  3  1  0        0
  3  4  1  0        0
  4  5  1  0        0
  2  6  1  0        0
  6  7  1  0        0
  7  8  1  0        0
  8  9  2  0        0
  8 10  1  0        0
 10 11  1  0        0
 11 12  1  0        0
M  END
$$$$

CDXL12

 13 12  0  0  0  0  0  0  0  0999 V2000
    1.7862    0.6187    0.0000 O   0  0  0  0  0  0  0  2  0  0  0  0
    1.7862   -0.2062    0.0000 C   0  0  0  0  0  0  0  2  0  0  0  0
    2.5006   -0.6187    0.0000 O   0  0  0  0  0  0  0  2  0  0  0  0
    3.2151   -0.2062    0.0000 C   0  0  0  0  0  0  0  2  0  0  0  0
    3.9296   -0.6187    0.0000 C   0  0  0  0  0  0  0  2  0  0  0  0
    1.0717   -0.6187    0.0000 C   0  0  0  0  0  0  0  2  0  0  0  0
    0.3572   -0.2062    0.0000 C   0  0  0  0  0  0  0  2  0  0  0  0
   -0.3572   -0.6187    0.0000 C   0  0  0  0  0  0  0  2  0  0  0  0
   -1.0717   -0.2062    0.0000 C   0  0  0  0  0  0  0  2  0  0  0  0
   -1.7862   -0.6187    0.0000 C   0  0  0  0  0  0  0  2  0  0  0  0
   -2.5006   -0.2062    0.0000 C   0  0  0  0  0  0  0  2  0  0  0  0
   -3.2151   -0.6187    0.0000 C   0  0  0  0  0  0  0  2  0  0  0  0
   -3.9296   -0.2062    0.0000 C   0  0  0  0  0  0  0  2  0  0  0  0
  1  2  2  0        0
  2  3  1  0        0
  3  4  1  0        0
  4  5  1  0        0
  2  6  1  0        0
  6  7  1  0        0
  7  8  1  0        0
  8  9  1  0        0
  9 10  1  0        0
 10 11  1  0        0
 11 12  1  0        0
 12 13  1  0        0
M  END
$$$$

CDXL12

  8  8  0  0  0  0  0  0  0  0999 V2000
    1.4289    0.8250    0.0000 O   0  0  0  0  0  0  0  2  0  0  0  0
    0.7145    0.4125    0.0000 C   0  0  0  0  0  0  0  2  0  0  0  0
    0.7145   -0.4125    0.0000 C   0  0  0  0  0  0  0  2  0  0  0  0
    0.0000   -0.8250    0.0000 C   0  0  0  0  0  0  0  2  0  0  0  0
   -0.7145   -0.4125    0.0000 C   0  0  0  0  0  0  0  2  0  0  0  0
   -1.4289   -0.8250    0.0000 N   0  0  0  0  0  0  0  2  0  0  0  0
   -0.7145    0.4125    0.0000 C   0  0  0  0  0  0  0  2  0  0  0  0
    0.0000    0.8250    0.0000 C   0  0  0  0  0  0  0  2  0  0  0  0
  1  2  1  0        0
  2  3  4  0        0
  3  4  4  0        0
  4  5  4  0        0
  5  6  1  0        0
  5  7  4  0        0
  7  8  4  0        0
  2  8  4  0        0
M  END
$$$$

CDXL12

  8  8  0  0  0  0  0  0  0  0999 V2000
    1.4289    0.8250    0.0000 O   0  0  0  0  0  0  0  2  0  0  0  0
    0.7145    0.4125    0.0000 C   0  0  0  0  0  0  0  2  0  0  0  0
    0.7145   -0.4125    0.0000 C   0  0  0  0  0  0  0  2  0  0  0  0
    0.0000   -0.8250    0.0000 C   0  0  0  0  0  0  0  2  0  0  0  0
   -0.7145   -0.4125    0.0000 C   0  0  0  0  0  0  0  2  0  0  0  0
   -1.4289   -0.8250    0.0000 O   0  0  0  0  0  0  0  2  0  0  0  0
   -0.7145    0.4125    0.0000 C   0  0  0  0  0  0  0  2  0  0  0  0
    0.0000    0.8250    0.0000 C   0  0  0  0  0  0  0  2  0  0  0  0
  1  2  1  0        0
  2  3  4  0        0
  3  4  4  0        0
  4  5  4  0        0
  5  6  1  0        0
  5  7  4  0        0
  7  8  4  0        0
  2  8  4  0        0
M  END
$$$$

CDXL12

  8  8  0  0  0  0  0  0  0  0999 V2000
    0.7145   -0.4125    0.0000 C   0  0  0  0  0  0  0  2  0  0  0  0
    0.0000   -0.8250    0.0000 C   0  0  0  0  0  0  0  2  0  0  0  0
   -0.7145   -0.4125    0.0000 C   0  0  0  0  0  0  0  2  0  0  0  0
   -1.4289   -0.8250    0.0000 O   0  0  0  0  0  0  0  2  0  0  0  0
   -0.7145    0.4125    0.0000 N   0  0  0  0  0  0  0  2  0  0  0  0
    0.0000    0.8250    0.0000 N   0  0  0  0  0  0  0  2  0  0  0  0
    0.7145    0.4125    0.0000 C   0  0  0  0  0  0  0  2  0  0  0  0
    1.4289    0.8250    0.0000 O   0  0  0  0  0  0  0  2  0  0  0  0
  1  2  4  0        0
  2  3  4  0        0
  3  4  1  0        0
  3  5  4  0        0
  5  6  4  0        0
  6  7  4  0        0
  1  7  4  0        0
  7  8  1  0        0
M  END
$$$$

CDXL12

 10  9  0  0  0  0  0  0  0  0999 V2000
    1.0717   -0.2062    0.0000 C   0  0  0  0  0  0  0  2  0  0  0  0
    1.7862   -0.6188    0.0000 C   0  0  0  0  0  0  0  2  0  0  0  0
    2.5006   -0.2062    0.0000 C   0  0  0  0  0  0  0  2  0  0  0  0
    1.0717    0.6187    0.0000 C   0  0  0  0  0  0  0  2  0  0  0  0
    0.3572   -0.6188    0.0000 C   0  0  0  0  0  0  0  2  0  0  0  0
   -0.3572   -0.2062    0.0000 C   0  0  0  0  0  0  0  2  0  0  0  0
   -1.0717   -0.6188    0.0000 C   0  0  0  0  0  0  0  2  0  0  0  0
   -1.7862   -0.2062    0.0000 C   0  0  0  0  0  0  0  2  0  0  0  0
   -2.5006   -0.6187    0.0000 C   0  0  0  0  0  0  0  2  0  0  0  0
   -1.7862    0.6188    0.0000 C   0  0  0  0  0  0  0  2  0  0  0  0
  1  2  1  0        0
  2  3  2  0        0
  1  4  2  0        0
  1  5  1  0        0
  5  6  1  0        0
  6  7  1  0        0
  7  8  2  0        0
  8  9  1  0        0
  8 10  1  0        0
M  END
$$$$

CDXL12

  4  3  0  0  0  0  0  0  0  0999 V2000
   -1.0717    0.2062    0.0000 O   0  0  0  0  0  0  0  2  0  0  0  0
   -0.3572   -0.2062    0.0000 C   0  0  0  0  0  0  0  2  0  0  0  0
    0.3572    0.2062    0.0000 C   0  0  0  0  0  0  0  2  0  0  0  0
    1.0717   -0.2062    0.0000 C   0  0  0  0  0  0  0  2  0  0  0  0
  1  2  2  0        0
  2  3  1  0        0
  3  4  1  0        0
M  END
$$$$

CDXL12

  4  3  0  0  0  0  0  0  0  0999 V2000
   -1.0717    0.2062    0.0000 O   0  0  0  0  0  0  0  2  0  0  0  0
   -0.3572   -0.2062    0.0000 C   0  0  0  0  0  0  0  2  0  0  0  0
    0.3572    0.2062    0.0000 N   0  0  0  0  0  0  0  2  0  0  0  0
    1.0717   -0.2062    0.0000 C   0  0  0  0  0  0  0  2  0  0  0  0
  1  2  2  0        0
  2  3  1  0        0
  3  4  1  0        0
M  END
$$$$

CDXL12

  8  7  0  0  0  0  0  0  0  0999 V2000
    0.7145    0.6188    0.0000 O   0  0  0  0  0  0  0  2  0  0  0  0
    0.7145   -0.2062    0.0000 C   0  0  0  0  0  0  0  2  0  0  0  0
    0.0000   -0.6188    0.0000 C   0  0  0  0  0  0  0  2  0  0  0  0
   -0.7145   -0.2063    0.0000 C   0  0  0  0  0  0  0  2  0  0  0  0
   -1.4289    0.2062    0.0000 O   0  0  0  0  0  0  0  2  0  0  0  0
   -1.4289   -0.6188    0.0000 C   0  0  0  0  0  0  0  2  0  0  0  0
   -0.7145    0.6188    0.0000 C   0  0  0  0  0  0  0  2  0  0  0  0
    1.4289   -0.6188    0.0000 C   0  0  0  0  0  0  0  2  0  0  0  0
  1  2  2  0        0
  2  3  1  0        0
  3  4  1  0        0
  4  5  1  0        0
  4  6  1  0        0
  4  7  1  0        0
  2  8  1  0        0
M  END
$$$$

CDXL12

  6  5  0  0  0  0  0  0  0  0999 V2000
   -1.4289   -0.6187    0.0000 O   0  0  0  0  0  0  0  2  0  0  0  0
   -0.7145   -0.2062    0.0000 C   0  0  0  0  0  0  0  2  0  0  0  0
    0.0000   -0.6187    0.0000 C   0  0  0  0  0  0  0  2  0  0  0  0
    0.7145   -0.2062    0.0000 C   0  0  0  0  0  0  0  2  0  0  0  0
    0.7145    0.6187    0.0000 C   0  0  0  0  0  0  0  2  0  0  0  0
    1.4289   -0.6187    0.0000 C   0  0  0  0  0  0  0  2  0  0  0  0
  1  2  1  0        0
  2  3  1  0        0
  3  4  1  0        0
  4  5  1  0        0
  4  6  1  0        0
M  END
$$$$

CDXL12

  7  6  0  0  0  0  0  0  0  0999 V2000
    0.7145    0.6187    0.0000 O   0  0  0  0  0  0  0  2  0  0  0  0
    0.7145   -0.2062    0.0000 C   0  0  0  0  0  0  0  2  0  0  0  0
    0.0000   -0.6188    0.0000 C   0  0  0  0  0  0  0  2  0  0  0  0
   -0.7145   -0.2062    0.0000 C   0  0  0  0  0  0  0  2  0  0  0  0
   -0.7145    0.6188    0.0000 O   0  0  0  0  0  0  0  2  0  0  0  0
   -1.4289   -0.6187    0.0000 C   0  0  0  0  0  0  0  2  0  0  0  0
    1.4289   -0.6188    0.0000 C   0  0  0  0  0  0  0  2  0  0  0  0
  1  2  2  0        0
  2  3  1  0        0
  3  4  1  0        0
  4  5  2  0        0
  4  6  1  0        0
  2  7  1  0        0
M  END
$$$$

CDXL12

  7  7  0  0  0  0  0  0  0  0999 V2000
   -1.4521    0.4048    0.0000 O   0  0  0  0  0  0  0  2  0  0  0  0
   -0.6674    0.1498    0.0000 C   0  0  0  0  0  0  0  2  0  0  0  0
   -0.0000    0.6348    0.0000 N   0  0  0  0  0  0  0  2  0  0  0  0
    0.6674    0.1498    0.0000 C   0  0  0  0  0  0  0  2  0  0  0  0
    1.4521    0.4048    0.0000 O   0  0  0  0  0  0  0  2  0  0  0  0
    0.4125   -0.6348    0.0000 C   0  0  0  0  0  0  0  2  0  0  0  0
   -0.4125   -0.6348    0.0000 C   0  0  0  0  0  0  0  2  0  0  0  0
  1  2  2  0        0
  2  3  1  0        0
  3  4  1  0        0
  4  5  2  0        0
  4  6  1  0        0
  6  7  1  0        0
  2  7  1  0        0
M  END
$$$$

CDXL12

 10  9  0  0  0  0  0  0  0  0999 V2000
    0.7145    0.6188    0.0000 O   0  0  0  0  0  0  0  2  0  0  0  0
    0.7145   -0.2062    0.0000 C   0  0  0  0  0  0  0  2  0  0  0  0
    1.4289   -0.6188    0.0000 O   0  0  0  0  0  0  0  2  0  0  0  0
    2.1434   -0.2062    0.0000 C   0  0  0  0  0  0  0  2  0  0  0  0
    2.8579   -0.6187    0.0000 C   0  0  0  0  0  0  0  2  0  0  0  0
    0.0000   -0.6188    0.0000 C   0  0  0  0  0  0  0  2  0  0  0  0
   -0.7145   -0.2062    0.0000 C   0  0  0  0  0  0  0  2  0  0  0  0
   -1.4289   -0.6188    0.0000 C   0  0  0  0  0  0  0  2  0  0  0  0
   -2.1434   -0.2062    0.0000 C   0  0  0  0  0  0  0  2  0  0  0  0
   -2.8579   -0.6188    0.0000 C   0  0  0  0  0  0  0  2  0  0  0  0
  1  2  2  0        0
  2  3  1  0        0
  3  4  1  0        0
  4  5  1  0        0
  2  6  1  0        0
  6  7  1  0        0
  7  8  1  0        0
  8  9  1  0        0
  9 10  1  0        0
M  END
$$$$

CDXL12

  5  4  0  0  0  0  0  0  0  0999 V2000
   -1.4289   -0.2062    0.0000 O   0  0  0  0  0  0  0  2  0  0  0  0
   -0.7145    0.2062    0.0000 C   0  0  0  0  0  0  0  2  0  0  0  0
    0.0000   -0.2062    0.0000 C   0  0  0  0  0  0  0  2  0  0  0  0
    0.7145    0.2062    0.0000 C   0  0  0  0  0  0  0  2  0  0  0  0
    1.4289   -0.2062    0.0000 C   0  0  0  0  0  0  0  2  0  0  0  0
  1  2  2  0        0
  2  3  1  0        0
  3  4  1  0        0
  4  5  1  0        0
M  END
$$$$

CDXL12

  5  4  0  0  0  0  0  0  0  0999 V2000
   -1.4289   -0.2062    0.0000 O   0  0  0  0  0  0  0  2  0  0  0  0
   -0.7145    0.2062    0.0000 C   0  0  0  0  0  0  0  2  0  0  0  0
    0.0000   -0.2062    0.0000 C   0  0  0  0  0  0  0  2  0  0  0  0
    0.7145    0.2062    0.0000 C   0  0  0  0  0  0  0  2  0  0  0  0
    1.4289   -0.2062    0.0000 C   0  0  0  0  0  0  0  2  0  0  0  0
  1  2  2  0        0
  2  3  1  0        0
  3  4  2  0        0
  4  5  1  0        0
M  END
$$$$

CDXL12

  5  5  0  0  0  0  0  0  0  0999 V2000
    0.4125    0.6348    0.0000 N   0  0  0  0  0  0  0  2  0  0  0  0
    0.6674   -0.1498    0.0000 C   0  0  0  0  0  0  0  2  0  0  0  0
   -0.0000   -0.6348    0.0000 C   0  0  0  0  0  0  0  2  0  0  0  0
   -0.6674   -0.1498    0.0000 C   0  0  0  0  0  0  0  2  0  0  0  0
   -0.4125    0.6348    0.0000 C   0  0  0  0  0  0  0  2  0  0  0  0
  1  2  1  0        0
  2  3  1  0        0
  3  4  1  0        0
  4  5  1  0        0
  1  5  1  0        0
M  END
$$$$

CDXL12

 26 25  0  0  0  0  0  0  0  0999 V2000
    1.7862   -1.0312    0.0000 O   0  0  0  0  0  0  0  2  0  0  0  0
    1.7862   -0.2062    0.0000 C   0  0  0  0  0  0  0  2  0  0  0  0
    2.5006    0.2063    0.0000 O   0  0  0  0  0  0  0  2  0  0  0  0
    3.2151   -0.2062    0.0000 C   0  0  0  0  0  0  0  2  0  0  0  0
    3.9296    0.2062    0.0000 C   0  0  0  0  0  0  0  2  0  0  0  0
    4.6441   -0.2062    0.0000 C   0  0  0  0  0  0  0  2  0  0  0  0
    5.3585    0.2062    0.0000 C   0  0  0  0  0  0  0  2  0  0  0  0
    6.0730   -0.2062    0.0000 C   0  0  0  0  0  0  0  2  0  0  0  0
    6.7875    0.2062    0.0000 C   0  0  0  0  0  0  0  2  0  0  0  0
    7.5019   -0.2062    0.0000 C   0  0  0  0  0  0  0  2  0  0  0  0
    8.2164    0.2062    0.0000 C   0  0  0  0  0  0  0  2  0  0  0  0
    1.0717    0.2062    0.0000 C   0  0  0  0  0  0  0  2  0  0  0  0
    0.3572   -0.2062    0.0000 C   0  0  0  0  0  0  0  2  0  0  0  0
   -0.3572    0.2062    0.0000 C   0  0  0  0  0  0  0  2  0  0  0  0
   -1.0717   -0.2062    0.0000 C   0  0  0  0  0  0  0  2  0  0  0  0
   -1.7862    0.2062    0.0000 C   0  0  0  0  0  0  0  2  0  0  0  0
   -1.7862    1.0312    0.0000 O   0  0  0  0  0  0  0  2  0  0  0  0
   -2.5006   -0.2062    0.0000 O   0  0  0  0  0  0  0  2  0  0  0  0
   -3.2151    0.2062    0.0000 C   0  0  0  0  0  0  0  2  0  0  0  0
   -3.9296   -0.2062    0.0000 C   0  0  0  0  0  0  0  2  0  0  0  0
   -4.6441    0.2062    0.0000 C   0  0  0  0  0  0  0  2  0  0  0  0
   -5.3585   -0.2062    0.0000 C   0  0  0  0  0  0  0  2  0  0  0  0
   -6.0730    0.2062    0.0000 C   0  0  0  0  0  0  0  2  0  0  0  0
   -6.7875   -0.2062    0.0000 C   0  0  0  0  0  0  0  2  0  0  0  0
   -7.5019    0.2062    0.0000 C   0  0  0  0  0  0  0  2  0  0  0  0
   -8.2164   -0.2062    0.0000 C   0  0  0  0  0  0  0  2  0  0  0  0
  1  2  2  0        0
  2  3  1  0        0
  3  4  1  0        0
  4  5  1  0        0
  5  6  1  0        0
  6  7  1  0        0
  7  8  1  0        0
  8  9  1  0        0
  9 10  1  0        0
 10 11  1  0        0
  2 12  1  0        0
 12 13  1  0        0
 13 14  1  0        0
 14 15  1  0        0
 15 16  1  0        0
 16 17  2  0        0
 16 18  1  0        0
 18 19  1  0        0
 19 20  1  0        0
 20 21  1  0        0
 21 22  1  0        0
 22 23  1  0        0
 23 24  1  0        0
 24 25  1  0        0
 25 26  1  0        0
M  END
$$$$

CDXL12

  8  7  0  0  0  0  0  0  0  0999 V2000
   -1.4289    0.6187    0.0000 O   0  0  0  0  0  0  0  2  0  0  0  0
   -1.4289   -0.2062    0.0000 C   0  0  0  0  0  0  0  2  0  0  0  0
   -0.7145   -0.6187    0.0000 O   0  0  0  0  0  0  0  2  0  0  0  0
    0.0000   -0.2062    0.0000 C   0  0  0  0  0  0  0  2  0  0  0  0
    0.7145   -0.6187    0.0000 C   0  0  0  0  0  0  0  2  0  0  0  0
    1.4289   -0.2062    0.0000 C   0  0  0  0  0  0  0  2  0  0  0  0
    2.1434   -0.6187    0.0000 C   0  0  0  0  0  0  0  2  0  0  0  0
   -2.1434   -0.6187    0.0000 C   0  0  0  0  0  0  0  2  0  0  0  0
  1  2  2  0        0
  2  3  1  0        0
  3  4  1  0        0
  4  5  1  0        0
  5  6  1  0        0
  6  7  1  0        0
  2  8  1  0        0
M  END
$$$$

CDXL12

  6  5  0  0  0  0  0  0  0  0999 V2000
   -1.7862   -0.2062    0.0000 C   0  0  0  0  0  0  0  2  0  0  0  0
   -1.0717    0.2062    0.0000 O   0  0  0  0  0  0  0  2  0  0  0  0
   -0.3572   -0.2062    0.0000 C   0  0  0  0  0  0  0  2  0  0  0  0
    0.3572    0.2062    0.0000 C   0  0  0  0  0  0  0  2  0  0  0  0
    1.0717   -0.2062    0.0000 Hg  0  0  0  0  0  0  0  2  0  0  0  0
    1.7862    0.2062    0.0000 Cl  0  0  0  0  0  0  0  2  0  0  0  0
  1  2  1  0        0
  2  3  1  0        0
  3  4  1  0        0
  4  5  1  0        0
  5  6  1  0        0
M  END
$$$$

CDXL12

  6  6  0  0  0  0  0  0  0  0999 V2000
    0.7145   -0.4125    0.0000 O   0  0  0  0  0  0  0  2  0  0  0  0
    0.0000   -0.8250    0.0000 C   0  0  0  0  0  0  0  2  0  0  0  0
   -0.7145   -0.4125    0.0000 C   0  0  0  0  0  0  0  2  0  0  0  0
   -0.7145    0.4125    0.0000 O   0  0  0  0  0  0  0  2  0  0  0  0
    0.0000    0.8250    0.0000 C   0  0  0  0  0  0  0  2  0  0  0  0
    0.7145    0.4125    0.0000 C   0  0  0  0  0  0  0  2  0  0  0  0
  1  2  1  0        0
  2  3  1  0        0
  3  4  1  0        0
  4  5  1  0        0
  5  6  1  0        0
  1  6  1  0        0
M  END
$$$$

CDXL12

  9  8  0  0  0  0  0  0  0  0999 V2000
   -1.4289    0.6187    0.0000 O   0  0  0  0  0  0  0  2  0  0  0  0
   -1.4289   -0.2062    0.0000 C   0  0  0  0  0  0  0  2  0  0  0  0
   -0.7145   -0.6188    0.0000 O   0  0  0  0  0  0  0  2  0  0  0  0
    0.0000   -0.2062    0.0000 C   0  0  0  0  0  0  0  2  0  0  0  0
    0.7145   -0.6188    0.0000 C   0  0  0  0  0  0  0  2  0  0  0  0
    1.4289   -0.2062    0.0000 C   0  0  0  0  0  0  0  2  0  0  0  0
    2.1434   -0.6187    0.0000 C   0  0  0  0  0  0  0  2  0  0  0  0
    1.4289    0.6188    0.0000 C   0  0  0  0  0  0  0  2  0  0  0  0
   -2.1434   -0.6188    0.0000 C   0  0  0  0  0  0  0  2  0  0  0  0
  1  2  2  0        0
  2  3  1  0        0
  3  4  1  0        0
  4  5  1  0        0
  5  6  1  0        0
  6  7  1  0        0
  6  8  1  0        0
  2  9  1  0        0
M  END
$$$$

CDXL12

  9  8  0  0  0  0  0  0  0  0999 V2000
    1.7862    0.6187    0.0000 O   0  0  0  0  0  0  0  2  0  0  0  0
    1.7862   -0.2062    0.0000 C   0  0  0  0  0  0  0  2  0  0  0  0
    1.0717   -0.6187    0.0000 C   0  0  0  0  0  0  0  2  0  0  0  0
    0.3572   -0.2062    0.0000 C   0  0  0  0  0  0  0  2  0  0  0  0
   -0.3572   -0.6187    0.0000 C   0  0  0  0  0  0  0  2  0  0  0  0
   -1.0717   -0.2062    0.0000 C   0  0  0  0  0  0  0  2  0  0  0  0
   -1.7862   -0.6187    0.0000 C   0  0  0  0  0  0  0  2  0  0  0  0
   -2.5006   -0.2062    0.0000 C   0  0  0  0  0  0  0  2  0  0  0  0
    2.5006   -0.6187    0.0000 C   0  0  0  0  0  0  0  2  0  0  0  0
  1  2  1  0        0
  2  3  1  0        0
  3  4  1  0        0
  4  5  1  0        0
  5  6  1  0        0
  6  7  1  0        0
  7  8  1  0        0
  2  9  1  0        0
M  END
$$$$

CDXL12

 13 12  0  0  0  0  0  0  0  0999 V2000
    2.8579    0.6187    0.0000 O   0  0  0  0  0  0  0  2  0  0  0  0
    2.8579   -0.2062    0.0000 C   0  0  0  0  0  0  0  2  0  0  0  0
    3.5724   -0.6188    0.0000 O   0  0  0  0  0  0  0  2  0  0  0  0
    2.1434   -0.6188    0.0000 C   0  0  0  0  0  0  0  2  0  0  0  0
    1.4289   -0.2062    0.0000 C   0  0  0  0  0  0  0  2  0  0  0  0
    0.7145   -0.6188    0.0000 C   0  0  0  0  0  0  0  2  0  0  0  0
   -0.0000   -0.2062    0.0000 C   0  0  0  0  0  0  0  2  0  0  0  0
   -0.7145   -0.6188    0.0000 C   0  0  0  0  0  0  0  2  0  0  0  0
   -1.4289   -0.2062    0.0000 C   0  0  0  0  0  0  0  2  0  0  0  0
   -2.1434   -0.6188    0.0000 C   0  0  0  0  0  0  0  2  0  0  0  0
   -2.8579   -0.2062    0.0000 C   0  0  0  0  0  0  0  2  0  0  0  0
   -2.8579    0.6188    0.0000 O   0  0  0  0  0  0  0  2  0  0  0  0
   -3.5724   -0.6187    0.0000 O   0  0  0  0  0  0  0  2  0  0  0  0
  1  2  2  0        0
  2  3  1  0        0
  2  4  1  0        0
  4  5  1  0        0
  5  6  1  0        0
  6  7  1  0        0
  7  8  1  0        0
  8  9  1  0        0
  9 10  1  0        0
 10 11  1  0        0
 11 12  2  0        0
 11 13  1  0        0
M  END
$$$$

CDXL12

 10  9  0  0  0  0  0  0  0  0999 V2000
    2.1434    0.6187    0.0000 O   0  0  0  0  0  0  0  2  0  0  0  0
    2.1434   -0.2062    0.0000 C   0  0  0  0  0  0  0  2  0  0  0  0
    2.8579   -0.6187    0.0000 O   0  0  0  0  0  0  0  2  0  0  0  0
    1.4289   -0.6187    0.0000 C   0  0  0  0  0  0  0  2  0  0  0  0
    0.7145   -0.2062    0.0000 C   0  0  0  0  0  0  0  2  0  0  0  0
   -0.0000   -0.6187    0.0000 C   0  0  0  0  0  0  0  2  0  0  0  0
   -0.7145   -0.2062    0.0000 C   0  0  0  0  0  0  0  2  0  0  0  0
   -1.4289   -0.6187    0.0000 C   0  0  0  0  0  0  0  2  0  0  0  0
   -2.1434   -0.2062    0.0000 C   0  0  0  0  0  0  0  2  0  0  0  0
   -2.8579   -0.6187    0.0000 C   0  0  0  0  0  0  0  2  0  0  0  0
  1  2  2  0        0
  2  3  1  0        0
  2  4  1  0        0
  4  5  1  0        0
  5  6  1  0        0
  6  7  1  0        0
  7  8  1  0        0
  8  9  1  0        0
  9 10  1  0        0
M  END
$$$$

CDXL12

  9  8  0  0  0  0  0  0  0  0999 V2000
   -2.1434    0.2062    0.0000 C   0  0  0  0  0  0  0  2  0  0  0  0
   -2.8579   -0.2062    0.0000 C   0  0  0  0  0  0  0  2  0  0  0  0
   -1.4289   -0.2062    0.0000 C   0  0  0  0  0  0  0  2  0  0  0  0
   -0.7145    0.2062    0.0000 C   0  0  0  0  0  0  0  2  0  0  0  0
    0.0000   -0.2062    0.0000 C   0  0  0  0  0  0  0  2  0  0  0  0
    0.7145    0.2062    0.0000 C   0  0  0  0  0  0  0  2  0  0  0  0
    1.4289   -0.2062    0.0000 C   0  0  0  0  0  0  0  2  0  0  0  0
    2.1434    0.2062    0.0000 C   0  0  0  0  0  0  0  2  0  0  0  0
    2.8579   -0.2062    0.0000 C   0  0  0  0  0  0  0  2  0  0  0  0
  1  2  2  0        0
  1  3  1  0        0
  3  4  1  0        0
  4  5  1  0        0
  5  6  1  0        0
  6  7  1  0        0
  7  8  1  0        0
  8  9  1  0        0
M  END
$$$$

CDXL12

  9  8  0  0  0  0  0  0  0  0999 V2000
   -2.8579   -0.2062    0.0000 O   0  0  0  0  0  0  0  2  0  0  0  0
   -2.1434    0.2062    0.0000 C   0  0  0  0  0  0  0  2  0  0  0  0
   -1.4289   -0.2062    0.0000 C   0  0  0  0  0  0  0  2  0  0  0  0
   -0.7145    0.2062    0.0000 C   0  0  0  0  0  0  0  2  0  0  0  0
    0.0000   -0.2062    0.0000 C   0  0  0  0  0  0  0  2  0  0  0  0
    0.7145    0.2062    0.0000 C   0  0  0  0  0  0  0  2  0  0  0  0
    1.4289   -0.2062    0.0000 C   0  0  0  0  0  0  0  2  0  0  0  0
    2.1434    0.2062    0.0000 C   0  0  0  0  0  0  0  2  0  0  0  0
    2.8579   -0.2062    0.0000 C   0  0  0  0  0  0  0  2  0  0  0  0
  1  2  2  0        0
  2  3  1  0        0
  3  4  1  0        0
  4  5  1  0        0
  5  6  1  0        0
  6  7  1  0        0
  7  8  1  0        0
  8  9  1  0        0
M  END
$$$$

CDXL12

 14 13  0  0  0  0  0  0  0  0999 V2000
   -3.5724    0.6187    0.0000 O   0  0  0  0  0  0  0  2  0  0  0  0
   -3.5724   -0.2062    0.0000 C   0  0  0  0  0  0  0  2  0  0  0  0
   -2.8579   -0.6187    0.0000 O   0  0  0  0  0  0  0  2  0  0  0  0
   -2.1434   -0.2062    0.0000 C   0  0  0  0  0  0  0  2  0  0  0  0
   -1.4289   -0.6187    0.0000 C   0  0  0  0  0  0  0  2  0  0  0  0
   -0.7145   -0.2062    0.0000 O   0  0  0  0  0  0  0  2  0  0  0  0
    0.0000   -0.6187    0.0000 C   0  0  0  0  0  0  0  2  0  0  0  0
    0.7145   -0.2062    0.0000 C   0  0  0  0  0  0  0  2  0  0  0  0
    1.4289   -0.6187    0.0000 O   0  0  0  0  0  0  0  2  0  0  0  0
    2.1434   -0.2062    0.0000 C   0  0  0  0  0  0  0  2  0  0  0  0
    2.8579   -0.6187    0.0000 C   0  0  0  0  0  0  0  2  0  0  0  0
    3.5724   -0.2062    0.0000 C   0  0  0  0  0  0  0  2  0  0  0  0
    4.2868   -0.6187    0.0000 C   0  0  0  0  0  0  0  2  0  0  0  0
   -4.2868   -0.6187    0.0000 C   0  0  0  0  0  0  0  2  0  0  0  0
  1  2  2  0        0
  2  3  1  0        0
  3  4  1  0        0
  4  5  1  0        0
  5  6  1  0        0
  6  7  1  0        0
  7  8  1  0        0
  8  9  1  0        0
  9 10  1  0        0
 10 11  1  0        0
 11 12  1  0        0
 12 13  1  0        0
  2 14  1  0        0
M  END
$$$$

CDXL12

 10  9  0  0  0  0  0  0  0  0999 V2000
   -2.5006    0.2062    0.0000 C   0  0  0  0  0  0  0  2  0  0  0  0
   -1.7862   -0.2062    0.0000 C   0  0  0  0  0  0  0  2  0  0  0  0
   -1.0717    0.2062    0.0000 C   0  0  0  0  0  0  0  2  0  0  0  0
   -0.3572   -0.2062    0.0000 C   0  0  0  0  0  0  0  2  0  0  0  0
    0.3572    0.2062    0.0000 C   0  0  0  0  0  0  0  2  0  0  0  0
    1.0717   -0.2062    0.0000 C   0  0  0  0  0  0  0  2  0  0  0  0
    1.7862    0.2062    0.0000 C   0  0  0  0  0  0  0  2  0  0  0  0
    2.5006   -0.2062    0.0000 C   0  0  0  0  0  0  0  2  0  0  0  0
    3.2151    0.2062    0.0000 C   0  0  0  0  0  0  0  2  0  0  0  0
   -3.2151   -0.2062    0.0000 C   0  0  0  0  0  0  0  2  0  0  0  0
  1  2  1  0        0
  2  3  1  0        0
  3  4  1  0        0
  4  5  1  0        0
  5  6  1  0        0
  6  7  1  0        0
  7  8  1  0        0
  8  9  1  0        0
  1 10  1  0        0
M  END
$$$$

CDXL12

  3  2  0  0  0  0  0  0  0  0999 V2000
    0.8250    0.0000    0.0000 O   0  0  0  0  0  0  0  2  0  0  0  0
    0.0000    0.0000    0.0000 C   0  0  0  0  0  0  0  2  0  0  0  0
   -0.8250    0.0000    0.0000 O   0  0  0  0  0  0  0  2  0  0  0  0
  1  2  2  0        0
  2  3  2  0        0
M  END
$$$$

CDXL12

 10  9  0  0  0  0  0  0  0  0999 V2000
   -0.6236    1.0079    0.0000 O   0  0  0  0  0  0  0  2  0  0  0  0
   -0.6236    0.1829    0.0000 C   0  0  0  0  0  0  0  2  0  0  0  0
    0.0909   -0.2296    0.0000 P   0  0  0  0  0  0  0  2  0  0  0  0
    0.4655   -0.9647    0.0000 C   0  0  0  0  0  0  0  2  0  0  0  0
    1.2893   -1.0079    0.0000 O   0  0  0  0  0  0  0  2  0  0  0  0
   -0.4924   -0.8130    0.0000 C   0  0  0  0  0  0  0  2  0  0  0  0
   -1.2893   -0.5995    0.0000 O   0  0  0  0  0  0  0  2  0  0  0  0
    0.2200    0.5852    0.0000 C   0  0  0  0  0  0  0  2  0  0  0  0
    0.9902    0.8809    0.0000 O   0  0  0  0  0  0  0  2  0  0  0  0
    0.9058   -0.1006    0.0000 Cl  0  0  0  0  0  0  0  2  0  0  0  0
  1  2  1  0        0
  2  3  1  0        0
  3  4  1  0        0
  4  5  1  0        0
  3  6  1  0        0
  6  7  1  0        0
  3  8  1  0        0
  8  9  1  0        0
  3 10  1  0        0
M  END
$$$$

CDXL12

 28 31  0  0  0  0  0  0  0  0999 V2000
    0.8319    1.2510    0.0000 C   0  0  0  0  0  0  0  2  0  0  0  0
    0.7457    0.4305    0.0000 C   0  0  0  0  0  0  0  2  0  0  0  0
    0.0312    0.8430    0.0000 C   0  0  0  0  0  0  0  2  0  0  0  0
   -0.6832    0.4305    0.0000 C   0  0  0  0  0  0  0  2  0  0  0  0
   -1.3977    0.8430    0.0000 O   0  0  0  0  0  0  0  2  0  0  0  0
   -0.6832   -0.3945    0.0000 C   0  0  0  0  0  0  0  2  0  0  0  0
   -0.6832   -1.2195    0.0000 F   0  0  0  0  0  0  0  2  0  0  0  0
    0.0312   -0.8070    0.0000 C   0  0  0  0  0  0  0  2  0  0  0  0
    0.0312   -1.6320    0.0000 C   0  0  0  0  0  0  0  2  0  0  0  0
   -0.6832   -2.0445    0.0000 C   0  0  0  0  0  0  0  2  0  0  0  0
   -1.3977   -1.6320    0.0000 C   0  0  0  0  0  0  0  2  0  0  0  0
   -2.1122   -2.0445    0.0000 C   0  0  0  0  0  0  0  2  0  0  0  0
   -2.8267   -1.6320    0.0000 C   0  0  0  0  0  0  0  2  0  0  0  0
   -3.5411   -2.0445    0.0000 O   0  0  0  0  0  0  0  2  0  0  0  0
   -2.8267   -0.8070    0.0000 C   0  0  0  0  0  0  0  2  0  0  0  0
   -2.1122   -0.3945    0.0000 C   0  0  0  0  0  0  0  2  0  0  0  0
   -1.3977   -0.8070    0.0000 C   0  0  0  0  0  0  0  2  0  0  0  0
   -1.3977    0.0180    0.0000 C   0  0  0  0  0  0  0  2  0  0  0  0
    0.7457   -0.3945    0.0000 C   0  0  0  0  0  0  0  2  0  0  0  0
    1.5303   -0.6494    0.0000 C   0  0  0  0  0  0  0  2  0  0  0  0
    2.0152    0.0180    0.0000 C   0  0  0  0  0  0  0  2  0  0  0  0
    2.8402    0.0180    0.0000 O   0  0  0  0  0  0  0  2  0  0  0  0
    1.5303    0.6855    0.0000 C   0  0  0  0  0  0  0  2  0  0  0  0
    1.3588    1.4924    0.0000 O   0  0  0  0  0  0  0  2  0  0  0  0
    2.1434    1.2375    0.0000 C   0  0  0  0  0  0  0  2  0  0  0  0
    1.9719    2.0445    0.0000 O   0  0  0  0  0  0  0  2  0  0  0  0
    2.9280    0.9826    0.0000 C   0  0  0  0  0  0  0  2  0  0  0  0
    3.5411    1.5346    0.0000 O   0  0  0  0  0  0  0  2  0  0  0  0
  1  2  1  0        0
  2  3  1  0        0
  3  4  1  0        0
  4  5  1  0        0
  4  6  1  0        0
  6  7  1  0        0
  6  8  1  0        0
  8  9  1  0        0
  9 10  1  0        0
 10 11  1  0        0
 11 12  2  0        0
 12 13  1  0        0
 13 14  2  0        0
 13 15  1  0        0
 15 16  2  0        0
 16 17  1  0        0
  6 17  1  0        0
 11 17  1  0        0
 17 18  1  0        0
  8 19  1  0        0
  2 19  1  0        0
 19 20  1  0        0
 20 21  1  0        0
 21 22  1  0        0
 21 23  1  0        0
  2 23  1  0        0
 23 24  1  0        0
 23 25  1  0        0
 25 26  2  0        0
 25 27  1  0        0
 27 28  1  0        0
M  END
$$$$

CDXL12

 16 17  0  0  0  0  0  0  0  0999 V2000
    1.1270   -1.1674    0.0000 C   0  0  0  0  0  0  0  2  0  0  0  0
    0.7145   -0.4530    0.0000 C   0  0  0  0  0  0  0  2  0  0  0  0
   -0.1105   -0.4530    0.0000 C   0  0  0  0  0  0  0  2  0  0  0  0
   -0.1105   -1.2780    0.0000 C   0  0  0  0  0  0  0  2  0  0  0  0
    0.6039   -1.6905    0.0000 O   0  0  0  0  0  0  0  2  0  0  0  0
   -0.8250   -1.6905    0.0000 N   0  0  0  0  0  0  0  2  0  0  0  0
   -1.5395   -1.2780    0.0000 C   0  0  0  0  0  0  0  2  0  0  0  0
   -1.5395   -0.4530    0.0000 N   0  0  0  0  0  0  0  2  0  0  0  0
   -0.8250   -0.0405    0.0000 C   0  0  0  0  0  0  0  2  0  0  0  0
   -0.8250    0.7845    0.0000 O   0  0  0  0  0  0  0  2  0  0  0  0
    0.3020    0.2615    0.0000 C   0  0  0  0  0  0  0  2  0  0  0  0
   -0.1105    0.9760    0.0000 C   0  0  0  0  0  0  0  2  0  0  0  0
    0.3020    1.6905    0.0000 C   0  0  0  0  0  0  0  2  0  0  0  0
    1.1270    1.6905    0.0000 C   0  0  0  0  0  0  0  2  0  0  0  0
    1.5395    0.9760    0.0000 C   0  0  0  0  0  0  0  2  0  0  0  0
    1.1270    0.2615    0.0000 C   0  0  0  0  0  0  0  2  0  0  0  0
  1  2  1  0        0
  2  3  1  0        0
  3  4  1  0        0
  4  5  2  0        0
  4  6  1  0        0
  6  7  1  0        0
  7  8  1  0        0
  8  9  1  0        0
  3  9  1  0        0
  9 10  2  0        0
  3 11  1  0        0
 11 12  4  0        0
 12 13  4  0        0
 13 14  4  0        0
 14 15  4  0        0
 15 16  4  0        0
 11 16  4  0        0
M  END
$$$$

CDXL12

 10  9  0  0  0  0  0  0  0  0999 V2000
   -0.7145    0.9760    0.0000 O   0  0  0  0  0  0  0  2  0  0  0  0
   -0.7145    0.1510    0.0000 N   0  0  0  0  0  0  0  2  0  0  0  0
   -1.4289   -0.2615    0.0000 O   0  0  0  0  0  0  0  2  0  0  0  0
    0.0000   -0.2615    0.0000 C   0  0  0  0  0  0  0  2  0  0  0  0
    0.4125    0.4530    0.0000 C   0  0  0  0  0  0  0  2  0  0  0  0
    1.2375    0.4530    0.0000 O   0  0  0  0  0  0  0  2  0  0  0  0
    0.7145   -0.6740    0.0000 C   0  0  0  0  0  0  0  2  0  0  0  0
    1.4289   -0.2615    0.0000 O   0  0  0  0  0  0  0  2  0  0  0  0
   -0.4125   -0.9760    0.0000 C   0  0  0  0  0  0  0  2  0  0  0  0
   -1.2375   -0.9760    0.0000 O   0  0  0  0  0  0  0  2  0  0  0  0
  1  2  2  0        0
  2  3  2  0        0
  2  4  1  0        0
  4  5  1  0        0
  5  6  1  0        0
  4  7  1  0        0
  7  8  1  0        0
  4  9  1  0        0
  9 10  1  0        0
M  END
$$$$

CDXL12

  7  7  0  0  0  0  0  0  0  0999 V2000
    1.0709   -0.0858    0.0000 O   0  0  0  0  0  0  0  2  0  0  0  0
    0.2640    0.0858    0.0000 S   0  0  0  0  0  0  0  2  0  0  0  0
    0.8160    0.6989    0.0000 O   0  0  0  0  0  0  0  2  0  0  0  0
    0.0090   -0.6989    0.0000 C   0  0  0  0  0  0  0  2  0  0  0  0
   -0.8160   -0.6989    0.0000 C   0  0  0  0  0  0  0  2  0  0  0  0
   -1.0709    0.0858    0.0000 C   0  0  0  0  0  0  0  2  0  0  0  0
   -0.4035    0.5707    0.0000 C   0  0  0  0  0  0  0  2  0  0  0  0
  1  2  2  0        0
  2  3  2  0        0
  2  4  1  0        0
  4  5  1  0        0
  5  6  1  0        0
  6  7  1  0        0
  2  7  1  0        0
M  END
$$$$

CDXL12

 20 19  0  0  0  0  0  0  0  0999 V2000
   -0.0000   -2.0625    0.0000 O   0  0  0  0  0  0  0  2  0  0  0  0
   -0.0000   -1.2375    0.0000 P   0  0  0  0  0  0  0  2  0  0  0  0
    0.7145   -0.8250    0.0000 O   0  0  0  0  0  0  0  2  0  0  0  0
    1.4289   -1.2375    0.0000 C   0  0  0  0  0  0  0  2  0  0  0  0
    2.1434   -0.8250    0.0000 C   0  0  0  0  0  0  0  2  0  0  0  0
    2.1434    0.0000    0.0000 Br  0  0  0  0  0  0  0  2  0  0  0  0
    2.8579   -1.2375    0.0000 C   0  0  0  0  0  0  0  2  0  0  0  0
    3.5724   -0.8250    0.0000 Br  0  0  0  0  0  0  0  2  0  0  0  0
   -0.7145   -0.8250    0.0000 O   0  0  0  0  0  0  0  2  0  0  0  0
   -1.4289   -1.2375    0.0000 C   0  0  0  0  0  0  0  2  0  0  0  0
   -2.1434   -0.8250    0.0000 C   0  0  0  0  0  0  0  2  0  0  0  0
   -2.1434    0.0000    0.0000 Br  0  0  0  0  0  0  0  2  0  0  0  0
   -2.8579   -1.2375    0.0000 C   0  0  0  0  0  0  0  2  0  0  0  0
   -3.5724   -0.8250    0.0000 Br  0  0  0  0  0  0  0  2  0  0  0  0
   -0.0000   -0.4125    0.0000 O   0  0  0  0  0  0  0  2  0  0  0  0
   -0.7145    0.0000    0.0000 C   0  0  0  0  0  0  0  2  0  0  0  0
   -0.7145    0.8250    0.0000 C   0  0  0  0  0  0  0  2  0  0  0  0
   -0.0000    1.2375    0.0000 Br  0  0  0  0  0  0  0  2  0  0  0  0
   -1.4289    1.2375    0.0000 C   0  0  0  0  0  0  0  2  0  0  0  0
   -1.4289    2.0625    0.0000 Br  0  0  0  0  0  0  0  2  0  0  0  0
  1  2  2  0        0
  2  3  1  0        0
  3  4  1  0        0
  4  5  1  0        0
  5  6  1  0        0
  5  7  1  0        0
  7  8  1  0        0
  2  9  1  0        0
  9 10  1  0        0
 10 11  1  0        0
 11 12  1  0        0
 11 13  1  0        0
 13 14  1  0        0
  2 15  1  0        0
 15 16  1  0        0
 16 17  1  0        0
 17 18  1  0        0
 17 19  1  0        0
 19 20  1  0        0
M  END
$$$$

CDXL12

 14 13  0  0  0  0  0  0  0  0999 V2000
    3.2151   -0.2062    0.0000 C   0  0  0  0  0  0  0  2  0  0  0  0
    2.5006   -0.6187    0.0000 C   0  0  0  0  0  0  0  2  0  0  0  0
    1.7862   -0.2062    0.0000 O   0  0  0  0  0  0  0  2  0  0  0  0
    1.0717   -0.6187    0.0000 P   0  0  0  0  0  0  0  2  0  0  0  0
    1.0717   -1.4437    0.0000 O   0  0  0  0  0  0  0  2  0  0  0  0
    1.0717    0.2063    0.0000 O   0  0  0  0  0  0  0  2  0  0  0  0
    1.7862    0.6187    0.0000 C   0  0  0  0  0  0  0  2  0  0  0  0
    1.7862    1.4437    0.0000 C   0  0  0  0  0  0  0  2  0  0  0  0
    0.3572   -0.2062    0.0000 S   0  0  0  0  0  0  0  2  0  0  0  0
   -0.3572   -0.6187    0.0000 C   0  0  0  0  0  0  0  2  0  0  0  0
   -1.0717   -0.2062    0.0000 C   0  0  0  0  0  0  0  2  0  0  0  0
   -1.7862   -0.6187    0.0000 S   0  0  0  0  0  0  0  2  0  0  0  0
   -2.5006   -0.2062    0.0000 C   0  0  0  0  0  0  0  2  0  0  0  0
   -3.2151   -0.6187    0.0000 C   0  0  0  0  0  0  0  2  0  0  0  0
  1  2  1  0        0
  2  3  1  0        0
  3  4  1  0        0
  4  5  2  0        0
  4  6  1  0        0
  6  7  1  0        0
  7  8  1  0        0
  4  9  1  0        0
  9 10  1  0        0
 10 11  1  0        0
 11 12  1  0        0
 12 13  1  0        0
 13 14  1  0        0
M  END
$$$$

CDXL12

  5  4  0  0  0  0  0  0  0  0999 V2000
    1.0717   -0.8250    0.0000 N   0  0  0  0  0  0  0  2  0  0  0  0
    0.3572   -0.4125    0.0000 C   0  0  0  0  0  0  0  2  0  0  0  0
   -0.3572    0.0000    0.0000 C   0  0  0  0  0  0  0  2  0  0  0  0
   -1.0717   -0.4125    0.0000 C   0  0  0  0  0  0  0  2  0  0  0  0
   -0.3572    0.8250    0.0000 C   0  0  0  0  0  0  0  2  0  0  0  0
  1  2  3  0        0
  2  3  1  0        0
  3  4  2  0        0
  3  5  1  0        0
M  END
$$$$

CDXL12

  6  5  0  0  0  0  0  0  0  0999 V2000
    0.3572   -1.0313    0.0000 O   0  0  0  0  0  0  0  2  0  0  0  0
    0.3572   -0.2062    0.0000 C   0  0  0  0  0  0  0  2  0  0  0  0
    1.0717    0.2062    0.0000 O   0  0  0  0  0  0  0  2  0  0  0  0
   -0.3572    0.2062    0.0000 C   0  0  0  0  0  0  0  2  0  0  0  0
   -0.3572    1.0313    0.0000 O   0  0  0  0  0  0  0  2  0  0  0  0
   -1.0717   -0.2062    0.0000 C   0  0  0  0  0  0  0  2  0  0  0  0
  1  2  2  0        0
  2  3  1  0        0
  2  4  1  0        0
  4  5  2  0        0
  4  6  1  0        0
M  END
$$$$

CDXL12

  6  5  0  0  0  0  0  0  0  0999 V2000
   -0.3572    1.0313    0.0000 O   0  0  0  0  0  0  0  2  0  0  0  0
   -0.3572    0.2062    0.0000 C   0  0  0  0  0  0  0  2  0  0  0  0
    0.3572   -0.2062    0.0000 N   0  0  0  0  0  0  0  2  0  0  0  0
    0.3572   -1.0313    0.0000 C   0  0  0  0  0  0  0  2  0  0  0  0
    1.0717    0.2062    0.0000 C   0  0  0  0  0  0  0  2  0  0  0  0
   -1.0717   -0.2062    0.0000 C   0  0  0  0  0  0  0  2  0  0  0  0
  1  2  2  0        0
  2  3  1  0        0
  3  4  1  0        0
  3  5  1  0        0
  2  6  1  0        0
M  END
$$$$

CDXL12

  8  7  0  0  0  0  0  0  0  0999 V2000
   -1.4289    0.1510    0.0000 C   0  0  0  0  0  0  0  2  0  0  0  0
   -0.7145   -0.2615    0.0000 C   0  0  0  0  0  0  0  2  0  0  0  0
   -0.3020   -0.9760    0.0000 Cl  0  0  0  0  0  0  0  2  0  0  0  0
   -1.1270   -0.9760    0.0000 Cl  0  0  0  0  0  0  0  2  0  0  0  0
   -0.0000    0.1510    0.0000 C   0  0  0  0  0  0  0  2  0  0  0  0
    0.7145   -0.2615    0.0000 O   0  0  0  0  0  0  0  2  0  0  0  0
    1.4289    0.1510    0.0000 Na  0  0  0  0  0  0  0  2  0  0  0  0
   -0.0000    0.9760    0.0000 O   0  0  0  0  0  0  0  2  0  0  0  0
  1  2  1  0        0
  2  3  1  0        0
  2  4  1  0        0
  2  5  1  0        0
  5  6  1  0        0
  6  7  1  0        0
  5  8  2  0        0
M  END
$$$$

CDXL12

 14 14  0  0  0  0  0  0  0  0999 V2000
    1.4289    1.3885    0.0000 O   0  0  0  0  0  0  0  2  0  0  0  0
    1.4289    0.5635    0.0000 C   0  0  0  0  0  0  0  2  0  0  0  0
    0.7145    0.1510    0.0000 C   0  0  0  0  0  0  0  2  0  0  0  0
    0.0000    0.5635    0.0000 C   0  0  0  0  0  0  0  2  0  0  0  0
   -0.7145    0.1510    0.0000 C   0  0  0  0  0  0  0  2  0  0  0  0
   -1.4289    0.5635    0.0000 C   0  0  0  0  0  0  0  2  0  0  0  0
   -2.1434    0.1510    0.0000 C   0  0  0  0  0  0  0  2  0  0  0  0
   -2.1434   -0.6740    0.0000 C   0  0  0  0  0  0  0  2  0  0  0  0
   -1.4289   -1.0865    0.0000 C   0  0  0  0  0  0  0  2  0  0  0  0
   -0.7145   -0.6740    0.0000 C   0  0  0  0  0  0  0  2  0  0  0  0
    0.1105   -0.6740    0.0000 C   0  0  0  0  0  0  0  2  0  0  0  0
   -0.3020   -1.3885    0.0000 C   0  0  0  0  0  0  0  2  0  0  0  0
   -1.4289    1.3885    0.0000 C   0  0  0  0  0  0  0  2  0  0  0  0
    2.1434    0.1510    0.0000 C   0  0  0  0  0  0  0  2  0  0  0  0
  1  2  2  0        0
  2  3  1  0        0
  3  4  2  0        0
  4  5  1  0        0
  5  6  1  0        0
  6  7  2  0        0
  7  8  1  0        0
  8  9  1  0        0
  9 10  1  0        0
  5 10  1  0        0
 10 11  1  0        0
 10 12  1  0        0
  6 13  1  0        0
  2 14  1  0        0
M  END
$$$$

CDXL12

 14 14  0  0  0  0  0  0  0  0999 V2000
    2.5006    0.4125    0.0000 Na  0  0  0  0  0  0  0  2  0  0  0  0
    1.7862    0.8250    0.0000 O   0  0  0  0  0  0  0  2  0  0  0  0
    1.0717    0.4125    0.0000 S   0  0  0  0  0  0  0  2  0  0  0  0
    0.6592    1.1270    0.0000 O   0  0  0  0  0  0  0  2  0  0  0  0
    1.4842   -0.3020    0.0000 O   0  0  0  0  0  0  0  2  0  0  0  0
    0.3572   -0.0000    0.0000 C   0  0  0  0  0  0  0  2  0  0  0  0
    0.3572   -0.8250    0.0000 C   0  0  0  0  0  0  0  2  0  0  0  0
   -0.3572   -1.2375    0.0000 C   0  0  0  0  0  0  0  2  0  0  0  0
   -1.0717   -0.8250    0.0000 C   0  0  0  0  0  0  0  2  0  0  0  0
   -1.0717   -0.0000    0.0000 C   0  0  0  0  0  0  0  2  0  0  0  0
   -0.3572    0.4125    0.0000 C   0  0  0  0  0  0  0  2  0  0  0  0
   -1.7862    0.4125    0.0000 N   0  0  0  0  0  0  0  2  0  0  0  0
   -1.7862    1.2375    0.0000 O   0  0  0  0  0  0  0  2  0  0  0  0
   -2.5006   -0.0000    0.0000 O   0  0  0  0  0  0  0  2  0  0  0  0
  1  2  1  0        0
  2  3  1  0        0
  3  4  2  0        0
  3  5  2  0        0
  3  6  1  0        0
  6  7  4  0        0
  7  8  4  0        0
  8  9  4  0        0
  9 10  4  0        0
 10 11  4  0        0
  6 11  4  0        0
 10 12  1  0        0
 12 13  2  0        0
 12 14  2  0        0
M  END
$$$$

CDXL12

 18 19  0  0  0  0  0  0  0  0999 V2000
    0.4741   -0.1989    0.0000 O   0  0  0  0  0  0  0  2  0  0  0  0
    0.0616    0.5156    0.0000 S   0  0  0  0  0  0  0  2  0  0  0  0
   -0.3509    1.2301    0.0000 O   0  0  0  0  0  0  0  2  0  0  0  0
    0.7761    0.9281    0.0000 N   0  0  0  0  0  0  0  2  0  0  0  0
    1.4906    0.5156    0.0000 C   0  0  0  0  0  0  0  2  0  0  0  0
    2.2442    0.8512    0.0000 O   0  0  0  0  0  0  0  2  0  0  0  0
    2.7963    0.2381    0.0000 N   0  0  0  0  0  0  0  2  0  0  0  0
    2.3838   -0.4764    0.0000 C   0  0  0  0  0  0  0  2  0  0  0  0
    2.7193   -1.2301    0.0000 C   0  0  0  0  0  0  0  2  0  0  0  0
    1.5768   -0.3049    0.0000 C   0  0  0  0  0  0  0  2  0  0  0  0
    0.9637   -0.8569    0.0000 C   0  0  0  0  0  0  0  2  0  0  0  0
   -0.6529    0.1031    0.0000 C   0  0  0  0  0  0  0  2  0  0  0  0
   -0.6529   -0.7219    0.0000 C   0  0  0  0  0  0  0  2  0  0  0  0
   -1.3673   -1.1344    0.0000 C   0  0  0  0  0  0  0  2  0  0  0  0
   -2.0818   -0.7219    0.0000 C   0  0  0  0  0  0  0  2  0  0  0  0
   -2.7963   -1.1344    0.0000 N   0  0  0  0  0  0  0  2  0  0  0  0
   -2.0818    0.1031    0.0000 C   0  0  0  0  0  0  0  2  0  0  0  0
   -1.3673    0.5156    0.0000 C   0  0  0  0  0  0  0  2  0  0  0  0
  1  2  2  0        0
  2  3  2  0        0
  2  4  1  0        0
  4  5  1  0        0
  5  6  4  0        0
  6  7  4  0        0
  7  8  4  0        0
  8  9  1  0        0
  8 10  4  0        0
  5 10  4  0        0
 10 11  1  0        0
  2 12  1  0        0
 12 13  4  0        0
 13 14  4  0        0
 14 15  4  0        0
 15 16  1  0        0
 15 17  4  0        0
 17 18  4  0        0
 12 18  4  0        0
M  END
$$$$

CDXL12

 18 19  0  0  0  0  0  0  0  0999 V2000
    0.0553   -0.2467    0.0000 O   0  0  0  0  0  0  0  2  0  0  0  0
   -0.3572    0.4678    0.0000 S   0  0  0  0  0  0  0  2  0  0  0  0
   -0.7697    1.1822    0.0000 O   0  0  0  0  0  0  0  2  0  0  0  0
    0.3572    0.8803    0.0000 N   0  0  0  0  0  0  0  2  0  0  0  0
    1.0717    0.4678    0.0000 C   0  0  0  0  0  0  0  2  0  0  0  0
    1.0717   -0.3572    0.0000 N   0  0  0  0  0  0  0  2  0  0  0  0
    1.7862   -0.7697    0.0000 C   0  0  0  0  0  0  0  2  0  0  0  0
    2.5006   -0.3572    0.0000 C   0  0  0  0  0  0  0  2  0  0  0  0
    2.5006    0.4678    0.0000 C   0  0  0  0  0  0  0  2  0  0  0  0
    3.2151    0.8803    0.0000 C   0  0  0  0  0  0  0  2  0  0  0  0
    1.7862    0.8803    0.0000 N   0  0  0  0  0  0  0  2  0  0  0  0
   -1.0717    0.0553    0.0000 C   0  0  0  0  0  0  0  2  0  0  0  0
   -1.0717   -0.7697    0.0000 C   0  0  0  0  0  0  0  2  0  0  0  0
   -1.7862   -1.1822    0.0000 C   0  0  0  0  0  0  0  2  0  0  0  0
   -2.5006   -0.7697    0.0000 C   0  0  0  0  0  0  0  2  0  0  0  0
   -3.2151   -1.1822    0.0000 N   0  0  0  0  0  0  0  2  0  0  0  0
   -2.5006    0.0553    0.0000 C   0  0  0  0  0  0  0  2  0  0  0  0
   -1.7862    0.4678    0.0000 C   0  0  0  0  0  0  0  2  0  0  0  0
  1  2  2  0        0
  2  3  2  0        0
  2  4  1  0        0
  4  5  1  0        0
  5  6  4  0        0
  6  7  4  0        0
  7  8  4  0        0
  8  9  4  0        0
  9 10  1  0        0
  9 11  4  0        0
  5 11  4  0        0
  2 12  1  0        0
 12 13  4  0        0
 13 14  4  0        0
 14 15  4  0        0
 15 16  1  0        0
 15 17  4  0        0
 17 18  4  0        0
 12 18  4  0        0
M  END
$$$$

CDXL12

  8  8  0  0  0  0  0  0  0  0999 V2000
   -1.4521   -0.0077    0.0000 O   0  0  0  0  0  0  0  2  0  0  0  0
   -0.6674   -0.2627    0.0000 C   0  0  0  0  0  0  0  2  0  0  0  0
   -0.0000    0.2223    0.0000 N   0  0  0  0  0  0  0  2  0  0  0  0
    0.6674   -0.2627    0.0000 C   0  0  0  0  0  0  0  2  0  0  0  0
    1.4521   -0.0077    0.0000 O   0  0  0  0  0  0  0  2  0  0  0  0
    0.4125   -1.0473    0.0000 C   0  0  0  0  0  0  0  2  0  0  0  0
   -0.4125   -1.0473    0.0000 C   0  0  0  0  0  0  0  2  0  0  0  0
   -0.0000    1.0473    0.0000 Cl  0  0  0  0  0  0  0  2  0  0  0  0
  1  2  2  0        0
  2  3  1  0        0
  3  4  1  0        0
  4  5  2  0        0
  4  6  1  0        0
  6  7  1  0        0
  2  7  1  0        0
  3  8  1  0        0
M  END
$$$$

CDXL12

 16 16  0  0  0  0  0  0  0  0999 V2000
    0.0000    1.6500    0.0000 O   0  0  0  0  0  0  0  2  0  0  0  0
    0.0000    0.8250    0.0000 C   0  0  0  0  0  0  0  2  0  0  0  0
    0.7145    0.4125    0.0000 C   0  0  0  0  0  0  0  2  0  0  0  0
    0.7145   -0.4125    0.0000 C   0  0  0  0  0  0  0  2  0  0  0  0
    0.0000   -0.8250    0.0000 C   0  0  0  0  0  0  0  2  0  0  0  0
   -0.7145   -0.4125    0.0000 C   0  0  0  0  0  0  0  2  0  0  0  0
   -0.7145    0.4125    0.0000 C   0  0  0  0  0  0  0  2  0  0  0  0
   -1.4289    0.8250    0.0000 C   0  0  0  0  0  0  0  2  0  0  0  0
   -2.1434    1.2375    0.0000 C   0  0  0  0  0  0  0  2  0  0  0  0
   -1.4289    1.6500    0.0000 C   0  0  0  0  0  0  0  2  0  0  0  0
   -2.1434    0.4125    0.0000 C   0  0  0  0  0  0  0  2  0  0  0  0
    0.0000   -1.6500    0.0000 C   0  0  0  0  0  0  0  2  0  0  0  0
    1.4289    0.8250    0.0000 C   0  0  0  0  0  0  0  2  0  0  0  0
    1.4289    1.6500    0.0000 C   0  0  0  0  0  0  0  2  0  0  0  0
    2.1434    1.2375    0.0000 C   0  0  0  0  0  0  0  2  0  0  0  0
    2.1434    0.4125    0.0000 C   0  0  0  0  0  0  0  2  0  0  0  0
  1  2  1  0        0
  2  3  4  0        0
  3  4  4  0        0
  4  5  4  0        0
  5  6  4  0        0
  6  7  4  0        0
  2  7  4  0        0
  7  8  1  0        0
  8  9  1  0        0
  8 10  1  0        0
  8 11  1  0        0
  5 12  1  0        0
  3 13  1  0        0
 13 14  1  0        0
 13 15  1  0        0
 13 16  1  0        0
M  END
$$$$

CDXL12

 15 15  0  0  0  0  0  0  0  0999 V2000
    0.0000    1.2375    0.0000 O   0  0  0  0  0  0  0  2  0  0  0  0
    0.0000    0.4125    0.0000 C   0  0  0  0  0  0  0  2  0  0  0  0
    0.7145   -0.0000    0.0000 C   0  0  0  0  0  0  0  2  0  0  0  0
    0.7145   -0.8250    0.0000 C   0  0  0  0  0  0  0  2  0  0  0  0
    0.0000   -1.2375    0.0000 C   0  0  0  0  0  0  0  2  0  0  0  0
   -0.7145   -0.8250    0.0000 C   0  0  0  0  0  0  0  2  0  0  0  0
   -0.7145   -0.0000    0.0000 C   0  0  0  0  0  0  0  2  0  0  0  0
   -1.4289    0.4125    0.0000 C   0  0  0  0  0  0  0  2  0  0  0  0
   -2.1434    0.8250    0.0000 C   0  0  0  0  0  0  0  2  0  0  0  0
   -1.4289    1.2375    0.0000 C   0  0  0  0  0  0  0  2  0  0  0  0
   -2.1434   -0.0000    0.0000 C   0  0  0  0  0  0  0  2  0  0  0  0
    1.4289    0.4125    0.0000 C   0  0  0  0  0  0  0  2  0  0  0  0
    1.4289    1.2375    0.0000 C   0  0  0  0  0  0  0  2  0  0  0  0
    2.1434    0.8250    0.0000 C   0  0  0  0  0  0  0  2  0  0  0  0
    2.1434   -0.0000    0.0000 C   0  0  0  0  0  0  0  2  0  0  0  0
  1  2  1  0        0
  2  3  4  0        0
  3  4  4  0        0
  4  5  4  0        0
  5  6  4  0        0
  6  7  4  0        0
  2  7  4  0        0
  7  8  1  0        0
  8  9  1  0        0
  8 10  1  0        0
  8 11  1  0        0
  3 12  1  0        0
 12 13  1  0        0
 12 14  1  0        0
 12 15  1  0        0
M  END
$$$$

CDXL12

 18 20  0  0  0  0  0  0  0  0999 V2000
    0.0000   -1.6500    0.0000 O   0  0  0  0  0  0  0  2  0  0  0  0
    0.0000   -0.8250    0.0000 C   0  0  0  0  0  0  0  2  0  0  0  0
   -0.7145   -0.4125    0.0000 C   0  0  0  0  0  0  0  2  0  0  0  0
   -0.7145    0.4125    0.0000 C   0  0  0  0  0  0  0  2  0  0  0  0
    0.0000    0.8250    0.0000 C   0  0  0  0  0  0  0  2  0  0  0  0
    0.0000    1.6500    0.0000 O   0  0  0  0  0  0  0  2  0  0  0  0
    0.7145    0.4125    0.0000 C   0  0  0  0  0  0  0  2  0  0  0  0
    1.4289    0.8250    0.0000 C   0  0  0  0  0  0  0  2  0  0  0  0
    1.4289    1.6500    0.0000 N   0  0  0  0  0  0  0  2  0  0  0  0
    2.1434    0.4125    0.0000 C   0  0  0  0  0  0  0  2  0  0  0  0
    2.1434   -0.4125    0.0000 C   0  0  0  0  0  0  0  2  0  0  0  0
    1.4289   -0.8250    0.0000 C   0  0  0  0  0  0  0  2  0  0  0  0
    1.4289   -1.6500    0.0000 N   0  0  0  0  0  0  0  2  0  0  0  0
    0.7145   -0.4125    0.0000 C   0  0  0  0  0  0  0  2  0  0  0  0
   -1.4289    0.8250    0.0000 C   0  0  0  0  0  0  0  2  0  0  0  0
   -2.1434    0.4125    0.0000 C   0  0  0  0  0  0  0  2  0  0  0  0
   -2.1434   -0.4125    0.0000 C   0  0  0  0  0  0  0  2  0  0  0  0
   -1.4289   -0.8250    0.0000 C   0  0  0  0  0  0  0  2  0  0  0  0
  1  2  2  0        0
  2  3  1  0        0
  3  4  4  0        0
  4  5  1  0        0
  5  6  2  0        0
  5  7  1  0        0
  7  8  4  0        0
  8  9  1  0        0
  8 10  4  0        0
 10 11  4  0        0
 11 12  4  0        0
 12 13  1  0        0
 12 14  4  0        0
  2 14  1  0        0
  7 14  4  0        0
  4 15  4  0        0
 15 16  4  0        0
 16 17  4  0        0
 17 18  4  0        0
  3 18  4  0        0
M  END
$$$$

CDXL12

 16 19  0  0  0  0  0  0  0  0999 V2000
    0.3572    0.2062    0.0000 C   0  0  0  0  0  0  0  2  0  0  0  0
   -0.3572   -0.2063    0.0000 C   0  0  0  0  0  0  0  2  0  0  0  0
   -1.0717    0.2062    0.0000 C   0  0  0  0  0  0  0  2  0  0  0  0
   -1.0717    1.0313    0.0000 C   0  0  0  0  0  0  0  2  0  0  0  0
   -0.3572    1.4438    0.0000 C   0  0  0  0  0  0  0  2  0  0  0  0
    0.3572    1.0312    0.0000 C   0  0  0  0  0  0  0  2  0  0  0  0
    1.0717    1.4437    0.0000 C   0  0  0  0  0  0  0  2  0  0  0  0
    1.7862    1.0312    0.0000 C   0  0  0  0  0  0  0  2  0  0  0  0
    1.7862    0.2062    0.0000 C   0  0  0  0  0  0  0  2  0  0  0  0
    1.0717   -0.2063    0.0000 C   0  0  0  0  0  0  0  2  0  0  0  0
    1.0717   -1.0313    0.0000 C   0  0  0  0  0  0  0  2  0  0  0  0
    0.3572   -1.4438    0.0000 C   0  0  0  0  0  0  0  2  0  0  0  0
   -0.3572   -1.0313    0.0000 C   0  0  0  0  0  0  0  2  0  0  0  0
   -1.0717   -1.4437    0.0000 C   0  0  0  0  0  0  0  2  0  0  0  0
   -1.7862   -1.0312    0.0000 C   0  0  0  0  0  0  0  2  0  0  0  0
   -1.7862   -0.2063    0.0000 C   0  0  0  0  0  0  0  2  0  0  0  0
  1  2  4  0        0
  2  3  4  0        0
  3  4  4  0        0
  4  5  4  0        0
  5  6  4  0        0
  1  6  4  0        0
  6  7  4  0        0
  7  8  4  0        0
  8  9  4  0        0
  9 10  4  0        0
  1 10  4  0        0
 10 11  4  0        0
 11 12  4  0        0
 12 13  4  0        0
  2 13  4  0        0
 13 14  4  0        0
 14 15  4  0        0
 15 16  4  0        0
  3 16  4  0        0
M  END
$$$$

CDXL12

 24 26  0  0  0  0  0  0  0  0999 V2000
    3.3125   -1.4321    0.0000 C   0  0  0  0  0  0  0  2  0  0  0  0
    2.5980   -1.8446    0.0000 C   0  0  0  0  0  0  0  2  0  0  0  0
    1.8836   -1.4321    0.0000 C   0  0  0  0  0  0  0  2  0  0  0  0
    1.1691   -1.8446    0.0000 C   0  0  0  0  0  0  0  2  0  0  0  0
    0.4546   -1.4321    0.0000 C   0  0  0  0  0  0  0  2  0  0  0  0
   -0.2990   -1.7676    0.0000 C   0  0  0  0  0  0  0  2  0  0  0  0
   -0.4706   -2.5746    0.0000 O   0  0  0  0  0  0  0  2  0  0  0  0
   -0.8511   -1.1546    0.0000 N   0  0  0  0  0  0  0  2  0  0  0  0
   -0.4386   -0.4401    0.0000 N   0  0  0  0  0  0  0  2  0  0  0  0
    0.3684   -0.6116    0.0000 C   0  0  0  0  0  0  0  2  0  0  0  0
    0.9815   -0.0596    0.0000 O   0  0  0  0  0  0  0  2  0  0  0  0
   -0.7741    0.3136    0.0000 C   0  0  0  0  0  0  0  2  0  0  0  0
   -1.5946    0.3998    0.0000 C   0  0  0  0  0  0  0  2  0  0  0  0
   -1.9302    1.1535    0.0000 C   0  0  0  0  0  0  0  2  0  0  0  0
   -1.4452    1.8209    0.0000 C   0  0  0  0  0  0  0  2  0  0  0  0
   -1.7808    2.5746    0.0000 O   0  0  0  0  0  0  0  2  0  0  0  0
   -0.6248    1.7347    0.0000 C   0  0  0  0  0  0  0  2  0  0  0  0
   -0.2892    0.9810    0.0000 C   0  0  0  0  0  0  0  2  0  0  0  0
   -1.6716   -1.2408    0.0000 C   0  0  0  0  0  0  0  2  0  0  0  0
   -2.0071   -1.9945    0.0000 C   0  0  0  0  0  0  0  2  0  0  0  0
   -2.8276   -2.0807    0.0000 C   0  0  0  0  0  0  0  2  0  0  0  0
   -3.3125   -1.4133    0.0000 C   0  0  0  0  0  0  0  2  0  0  0  0
   -2.9770   -0.6596    0.0000 C   0  0  0  0  0  0  0  2  0  0  0  0
   -2.1565   -0.5733    0.0000 C   0  0  0  0  0  0  0  2  0  0  0  0
  1  2  1  0        0
  2  3  1  0        0
  3  4  1  0        0
  4  5  1  0        0
  5  6  1  0        0
  6  7  2  0        0
  6  8  1  0        0
  8  9  1  0        0
  9 10  1  0        0
  5 10  1  0        0
 10 11  2  0        0
  9 12  1  0        0
 12 13  4  0        0
 13 14  4  0        0
 14 15  4  0        0
 15 16  1  0        0
 15 17  4  0        0
 17 18  4  0        0
 12 18  4  0        0
  8 19  1  0        0
 19 20  4  0        0
 20 21  4  0        0
 21 22  4  0        0
 22 23  4  0        0
 23 24  4  0        0
 19 24  4  0        0
M  END
$$$$

CDXL12

 18 18  0  0  0  0  0  0  0  0999 V2000
    2.1434   -0.2062    0.0000 O   0  0  0  0  0  0  0  2  0  0  0  0
    1.4289   -0.6188    0.0000 C   0  0  0  0  0  0  0  2  0  0  0  0
    1.4289   -1.4438    0.0000 O   0  0  0  0  0  0  0  2  0  0  0  0
    0.7145   -0.2063    0.0000 C   0  0  0  0  0  0  0  2  0  0  0  0
    0.0000   -0.6188    0.0000 C   0  0  0  0  0  0  0  2  0  0  0  0
   -0.7145   -0.2062    0.0000 C   0  0  0  0  0  0  0  2  0  0  0  0
   -0.7145    0.6188    0.0000 C   0  0  0  0  0  0  0  2  0  0  0  0
    0.0000    1.0313    0.0000 C   0  0  0  0  0  0  0  2  0  0  0  0
    0.7145    0.6188    0.0000 C   0  0  0  0  0  0  0  2  0  0  0  0
    1.4289    1.0313    0.0000 N   0  0  0  0  0  0  0  2  0  0  0  0
    1.4289    1.8563    0.0000 O   0  0  0  0  0  0  0  2  0  0  0  0
    2.1434    0.6187    0.0000 O   0  0  0  0  0  0  0  2  0  0  0  0
   -1.4289    1.0313    0.0000 N   0  0  0  0  0  0  0  2  0  0  0  0
   -1.4289    1.8563    0.0000 O   0  0  0  0  0  0  0  2  0  0  0  0
   -2.1434    0.6188    0.0000 O   0  0  0  0  0  0  0  2  0  0  0  0
    0.0000   -1.4437    0.0000 N   0  0  0  0  0  0  0  2  0  0  0  0
    0.7145   -1.8563    0.0000 O   0  0  0  0  0  0  0  2  0  0  0  0
   -0.7145   -1.8563    0.0000 O   0  0  0  0  0  0  0  2  0  0  0  0
  1  2  1  0        0
  2  3  2  0        0
  2  4  1  0        0
  4  5  4  0        0
  5  6  4  0        0
  6  7  4  0        0
  7  8  4  0        0
  8  9  4  0        0
  4  9  4  0        0
  9 10  1  0        0
 10 11  2  0        0
 10 12  2  0        0
  7 13  1  0        0
 13 14  2  0        0
 13 15  2  0        0
  5 16  1  0        0
 16 17  2  0        0
 16 18  2  0        0
M  END
$$$$

CDXL12

 15 16  0  0  0  0  0  0  0  0999 V2000
   -1.4082   -0.0000    0.0000 O   0  0  0  0  0  0  0  2  0  0  0  0
   -1.0717   -0.8250    0.0000 C   0  0  0  0  0  0  0  2  0  0  0  0
   -1.7862   -0.4125    0.0000 C   0  0  0  0  0  0  0  2  0  0  0  0
   -1.7862    0.4125    0.0000 C   0  0  0  0  0  0  0  2  0  0  0  0
   -1.0717    0.8250    0.0000 C   0  0  0  0  0  0  0  2  0  0  0  0
   -0.3572    0.4125    0.0000 C   0  0  0  0  0  0  0  2  0  0  0  0
    0.3572    0.8250    0.0000 C   0  0  0  0  0  0  0  2  0  0  0  0
    0.3572    1.6500    0.0000 O   0  0  0  0  0  0  0  2  0  0  0  0
    1.0717    0.4125    0.0000 O   0  0  0  0  0  0  0  2  0  0  0  0
    1.7862    0.8250    0.0000 Na  0  0  0  0  0  0  0  2  0  0  0  0
   -0.3572   -0.4125    0.0000 C   0  0  0  0  0  0  0  2  0  0  0  0
    0.3572   -0.8250    0.0000 C   0  0  0  0  0  0  0  2  0  0  0  0
    0.3572   -1.6500    0.0000 O   0  0  0  0  0  0  0  2  0  0  0  0
    1.0717   -0.4125    0.0000 O   0  0  0  0  0  0  0  2  0  0  0  0
    1.7862   -0.8250    0.0000 Na  0  0  0  0  0  0  0  2  0  0  0  0
  1  2  1  0        0
  2  3  1  0        0
  3  4  1  0        0
  4  5  1  0        0
  1  5  1  0        0
  5  6  1  0        0
  6  7  1  0        0
  7  8  2  0        0
  7  9  1  0        0
  9 10  1  0        0
  6 11  1  0        0
  2 11  1  0        0
 11 12  1  0        0
 12 13  2  0        0
 12 14  1  0        0
 14 15  1  0        0
M  END
$$$$

CDXL12

 12 13  0  0  0  0  0  0  0  0999 V2000
    0.7145    0.8250    0.0000 N   0  0  0  0  0  0  0  2  0  0  0  0
    0.0000    0.4125    0.0000 C   0  0  0  0  0  0  0  2  0  0  0  0
    0.0000   -0.4125    0.0000 C   0  0  0  0  0  0  0  2  0  0  0  0
   -0.7145   -0.8250    0.0000 C   0  0  0  0  0  0  0  2  0  0  0  0
   -1.4289   -0.4125    0.0000 C   0  0  0  0  0  0  0  2  0  0  0  0
   -1.4289    0.4125    0.0000 C   0  0  0  0  0  0  0  2  0  0  0  0
   -0.7145    0.8250    0.0000 C   0  0  0  0  0  0  0  2  0  0  0  0
   -0.7145    1.6500    0.0000 O   0  0  0  0  0  0  0  2  0  0  0  0
   -0.7145   -1.6500    0.0000 Cl  0  0  0  0  0  0  0  2  0  0  0  0
    0.7145   -0.8250    0.0000 C   0  0  0  0  0  0  0  2  0  0  0  0
    1.4289   -0.4125    0.0000 C   0  0  0  0  0  0  0  2  0  0  0  0
    1.4289    0.4125    0.0000 C   0  0  0  0  0  0  0  2  0  0  0  0
  1  2  4  0        0
  2  3  4  0        0
  3  4  4  0        0
  4  5  4  0        0
  5  6  4  0        0
  6  7  4  0        0
  2  7  4  0        0
  7  8  1  0        0
  4  9  1  0        0
  3 10  4  0        0
 10 11  4  0        0
 11 12  4  0        0
  1 12  4  0        0
M  END
$$$$

CDXL12

 24 27  0  0  0  0  0  0  0  0999 V2000
    0.0000    1.8562    0.0000 O   0  0  0  0  0  0  0  2  0  0  0  0
   -0.7145    1.4437    0.0000 C   0  0  0  0  0  0  0  2  0  0  0  0
   -1.4289    1.8562    0.0000 C   0  0  0  0  0  0  0  2  0  0  0  0
   -2.1434    1.4437    0.0000 C   0  0  0  0  0  0  0  2  0  0  0  0
   -2.1434    0.6187    0.0000 C   0  0  0  0  0  0  0  2  0  0  0  0
   -2.8579    0.2062    0.0000 N   0  0  0  0  0  0  0  2  0  0  0  0
   -2.8579   -0.6188    0.0000 C   0  0  0  0  0  0  0  2  0  0  0  0
   -2.1434   -1.0312    0.0000 C   0  0  0  0  0  0  0  2  0  0  0  0
   -1.4289   -0.6188    0.0000 C   0  0  0  0  0  0  0  2  0  0  0  0
   -0.7145   -1.0312    0.0000 C   0  0  0  0  0  0  0  2  0  0  0  0
   -0.7145   -1.8562    0.0000 O   0  0  0  0  0  0  0  2  0  0  0  0
    0.0000   -0.6188    0.0000 C   0  0  0  0  0  0  0  2  0  0  0  0
    0.7145   -1.0312    0.0000 N   0  0  0  0  0  0  0  2  0  0  0  0
    1.0565   -0.5156    0.0000 C   0  0  0  0  0  0  0  2  0  0  0  0
    1.0565    0.1031    0.0000 C   0  0  0  0  0  0  0  2  0  0  0  0
    0.7145    0.6187    0.0000 C   0  0  0  0  0  0  0  2  0  0  0  0
    1.4289    0.2062    0.0000 C   0  0  0  0  0  0  0  2  0  0  0  0
    2.1434    0.6187    0.0000 C   0  0  0  0  0  0  0  2  0  0  0  0
    2.8579    0.2062    0.0000 C   0  0  0  0  0  0  0  2  0  0  0  0
    1.4289   -0.6188    0.0000 C   0  0  0  0  0  0  0  2  0  0  0  0
    0.0000    0.2062    0.0000 C   0  0  0  0  0  0  0  2  0  0  0  0
   -1.4289    0.2062    0.0000 C   0  0  0  0  0  0  0  2  0  0  0  0
   -0.7145    0.6187    0.0000 C   0  0  0  0  0  0  0  2  0  0  0  0
    0.7145    1.4437    0.0000 C   0  0  0  0  0  0  0  2  0  0  0  0
  1  2  1  0        0
  2  3  4  0        0
  3  4  4  0        0
  4  5  4  0        0
  5  6  4  0        0
  6  7  4  0        0
  7  8  4  0        0
  8  9  4  0        0
  9 10  1  0        0
 10 11  1  0        0
 10 12  1  0        0
 12 13  1  0        0
 13 14  1  0        0
 14 15  1  0        0
 15 16  1  0        0
 16 17  1  0        0
 17 18  1  0        0
 18 19  2  0        0
 17 20  1  0        0
 13 20  1  0        0
 16 21  1  0        0
 12 21  1  0        0
  9 22  4  0        0
  5 22  4  0        0
 22 23  4  0        0
  2 23  4  0        0
  1 24  1  0        0
M  END
$$$$

CDXL12

 14 14  0  0  0  0  0  0  0  0999 V2000
    0.3572   -1.6500    0.0000 O   0  0  0  0  0  0  0  2  0  0  0  0
    0.3572   -0.8250    0.0000 C   0  0  0  0  0  0  0  2  0  0  0  0
    1.0717   -0.4125    0.0000 O   0  0  0  0  0  0  0  2  0  0  0  0
    1.7862   -0.8250    0.0000 C   0  0  0  0  0  0  0  2  0  0  0  0
   -0.3572   -0.4125    0.0000 C   0  0  0  0  0  0  0  2  0  0  0  0
   -0.3572    0.4125    0.0000 C   0  0  0  0  0  0  0  2  0  0  0  0
   -1.0717    0.8250    0.0000 C   0  0  0  0  0  0  0  2  0  0  0  0
   -1.7862    0.4125    0.0000 C   0  0  0  0  0  0  0  2  0  0  0  0
   -1.7862   -0.4125    0.0000 C   0  0  0  0  0  0  0  2  0  0  0  0
   -1.0717   -0.8250    0.0000 C   0  0  0  0  0  0  0  2  0  0  0  0
    0.3572    0.8250    0.0000 C   0  0  0  0  0  0  0  2  0  0  0  0
    0.3572    1.6500    0.0000 O   0  0  0  0  0  0  0  2  0  0  0  0
    1.0717    0.4125    0.0000 O   0  0  0  0  0  0  0  2  0  0  0  0
    1.7862    0.8250    0.0000 C   0  0  0  0  0  0  0  2  0  0  0  0
  1  2  2  0        0
  2  3  1  0        0
  3  4  1  0        0
  2  5  1  0        0
  5  6  4  0        0
  6  7  4  0        0
  7  8  4  0        0
  8  9  4  0        0
  9 10  4  0        0
  5 10  4  0        0
  6 11  1  0        0
 11 12  2  0        0
 11 13  1  0        0
 13 14  1  0        0
M  END
$$$$

CDXL12

 18 18  0  0  0  0  0  0  0  0999 V2000
   -0.3572   -1.6500    0.0000 O   0  0  0  0  0  0  0  2  0  0  0  0
   -0.3572   -0.8250    0.0000 C   0  0  0  0  0  0  0  2  0  0  0  0
    0.3572   -0.4125    0.0000 O   0  0  0  0  0  0  0  2  0  0  0  0
    1.0717   -0.8250    0.0000 C   0  0  0  0  0  0  0  2  0  0  0  0
    1.7862   -0.4125    0.0000 C   0  0  0  0  0  0  0  2  0  0  0  0
    2.5006   -0.8250    0.0000 C   0  0  0  0  0  0  0  2  0  0  0  0
   -1.0717   -0.4125    0.0000 C   0  0  0  0  0  0  0  2  0  0  0  0
   -1.0717    0.4125    0.0000 C   0  0  0  0  0  0  0  2  0  0  0  0
   -1.7862    0.8250    0.0000 C   0  0  0  0  0  0  0  2  0  0  0  0
   -2.5006    0.4125    0.0000 C   0  0  0  0  0  0  0  2  0  0  0  0
   -2.5006   -0.4125    0.0000 C   0  0  0  0  0  0  0  2  0  0  0  0
   -1.7862   -0.8250    0.0000 C   0  0  0  0  0  0  0  2  0  0  0  0
   -0.3572    0.8250    0.0000 C   0  0  0  0  0  0  0  2  0  0  0  0
   -0.3572    1.6500    0.0000 O   0  0  0  0  0  0  0  2  0  0  0  0
    0.3572    0.4125    0.0000 O   0  0  0  0  0  0  0  2  0  0  0  0
    1.0717    0.8250    0.0000 C   0  0  0  0  0  0  0  2  0  0  0  0
    1.7862    0.4125    0.0000 C   0  0  0  0  0  0  0  2  0  0  0  0
    2.5006    0.8250    0.0000 C   0  0  0  0  0  0  0  2  0  0  0  0
  1  2  2  0        0
  2  3  1  0        0
  3  4  1  0        0
  4  5  1  0        0
  5  6  1  0        0
  2  7  1  0        0
  7  8  4  0        0
  8  9  4  0        0
  9 10  4  0        0
 10 11  4  0        0
 11 12  4  0        0
  7 12  4  0        0
  8 13  1  0        0
 13 14  2  0        0
 13 15  1  0        0
 15 16  1  0        0
 16 17  1  0        0
 17 18  1  0        0
M  END
$$$$

CDXL12

 18 18  0  0  0  0  0  0  0  0999 V2000
   -0.3572   -1.6500    0.0000 O   0  0  0  0  0  0  0  2  0  0  0  0
   -0.3572   -0.8250    0.0000 C   0  0  0  0  0  0  0  2  0  0  0  0
    0.3572   -0.4125    0.0000 O   0  0  0  0  0  0  0  2  0  0  0  0
    1.0717   -0.8250    0.0000 C   0  0  0  0  0  0  0  2  0  0  0  0
    1.7862   -0.4125    0.0000 C   0  0  0  0  0  0  0  2  0  0  0  0
    2.5006   -0.8250    0.0000 C   0  0  0  0  0  0  0  2  0  0  0  0
   -1.0717   -0.4125    0.0000 C   0  0  0  0  0  0  0  2  0  0  0  0
   -1.0717    0.4125    0.0000 C   0  0  0  0  0  0  0  2  0  0  0  0
   -1.7862    0.8250    0.0000 C   0  0  0  0  0  0  0  2  0  0  0  0
   -2.5006    0.4125    0.0000 C   0  0  0  0  0  0  0  2  0  0  0  0
   -2.5006   -0.4125    0.0000 C   0  0  0  0  0  0  0  2  0  0  0  0
   -1.7862   -0.8250    0.0000 C   0  0  0  0  0  0  0  2  0  0  0  0
   -0.3572    0.8250    0.0000 C   0  0  0  0  0  0  0  2  0  0  0  0
   -0.3572    1.6500    0.0000 O   0  0  0  0  0  0  0  2  0  0  0  0
    0.3572    0.4125    0.0000 O   0  0  0  0  0  0  0  2  0  0  0  0
    1.0717    0.8250    0.0000 C   0  0  0  0  0  0  0  2  0  0  0  0
    1.7862    0.4125    0.0000 C   0  0  0  0  0  0  0  2  0  0  0  0
    2.5006    0.8250    0.0000 C   0  0  0  0  0  0  0  2  0  0  0  0
  1  2  2  0        0
  2  3  1  0        0
  3  4  1  0        0
  4  5  1  0        0
  5  6  2  0        0
  2  7  1  0        0
  7  8  4  0        0
  8  9  4  0        0
  9 10  4  0        0
 10 11  4  0        0
 11 12  4  0        0
  7 12  4  0        0
  8 13  1  0        0
 13 14  2  0        0
 13 15  1  0        0
 15 16  1  0        0
 16 17  1  0        0
 17 18  2  0        0
M  END
$$$$

CDXL12

 13 13  0  0  0  0  0  0  0  0999 V2000
    1.7862   -0.4125    0.0000 Na  0  0  0  0  0  0  0  2  0  0  0  0
    1.0717   -0.8250    0.0000 O   0  0  0  0  0  0  0  2  0  0  0  0
    0.3572   -0.4125    0.0000 C   0  0  0  0  0  0  0  2  0  0  0  0
   -0.3572   -0.8250    0.0000 C   0  0  0  0  0  0  0  2  0  0  0  0
   -0.3572   -1.6500    0.0000 Cl  0  0  0  0  0  0  0  2  0  0  0  0
   -1.0717   -0.4125    0.0000 C   0  0  0  0  0  0  0  2  0  0  0  0
   -1.7862   -0.8250    0.0000 Cl  0  0  0  0  0  0  0  2  0  0  0  0
   -1.0717    0.4125    0.0000 C   0  0  0  0  0  0  0  2  0  0  0  0
   -1.7862    0.8250    0.0000 Cl  0  0  0  0  0  0  0  2  0  0  0  0
   -0.3572    0.8250    0.0000 C   0  0  0  0  0  0  0  2  0  0  0  0
   -0.3572    1.6500    0.0000 Cl  0  0  0  0  0  0  0  2  0  0  0  0
    0.3572    0.4125    0.0000 C   0  0  0  0  0  0  0  2  0  0  0  0
    1.0717    0.8250    0.0000 Cl  0  0  0  0  0  0  0  2  0  0  0  0
  1  2  1  0        0
  2  3  1  0        0
  3  4  4  0        0
  4  5  1  0        0
  4  6  4  0        0
  6  7  1  0        0
  6  8  4  0        0
  8  9  1  0        0
  8 10  4  0        0
 10 11  1  0        0
 10 12  4  0        0
  3 12  4  0        0
 12 13  1  0        0
M  END
$$$$

CDXL12

 31 32  0  0  0  0  0  0  0  0999 V2000
   -4.0135    0.9624    0.0000 O   0  0  0  0  0  0  0  2  0  0  0  0
   -3.7314    0.1872    0.0000 N   0  0  0  0  0  0  0  2  0  0  0  0
   -4.2617   -0.4448    0.0000 O   0  0  0  0  0  0  0  2  0  0  0  0
   -2.9189    0.0439    0.0000 C   0  0  0  0  0  0  0  2  0  0  0  0
   -2.3886    0.6759    0.0000 C   0  0  0  0  0  0  0  2  0  0  0  0
   -1.5761    0.5326    0.0000 C   0  0  0  0  0  0  0  2  0  0  0  0
   -1.1636    1.2471    0.0000 N   0  0  0  0  0  0  0  2  0  0  0  0
   -1.6368    1.9229    0.0000 O   0  0  0  0  0  0  0  2  0  0  0  0
   -0.3512    1.3904    0.0000 O   0  0  0  0  0  0  0  2  0  0  0  0
   -1.2940   -0.2426    0.0000 C   0  0  0  0  0  0  0  2  0  0  0  0
   -0.0536   -0.6941    0.0000 N   0  0  0  0  0  0  0  2  0  0  0  0
    1.3039    0.0897    0.0000 C   0  0  0  0  0  0  0  2  0  0  0  0
    1.4472    0.9021    0.0000 C   0  0  0  0  0  0  0  2  0  0  0  0
    0.9169    1.5341    0.0000 N   0  0  0  0  0  0  0  2  0  0  0  0
    1.2656    2.2818    0.0000 O   0  0  0  0  0  0  0  2  0  0  0  0
    0.0919    1.5341    0.0000 O   0  0  0  0  0  0  0  2  0  0  0  0
    2.2224    1.1843    0.0000 C   0  0  0  0  0  0  0  2  0  0  0  0
    2.8544    0.6540    0.0000 C   0  0  0  0  0  0  0  2  0  0  0  0
    3.6297    0.9362    0.0000 N   0  0  0  0  0  0  0  2  0  0  0  0
    3.7729    1.7486    0.0000 O   0  0  0  0  0  0  0  2  0  0  0  0
    4.2617    0.4059    0.0000 O   0  0  0  0  0  0  0  2  0  0  0  0
    2.7112   -0.1585    0.0000 C   0  0  0  0  0  0  0  2  0  0  0  0
    1.9359   -0.4406    0.0000 C   0  0  0  0  0  0  0  2  0  0  0  0
    1.7927   -1.2531    0.0000 N   0  0  0  0  0  0  0  2  0  0  0  0
    1.0174   -1.5353    0.0000 O   0  0  0  0  0  0  0  2  0  0  0  0
    2.4246   -1.7834    0.0000 O   0  0  0  0  0  0  0  2  0  0  0  0
   -1.8243   -0.8746    0.0000 C   0  0  0  0  0  0  0  2  0  0  0  0
   -1.5421   -1.6498    0.0000 N   0  0  0  0  0  0  0  2  0  0  0  0
   -2.0724   -2.2818    0.0000 O   0  0  0  0  0  0  0  2  0  0  0  0
   -0.7296   -1.7931    0.0000 O   0  0  0  0  0  0  0  2  0  0  0  0
   -2.6367   -0.7313    0.0000 C   0  0  0  0  0  0  0  2  0  0  0  0
  1  2  2  0        0
  2  3  2  0        0
  2  4  1  0        0
  4  5  4  0        0
  5  6  4  0        0
  6  7  1  0        0
  7  8  2  0        0
  7  9  2  0        0
  6 10  4  0        0
 10 11  1  0        0
 11 12  1  0        0
 12 13  4  0        0
 13 14  1  0        0
 14 15  2  0        0
 14 16  2  0        0
 13 17  4  0        0
 17 18  4  0        0
 18 19  1  0        0
 19 20  2  0        0
 19 21  2  0        0
 18 22  4  0        0
 22 23  4  0        0
 12 23  4  0        0
 23 24  1  0        0
 24 25  2  0        0
 24 26  2  0        0
 10 27  4  0        0
 27 28  1  0        0
 28 29  2  0        0
 28 30  2  0        0
 27 31  4  0        0
  4 31  4  0        0
M  END
$$$$

CDXL12

 19 20  0  0  0  0  0  0  0  0999 V2000
    1.4289    0.0000    0.0000 O   0  0  0  0  0  0  0  2  0  0  0  0
    0.7145    0.4125    0.0000 C   0  0  0  0  0  0  0  2  0  0  0  0
    0.0000    0.0000    0.0000 C   0  0  0  0  0  0  0  2  0  0  0  0
    0.0000   -0.8250    0.0000 C   0  0  0  0  0  0  0  2  0  0  0  0
    0.7145   -1.2375    0.0000 C   0  0  0  0  0  0  0  2  0  0  0  0
    0.7145   -2.0625    0.0000 C   0  0  0  0  0  0  0  2  0  0  0  0
    0.0000   -2.4750    0.0000 C   0  0  0  0  0  0  0  2  0  0  0  0
   -0.7145   -2.0625    0.0000 C   0  0  0  0  0  0  0  2  0  0  0  0
   -0.7145   -1.2375    0.0000 C   0  0  0  0  0  0  0  2  0  0  0  0
   -0.7145    0.4125    0.0000 C   0  0  0  0  0  0  0  2  0  0  0  0
   -0.7145    1.2375    0.0000 C   0  0  0  0  0  0  0  2  0  0  0  0
   -1.4289    1.6500    0.0000 N   0  0  0  0  0  0  0  2  0  0  0  0
   -1.4289    2.4750    0.0000 O   0  0  0  0  0  0  0  2  0  0  0  0
   -2.1434    1.2375    0.0000 O   0  0  0  0  0  0  0  2  0  0  0  0
    0.0000    1.6500    0.0000 C   0  0  0  0  0  0  0  2  0  0  0  0
    0.7145    1.2375    0.0000 C   0  0  0  0  0  0  0  2  0  0  0  0
    1.4289    1.6500    0.0000 N   0  0  0  0  0  0  0  2  0  0  0  0
    1.4289    2.4750    0.0000 O   0  0  0  0  0  0  0  2  0  0  0  0
    2.1434    1.2375    0.0000 O   0  0  0  0  0  0  0  2  0  0  0  0
  1  2  1  0        0
  2  3  4  0        0
  3  4  1  0        0
  4  5  1  0        0
  5  6  1  0        0
  6  7  1  0        0
  7  8  1  0        0
  8  9  1  0        0
  4  9  1  0        0
  3 10  4  0        0
 10 11  4  0        0
 11 12  1  0        0
 12 13  2  0        0
 12 14  2  0        0
 11 15  4  0        0
 15 16  4  0        0
  2 16  4  0        0
 16 17  1  0        0
 17 18  2  0        0
 17 19  2  0        0
M  END
$$$$

CDXL12

 19 21  0  0  0  0  0  0  0  0999 V2000
    0.3572   -2.0625    0.0000 O   0  0  0  0  0  0  0  2  0  0  0  0
   -0.3572   -1.6500    0.0000 C   0  0  0  0  0  0  0  2  0  0  0  0
   -1.0717   -2.0625    0.0000 O   0  0  0  0  0  0  0  2  0  0  0  0
   -0.3572   -0.8250    0.0000 C   0  0  0  0  0  0  0  2  0  0  0  0
    0.3572   -0.4125    0.0000 C   0  0  0  0  0  0  0  2  0  0  0  0
    0.3572    0.4125    0.0000 C   0  0  0  0  0  0  0  2  0  0  0  0
   -0.3572    0.8250    0.0000 N   0  0  0  0  0  0  0  2  0  0  0  0
   -1.0717    0.4125    0.0000 C   0  0  0  0  0  0  0  2  0  0  0  0
   -1.7862    0.8250    0.0000 C   0  0  0  0  0  0  0  2  0  0  0  0
   -2.5006    0.4125    0.0000 C   0  0  0  0  0  0  0  2  0  0  0  0
   -2.5006   -0.4125    0.0000 C   0  0  0  0  0  0  0  2  0  0  0  0
   -1.7862   -0.8250    0.0000 C   0  0  0  0  0  0  0  2  0  0  0  0
   -1.0717   -0.4125    0.0000 C   0  0  0  0  0  0  0  2  0  0  0  0
    1.0717    0.8250    0.0000 C   0  0  0  0  0  0  0  2  0  0  0  0
    1.0717    1.6500    0.0000 C   0  0  0  0  0  0  0  2  0  0  0  0
    1.7862    2.0625    0.0000 C   0  0  0  0  0  0  0  2  0  0  0  0
    2.5006    1.6500    0.0000 C   0  0  0  0  0  0  0  2  0  0  0  0
    2.5006    0.8250    0.0000 C   0  0  0  0  0  0  0  2  0  0  0  0
    1.7862    0.4125    0.0000 C   0  0  0  0  0  0  0  2  0  0  0  0
  1  2  1  0        0
  2  3  2  0        0
  2  4  1  0        0
  4  5  4  0        0
  5  6  4  0        0
  6  7  4  0        0
  7  8  4  0        0
  8  9  4  0        0
  9 10  4  0        0
 10 11  4  0        0
 11 12  4  0        0
 12 13  4  0        0
  4 13  4  0        0
  8 13  4  0        0
  6 14  1  0        0
 14 15  4  0        0
 15 16  4  0        0
 16 17  4  0        0
 17 18  4  0        0
 18 19  4  0        0
 14 19  4  0        0
M  END
$$$$

CDXL12

 13 15  0  0  0  0  0  0  0  0999 V2000
    0.0000    0.9413    0.0000 O   0  0  0  0  0  0  0  2  0  0  0  0
   -0.6674    0.4564    0.0000 C   0  0  0  0  0  0  0  2  0  0  0  0
   -0.4125   -0.3282    0.0000 C   0  0  0  0  0  0  0  2  0  0  0  0
    0.4125   -0.3282    0.0000 C   0  0  0  0  0  0  0  2  0  0  0  0
    0.9645   -0.9413    0.0000 C   0  0  0  0  0  0  0  2  0  0  0  0
    1.7715   -0.7698    0.0000 C   0  0  0  0  0  0  0  2  0  0  0  0
    2.0264    0.0148    0.0000 C   0  0  0  0  0  0  0  2  0  0  0  0
    1.4744    0.6279    0.0000 C   0  0  0  0  0  0  0  2  0  0  0  0
    0.6674    0.4564    0.0000 C   0  0  0  0  0  0  0  2  0  0  0  0
   -0.9645   -0.9413    0.0000 C   0  0  0  0  0  0  0  2  0  0  0  0
   -1.7715   -0.7698    0.0000 C   0  0  0  0  0  0  0  2  0  0  0  0
   -2.0264    0.0148    0.0000 C   0  0  0  0  0  0  0  2  0  0  0  0
   -1.4744    0.6279    0.0000 C   0  0  0  0  0  0  0  2  0  0  0  0
  1  2  4  0        0
  2  3  4  0        0
  3  4  4  0        0
  4  5  4  0        0
  5  6  4  0        0
  6  7  4  0        0
  7  8  4  0        0
  8  9  4  0        0
  1  9  4  0        0
  4  9  4  0        0
  3 10  4  0        0
 10 11  4  0        0
 11 12  4  0        0
 12 13  4  0        0
  2 13  4  0        0
M  END
$$$$

CDXL12

 13 15  0  0  0  0  0  0  0  0999 V2000
    0.0000    0.9413    0.0000 S   0  0  0  0  0  0  0  2  0  0  0  0
   -0.6674    0.4564    0.0000 C   0  0  0  0  0  0  0  2  0  0  0  0
   -0.4125   -0.3282    0.0000 C   0  0  0  0  0  0  0  2  0  0  0  0
    0.4125   -0.3282    0.0000 C   0  0  0  0  0  0  0  2  0  0  0  0
    0.9645   -0.9413    0.0000 C   0  0  0  0  0  0  0  2  0  0  0  0
    1.7715   -0.7698    0.0000 C   0  0  0  0  0  0  0  2  0  0  0  0
    2.0264    0.0148    0.0000 C   0  0  0  0  0  0  0  2  0  0  0  0
    1.4744    0.6279    0.0000 C   0  0  0  0  0  0  0  2  0  0  0  0
    0.6674    0.4564    0.0000 C   0  0  0  0  0  0  0  2  0  0  0  0
   -0.9645   -0.9413    0.0000 C   0  0  0  0  0  0  0  2  0  0  0  0
   -1.7715   -0.7698    0.0000 C   0  0  0  0  0  0  0  2  0  0  0  0
   -2.0264    0.0148    0.0000 C   0  0  0  0  0  0  0  2  0  0  0  0
   -1.4744    0.6279    0.0000 C   0  0  0  0  0  0  0  2  0  0  0  0
  1  2  4  0        0
  2  3  4  0        0
  3  4  4  0        0
  4  5  4  0        0
  5  6  4  0        0
  6  7  4  0        0
  7  8  4  0        0
  8  9  4  0        0
  1  9  4  0        0
  4  9  4  0        0
  3 10  4  0        0
 10 11  4  0        0
 11 12  4  0        0
 12 13  4  0        0
  2 13  4  0        0
M  END
$$$$

CDXL12

 22 24  0  0  0  0  0  0  0  0999 V2000
    2.5006    2.0625    0.0000 O   0  0  0  0  0  0  0  2  0  0  0  0
    1.7862    1.6500    0.0000 C   0  0  0  0  0  0  0  2  0  0  0  0
    1.0717    2.0625    0.0000 O   0  0  0  0  0  0  0  2  0  0  0  0
    1.7862    0.8250    0.0000 C   0  0  0  0  0  0  0  2  0  0  0  0
    2.5006    0.4125    0.0000 C   0  0  0  0  0  0  0  2  0  0  0  0
    2.5006   -0.4125    0.0000 C   0  0  0  0  0  0  0  2  0  0  0  0
    1.7862   -0.8250    0.0000 C   0  0  0  0  0  0  0  2  0  0  0  0
    1.0717   -0.4125    0.0000 C   0  0  0  0  0  0  0  2  0  0  0  0
    1.0717    0.4125    0.0000 C   0  0  0  0  0  0  0  2  0  0  0  0
    0.3572    0.8250    0.0000 C   0  0  0  0  0  0  0  2  0  0  0  0
    0.3572    1.6500    0.0000 O   0  0  0  0  0  0  0  2  0  0  0  0
   -0.3572    0.4125    0.0000 N   0  0  0  0  0  0  0  2  0  0  0  0
   -0.3572   -0.4125    0.0000 C   0  0  0  0  0  0  0  2  0  0  0  0
    0.3572   -0.8250    0.0000 C   0  0  0  0  0  0  0  2  0  0  0  0
    0.3572   -1.6500    0.0000 C   0  0  0  0  0  0  0  2  0  0  0  0
   -0.3572   -2.0625    0.0000 C   0  0  0  0  0  0  0  2  0  0  0  0
   -1.0717   -1.6500    0.0000 C   0  0  0  0  0  0  0  2  0  0  0  0
   -1.7862   -2.0625    0.0000 C   0  0  0  0  0  0  0  2  0  0  0  0
   -2.5006   -1.6500    0.0000 C   0  0  0  0  0  0  0  2  0  0  0  0
   -2.5006   -0.8250    0.0000 C   0  0  0  0  0  0  0  2  0  0  0  0
   -1.7862   -0.4125    0.0000 C   0  0  0  0  0  0  0  2  0  0  0  0
   -1.0717   -0.8250    0.0000 C   0  0  0  0  0  0  0  2  0  0  0  0
  1  2  1  0        0
  2  3  2  0        0
  2  4  1  0        0
  4  5  4  0        0
  5  6  4  0        0
  6  7  4  0        0
  7  8  4  0        0
  8  9  4  0        0
  4  9  4  0        0
  9 10  1  0        0
 10 11  2  0        0
 10 12  1  0        0
 12 13  1  0        0
 13 14  4  0        0
 14 15  4  0        0
 15 16  4  0        0
 16 17  4  0        0
 17 18  4  0        0
 18 19  4  0        0
 19 20  4  0        0
 20 21  4  0        0
 21 22  4  0        0
 13 22  4  0        0
 17 22  4  0        0
M  END
$$$$

CDXL12

 23 25  0  0  0  0  0  0  0  0999 V2000
    2.5006    2.4750    0.0000 Na  0  0  0  0  0  0  0  2  0  0  0  0
    2.5006    1.6500    0.0000 O   0  0  0  0  0  0  0  2  0  0  0  0
    1.7862    1.2375    0.0000 C   0  0  0  0  0  0  0  2  0  0  0  0
    1.0717    1.6500    0.0000 O   0  0  0  0  0  0  0  2  0  0  0  0
    1.7862    0.4125    0.0000 C   0  0  0  0  0  0  0  2  0  0  0  0
    2.5006   -0.0000    0.0000 C   0  0  0  0  0  0  0  2  0  0  0  0
    2.5006   -0.8250    0.0000 C   0  0  0  0  0  0  0  2  0  0  0  0
    1.7862   -1.2375    0.0000 C   0  0  0  0  0  0  0  2  0  0  0  0
    1.0717   -0.8250    0.0000 C   0  0  0  0  0  0  0  2  0  0  0  0
    1.0717   -0.0000    0.0000 C   0  0  0  0  0  0  0  2  0  0  0  0
    0.3572    0.4125    0.0000 C   0  0  0  0  0  0  0  2  0  0  0  0
    0.3572    1.2375    0.0000 O   0  0  0  0  0  0  0  2  0  0  0  0
   -0.3572   -0.0000    0.0000 N   0  0  0  0  0  0  0  2  0  0  0  0
   -0.3572   -0.8250    0.0000 C   0  0  0  0  0  0  0  2  0  0  0  0
    0.3572   -1.2375    0.0000 C   0  0  0  0  0  0  0  2  0  0  0  0
    0.3572   -2.0625    0.0000 C   0  0  0  0  0  0  0  2  0  0  0  0
   -0.3572   -2.4750    0.0000 C   0  0  0  0  0  0  0  2  0  0  0  0
   -1.0717   -2.0625    0.0000 C   0  0  0  0  0  0  0  2  0  0  0  0
   -1.7862   -2.4750    0.0000 C   0  0  0  0  0  0  0  2  0  0  0  0
   -2.5006   -2.0625    0.0000 C   0  0  0  0  0  0  0  2  0  0  0  0
   -2.5006   -1.2375    0.0000 C   0  0  0  0  0  0  0  2  0  0  0  0
   -1.7862   -0.8250    0.0000 C   0  0  0  0  0  0  0  2  0  0  0  0
   -1.0717   -1.2375    0.0000 C   0  0  0  0  0  0  0  2  0  0  0  0
  1  2  1  0        0
  2  3  1  0        0
  3  4  2  0        0
  3  5  1  0        0
  5  6  4  0        0
  6  7  4  0        0
  7  8  4  0        0
  8  9  4  0        0
  9 10  4  0        0
  5 10  4  0        0
 10 11  1  0        0
 11 12  2  0        0
 11 13  1  0        0
 13 14  1  0        0
 14 15  4  0        0
 15 16  4  0        0
 16 17  4  0        0
 17 18  4  0        0
 18 19  4  0        0
 19 20  4  0        0
 20 21  4  0        0
 21 22  4  0        0
 22 23  4  0        0
 14 23  4  0        0
 18 23  4  0        0
M  END
$$$$

CDXL12

 12 13  0  0  0  0  0  0  0  0999 V2000
    0.3572    1.2375    0.0000 O   0  0  0  0  0  0  0  2  0  0  0  0
    0.3572    0.4125    0.0000 C   0  0  0  0  0  0  0  2  0  0  0  0
   -0.3572    0.0000    0.0000 C   0  0  0  0  0  0  0  2  0  0  0  0
   -0.3572   -0.8250    0.0000 C   0  0  0  0  0  0  0  2  0  0  0  0
   -1.0717   -1.2375    0.0000 C   0  0  0  0  0  0  0  2  0  0  0  0
   -1.7862   -0.8250    0.0000 C   0  0  0  0  0  0  0  2  0  0  0  0
   -1.7862    0.0000    0.0000 C   0  0  0  0  0  0  0  2  0  0  0  0
   -1.0717    0.4125    0.0000 C   0  0  0  0  0  0  0  2  0  0  0  0
    0.3572   -1.2375    0.0000 C   0  0  0  0  0  0  0  2  0  0  0  0
    1.0717   -0.8250    0.0000 C   0  0  0  0  0  0  0  2  0  0  0  0
    1.7862   -1.2375    0.0000 O   0  0  0  0  0  0  0  2  0  0  0  0
    1.0717   -0.0000    0.0000 C   0  0  0  0  0  0  0  2  0  0  0  0
  1  2  1  0        0
  2  3  4  0        0
  3  4  4  0        0
  4  5  4  0        0
  5  6  4  0        0
  6  7  4  0        0
  7  8  4  0        0
  3  8  4  0        0
  4  9  4  0        0
  9 10  4  0        0
 10 11  1  0        0
 10 12  4  0        0
  2 12  4  0        0
M  END
$$$$

CDXL12

 16 17  0  0  0  0  0  0  0  0999 V2000
    0.0880    1.4521    0.0000 O   0  0  0  0  0  0  0  2  0  0  0  0
   -0.1669    0.6674    0.0000 C   0  0  0  0  0  0  0  2  0  0  0  0
    0.3180   -0.0000    0.0000 N   0  0  0  0  0  0  0  2  0  0  0  0
    1.1430   -0.0000    0.0000 S   0  0  0  0  0  0  0  2  0  0  0  0
    1.5555    0.7145    0.0000 C   0  0  0  0  0  0  0  2  0  0  0  0
    1.9680    1.4289    0.0000 Cl  0  0  0  0  0  0  0  2  0  0  0  0
    1.1430    1.4289    0.0000 Cl  0  0  0  0  0  0  0  2  0  0  0  0
    2.3805    0.7145    0.0000 Cl  0  0  0  0  0  0  0  2  0  0  0  0
   -0.1669   -0.6674    0.0000 C   0  0  0  0  0  0  0  2  0  0  0  0
    0.0880   -1.4521    0.0000 O   0  0  0  0  0  0  0  2  0  0  0  0
   -0.9516   -0.4125    0.0000 C   0  0  0  0  0  0  0  2  0  0  0  0
   -1.6660   -0.8250    0.0000 C   0  0  0  0  0  0  0  2  0  0  0  0
   -2.3805   -0.4125    0.0000 C   0  0  0  0  0  0  0  2  0  0  0  0
   -2.3805    0.4125    0.0000 C   0  0  0  0  0  0  0  2  0  0  0  0
   -1.6660    0.8250    0.0000 C   0  0  0  0  0  0  0  2  0  0  0  0
   -0.9516    0.4125    0.0000 C   0  0  0  0  0  0  0  2  0  0  0  0
  1  2  2  0        0
  2  3  1  0        0
  3  4  1  0        0
  4  5  1  0        0
  5  6  1  0        0
  5  7  1  0        0
  5  8  1  0        0
  3  9  1  0        0
  9 10  2  0        0
  9 11  1  0        0
 11 12  4  0        0
 12 13  4  0        0
 13 14  4  0        0
 14 15  4  0        0
 15 16  4  0        0
  2 16  1  0        0
 11 16  4  0        0
M  END
$$$$

CDXL12

 20 21  0  0  0  0  0  0  0  0999 V2000
   -1.7309    1.5947    0.0000 O   0  0  0  0  0  0  0  2  0  0  0  0
   -2.1434    0.8803    0.0000 S   0  0  0  0  0  0  0  2  0  0  0  0
   -2.5559    0.1658    0.0000 O   0  0  0  0  0  0  0  2  0  0  0  0
   -2.8579    1.2928    0.0000 N   0  0  0  0  0  0  0  2  0  0  0  0
   -1.4289    0.4678    0.0000 C   0  0  0  0  0  0  0  2  0  0  0  0
   -1.4289   -0.3572    0.0000 C   0  0  0  0  0  0  0  2  0  0  0  0
   -0.7145   -0.7697    0.0000 C   0  0  0  0  0  0  0  2  0  0  0  0
    0.0000   -0.3572    0.0000 C   0  0  0  0  0  0  0  2  0  0  0  0
    0.7145   -0.7697    0.0000 N   0  0  0  0  0  0  0  2  0  0  0  0
    1.4289   -0.3572    0.0000 C   0  0  0  0  0  0  0  2  0  0  0  0
    1.4289    0.4678    0.0000 N   0  0  0  0  0  0  0  2  0  0  0  0
    0.7145    0.8803    0.0000 S   0  0  0  0  0  0  0  2  0  0  0  0
    1.1270    1.5947    0.0000 O   0  0  0  0  0  0  0  2  0  0  0  0
    0.3020    1.5947    0.0000 O   0  0  0  0  0  0  0  2  0  0  0  0
    0.0000    0.4678    0.0000 C   0  0  0  0  0  0  0  2  0  0  0  0
   -0.7145    0.8803    0.0000 C   0  0  0  0  0  0  0  2  0  0  0  0
    2.1434   -0.7697    0.0000 C   0  0  0  0  0  0  0  2  0  0  0  0
    2.1434   -1.5947    0.0000 Cl  0  0  0  0  0  0  0  2  0  0  0  0
    2.8579   -0.3572    0.0000 Cl  0  0  0  0  0  0  0  2  0  0  0  0
   -2.1434   -0.7697    0.0000 Cl  0  0  0  0  0  0  0  2  0  0  0  0
  1  2  2  0        0
  2  3  2  0        0
  2  4  1  0        0
  2  5  1  0        0
  5  6  4  0        0
  6  7  4  0        0
  7  8  4  0        0
  8  9  1  0        0
  9 10  1  0        0
 10 11  1  0        0
 11 12  1  0        0
 12 13  2  0        0
 12 14  2  0        0
 12 15  1  0        0
  8 15  4  0        0
 15 16  4  0        0
  5 16  4  0        0
 10 17  1  0        0
 17 18  1  0        0
 17 19  1  0        0
  6 20  1  0        0
M  END
$$$$

CDXL12

 12 12  0  0  0  0  0  0  0  0999 V2000
    1.0717    1.6500    0.0000 O   0  0  0  0  0  0  0  2  0  0  0  0
    1.0717    0.8250    0.0000 C   0  0  0  0  0  0  0  2  0  0  0  0
    1.7862    0.4125    0.0000 O   0  0  0  0  0  0  0  2  0  0  0  0
    0.3572    0.4125    0.0000 C   0  0  0  0  0  0  0  2  0  0  0  0
    0.3572   -0.4125    0.0000 C   0  0  0  0  0  0  0  2  0  0  0  0
   -0.3572   -0.8250    0.0000 C   0  0  0  0  0  0  0  2  0  0  0  0
   -0.3572   -1.6500    0.0000 N   0  0  0  0  0  0  0  2  0  0  0  0
   -1.0717   -0.4125    0.0000 C   0  0  0  0  0  0  0  2  0  0  0  0
   -1.0717    0.4125    0.0000 C   0  0  0  0  0  0  0  2  0  0  0  0
   -1.7862    0.8250    0.0000 Cl  0  0  0  0  0  0  0  2  0  0  0  0
   -0.3572    0.8250    0.0000 C   0  0  0  0  0  0  0  2  0  0  0  0
    1.0717   -0.8250    0.0000 Cl  0  0  0  0  0  0  0  2  0  0  0  0
  1  2  2  0        0
  2  3  1  0        0
  2  4  1  0        0
  4  5  4  0        0
  5  6  4  0        0
  6  7  1  0        0
  6  8  4  0        0
  8  9  4  0        0
  9 10  1  0        0
  9 11  4  0        0
  4 11  4  0        0
  5 12  1  0        0
M  END
$$$$

CDXL12

 12 12  0  0  0  0  0  0  0  0999 V2000
    1.0717    1.6500    0.0000 O   0  0  0  0  0  0  0  2  0  0  0  0
    1.0717    0.8250    0.0000 C   0  0  0  0  0  0  0  2  0  0  0  0
    1.7862    0.4125    0.0000 O   0  0  0  0  0  0  0  2  0  0  0  0
    0.3572    0.4125    0.0000 C   0  0  0  0  0  0  0  2  0  0  0  0
    0.3572   -0.4125    0.0000 C   0  0  0  0  0  0  0  2  0  0  0  0
    1.0717   -0.8250    0.0000 O   0  0  0  0  0  0  0  2  0  0  0  0
   -0.3572   -0.8250    0.0000 C   0  0  0  0  0  0  0  2  0  0  0  0
   -1.0717   -0.4125    0.0000 C   0  0  0  0  0  0  0  2  0  0  0  0
   -1.0717    0.4125    0.0000 C   0  0  0  0  0  0  0  2  0  0  0  0
   -1.7862    0.8250    0.0000 I   0  0  0  0  0  0  0  2  0  0  0  0
   -0.3572    0.8250    0.0000 C   0  0  0  0  0  0  0  2  0  0  0  0
   -0.3572   -1.6500    0.0000 I   0  0  0  0  0  0  0  2  0  0  0  0
  1  2  2  0        0
  2  3  1  0        0
  2  4  1  0        0
  4  5  4  0        0
  5  6  1  0        0
  5  7  4  0        0
  7  8  4  0        0
  8  9  4  0        0
  9 10  1  0        0
  9 11  4  0        0
  4 11  4  0        0
  7 12  1  0        0
M  END
$$$$

CDXL12

 11 12  0  0  0  0  0  0  0  0999 V2000
    0.0000   -0.8250    0.0000 C   0  0  0  0  0  0  0  2  0  0  0  0
    0.0000    0.0000    0.0000 C   0  0  0  0  0  0  0  2  0  0  0  0
    0.7145    0.4125    0.0000 C   0  0  0  0  0  0  0  2  0  0  0  0
    0.7145    1.2375    0.0000 N   0  0  0  0  0  0  0  2  0  0  0  0
    1.4289    0.0000    0.0000 C   0  0  0  0  0  0  0  2  0  0  0  0
    1.4289   -0.8250    0.0000 C   0  0  0  0  0  0  0  2  0  0  0  0
    0.7145   -1.2375    0.0000 C   0  0  0  0  0  0  0  2  0  0  0  0
   -0.7145    0.4125    0.0000 C   0  0  0  0  0  0  0  2  0  0  0  0
   -1.4289   -0.0000    0.0000 C   0  0  0  0  0  0  0  2  0  0  0  0
   -1.4289   -0.8250    0.0000 C   0  0  0  0  0  0  0  2  0  0  0  0
   -0.7145   -1.2375    0.0000 C   0  0  0  0  0  0  0  2  0  0  0  0
  1  2  4  0        0
  2  3  4  0        0
  3  4  1  0        0
  3  5  4  0        0
  5  6  4  0        0
  6  7  4  0        0
  1  7  4  0        0
  2  8  4  0        0
  8  9  4  0        0
  9 10  4  0        0
 10 11  4  0        0
  1 11  4  0        0
M  END
$$$$

CDXL12

 36 39  0  0  0  0  0  0  0  0999 V2000
    0.0000    0.3572    0.0000 O   0  0  0  0  0  0  0  2  0  0  0  0
    0.0000   -0.4678    0.0000 C   0  0  0  0  0  0  0  2  0  0  0  0
    0.7145   -0.8803    0.0000 N   0  0  0  0  0  0  0  2  0  0  0  0
    1.4289   -0.4678    0.0000 C   0  0  0  0  0  0  0  2  0  0  0  0
    1.4289    0.3572    0.0000 C   0  0  0  0  0  0  0  2  0  0  0  0
    2.1434    0.7697    0.0000 C   0  0  0  0  0  0  0  2  0  0  0  0
    2.8579    0.3572    0.0000 C   0  0  0  0  0  0  0  2  0  0  0  0
    2.8579   -0.4678    0.0000 C   0  0  0  0  0  0  0  2  0  0  0  0
    3.5724   -0.8803    0.0000 C   0  0  0  0  0  0  0  2  0  0  0  0
    4.2868   -0.4678    0.0000 C   0  0  0  0  0  0  0  2  0  0  0  0
    5.0013   -0.8803    0.0000 S   0  0  0  0  0  0  0  2  0  0  0  0
    4.5888   -1.5947    0.0000 O   0  0  0  0  0  0  0  2  0  0  0  0
    5.4138   -0.1658    0.0000 O   0  0  0  0  0  0  0  2  0  0  0  0
    5.7158   -1.2928    0.0000 O   0  0  0  0  0  0  0  2  0  0  0  0
    6.4302   -0.8803    0.0000 Na  0  0  0  0  0  0  0  2  0  0  0  0
    4.2868    0.3572    0.0000 C   0  0  0  0  0  0  0  2  0  0  0  0
    3.5724    0.7697    0.0000 C   0  0  0  0  0  0  0  2  0  0  0  0
    3.5724    1.5947    0.0000 O   0  0  0  0  0  0  0  2  0  0  0  0
    2.1434   -0.8803    0.0000 C   0  0  0  0  0  0  0  2  0  0  0  0
   -0.7145   -0.8803    0.0000 N   0  0  0  0  0  0  0  2  0  0  0  0
   -1.4289   -0.4678    0.0000 C   0  0  0  0  0  0  0  2  0  0  0  0
   -1.4289    0.3572    0.0000 C   0  0  0  0  0  0  0  2  0  0  0  0
   -2.1434    0.7697    0.0000 C   0  0  0  0  0  0  0  2  0  0  0  0
   -2.8579    0.3572    0.0000 C   0  0  0  0  0  0  0  2  0  0  0  0
   -2.8579   -0.4678    0.0000 C   0  0  0  0  0  0  0  2  0  0  0  0
   -3.5724   -0.8803    0.0000 C   0  0  0  0  0  0  0  2  0  0  0  0
   -4.2868   -0.4678    0.0000 C   0  0  0  0  0  0  0  2  0  0  0  0
   -5.0013   -0.8803    0.0000 S   0  0  0  0  0  0  0  2  0  0  0  0
   -5.4138   -0.1658    0.0000 O   0  0  0  0  0  0  0  2  0  0  0  0
   -4.5888   -1.5947    0.0000 O   0  0  0  0  0  0  0  2  0  0  0  0
   -5.7158   -1.2928    0.0000 O   0  0  0  0  0  0  0  2  0  0  0  0
   -6.4302   -0.8803    0.0000 Na  0  0  0  0  0  0  0  2  0  0  0  0
   -4.2868    0.3572    0.0000 C   0  0  0  0  0  0  0  2  0  0  0  0
   -3.5724    0.7697    0.0000 C   0  0  0  0  0  0  0  2  0  0  0  0
   -3.5724    1.5947    0.0000 O   0  0  0  0  0  0  0  2  0  0  0  0
   -2.1434   -0.8803    0.0000 C   0  0  0  0  0  0  0  2  0  0  0  0
  1  2  2  0        0
  2  3  1  0        0
  3  4  1  0        0
  4  5  4  0        0
  5  6  4  0        0
  6  7  4  0        0
  7  8  4  0        0
  8  9  4  0        0
  9 10  4  0        0
 10 11  1  0        0
 11 12  2  0        0
 11 13  2  0        0
 11 14  1  0        0
 14 15  1  0        0
 10 16  4  0        0
 16 17  4  0        0
  7 17  4  0        0
 17 18  1  0        0
  8 19  4  0        0
  4 19  4  0        0
  2 20  1  0        0
 20 21  1  0        0
 21 22  4  0        0
 22 23  4  0        0
 23 24  4  0        0
 24 25  4  0        0
 25 26  4  0        0
 26 27  4  0        0
 27 28  1  0        0
 28 29  2  0        0
 28 30  2  0        0
 28 31  1  0        0
 31 32  1  0        0
 27 33  4  0        0
 33 34  4  0        0
 24 34  4  0        0
 34 35  1  0        0
 25 36  4  0        0
 21 36  4  0        0
M  END
$$$$

CDXL12

 10 10  0  0  0  0  0  0  0  0999 V2000
    1.4289   -0.4125    0.0000 C   0  0  0  0  0  0  0  2  0  0  0  0
    0.7145   -0.8250    0.0000 C   0  0  0  0  0  0  0  2  0  0  0  0
    0.0000   -0.4125    0.0000 C   0  0  0  0  0  0  0  2  0  0  0  0
   -0.7145   -0.8250    0.0000 C   0  0  0  0  0  0  0  2  0  0  0  0
   -1.4289   -0.4125    0.0000 C   0  0  0  0  0  0  0  2  0  0  0  0
   -1.4289    0.4125    0.0000 C   0  0  0  0  0  0  0  2  0  0  0  0
   -0.7145    0.8250    0.0000 C   0  0  0  0  0  0  0  2  0  0  0  0
    0.0000    0.4125    0.0000 C   0  0  0  0  0  0  0  2  0  0  0  0
    0.7145    0.8250    0.0000 C   0  0  0  0  0  0  0  2  0  0  0  0
    1.4289    0.4125    0.0000 C   0  0  0  0  0  0  0  2  0  0  0  0
  1  2  1  0        0
  2  3  1  0        0
  3  4  4  0        0
  4  5  4  0        0
  5  6  4  0        0
  6  7  4  0        0
  7  8  4  0        0
  3  8  4  0        0
  8  9  1  0        0
  9 10  1  0        0
M  END
$$$$

CDXL12

 20 21  0  0  0  0  0  0  0  0999 V2000
   -2.1434    1.2928    0.0000 N   0  0  0  0  0  0  0  2  0  0  0  0
   -1.4289    0.8803    0.0000 S   0  0  0  0  0  0  0  2  0  0  0  0
   -1.0164    1.5947    0.0000 O   0  0  0  0  0  0  0  2  0  0  0  0
   -1.8414    0.1658    0.0000 O   0  0  0  0  0  0  0  2  0  0  0  0
   -0.7145    0.4678    0.0000 C   0  0  0  0  0  0  0  2  0  0  0  0
    0.0000    0.8803    0.0000 C   0  0  0  0  0  0  0  2  0  0  0  0
    0.7145    0.4678    0.0000 C   0  0  0  0  0  0  0  2  0  0  0  0
    0.7145   -0.3572    0.0000 C   0  0  0  0  0  0  0  2  0  0  0  0
    1.4289   -0.7697    0.0000 N   0  0  0  0  0  0  0  2  0  0  0  0
    2.1434   -0.3572    0.0000 C   0  0  0  0  0  0  0  2  0  0  0  0
    2.1434    0.4678    0.0000 N   0  0  0  0  0  0  0  2  0  0  0  0
    1.4289    0.8803    0.0000 S   0  0  0  0  0  0  0  2  0  0  0  0
    1.8414    1.5947    0.0000 O   0  0  0  0  0  0  0  2  0  0  0  0
    1.0164    1.5947    0.0000 O   0  0  0  0  0  0  0  2  0  0  0  0
    0.0000   -0.7697    0.0000 C   0  0  0  0  0  0  0  2  0  0  0  0
   -0.7145   -0.3572    0.0000 C   0  0  0  0  0  0  0  2  0  0  0  0
   -1.4289   -0.7697    0.0000 C   0  0  0  0  0  0  0  2  0  0  0  0
   -2.1434   -1.1822    0.0000 F   0  0  0  0  0  0  0  2  0  0  0  0
   -1.4289   -1.5947    0.0000 F   0  0  0  0  0  0  0  2  0  0  0  0
   -2.1434   -0.3572    0.0000 F   0  0  0  0  0  0  0  2  0  0  0  0
  1  2  1  0        0
  2  3  2  0        0
  2  4  2  0        0
  2  5  1  0        0
  5  6  4  0        0
  6  7  4  0        0
  7  8  4  0        0
  8  9  1  0        0
  9 10  1  0        0
 10 11  1  0        0
 11 12  1  0        0
  7 12  1  0        0
 12 13  2  0        0
 12 14  2  0        0
  8 15  4  0        0
 15 16  4  0        0
  5 16  4  0        0
 16 17  1  0        0
 17 18  1  0        0
 17 19  1  0        0
 17 20  1  0        0
M  END
$$$$

CDXL12

 11 12  0  0  0  0  0  0  0  0999 V2000
    1.7862    0.8250    0.0000 O   0  0  0  0  0  0  0  2  0  0  0  0
    1.0717    0.4125    0.0000 C   0  0  0  0  0  0  0  2  0  0  0  0
    1.0717   -0.4125    0.0000 C   0  0  0  0  0  0  0  2  0  0  0  0
    0.3572   -0.8250    0.0000 C   0  0  0  0  0  0  0  2  0  0  0  0
   -0.3572   -0.4125    0.0000 C   0  0  0  0  0  0  0  2  0  0  0  0
   -0.3572    0.4125    0.0000 C   0  0  0  0  0  0  0  2  0  0  0  0
   -1.0717    0.8250    0.0000 C   0  0  0  0  0  0  0  2  0  0  0  0
   -1.7862    0.4125    0.0000 C   0  0  0  0  0  0  0  2  0  0  0  0
   -1.7862   -0.4125    0.0000 C   0  0  0  0  0  0  0  2  0  0  0  0
   -1.0717   -0.8250    0.0000 C   0  0  0  0  0  0  0  2  0  0  0  0
    0.3572    0.8250    0.0000 C   0  0  0  0  0  0  0  2  0  0  0  0
  1  2  1  0        0
  2  3  4  0        0
  3  4  4  0        0
  4  5  4  0        0
  5  6  4  0        0
  6  7  4  0        0
  7  8  4  0        0
  8  9  4  0        0
  9 10  4  0        0
  5 10  4  0        0
  6 11  4  0        0
  2 11  4  0        0
M  END
$$$$

CDXL12

 10 10  0  0  0  0  0  0  0  0999 V2000
   -0.3572   -0.0000    0.0000 C   0  0  0  0  0  0  0  2  0  0  0  0
   -1.0717   -0.4125    0.0000 C   0  0  0  0  0  0  0  2  0  0  0  0
   -1.7862    0.0000    0.0000 C   0  0  0  0  0  0  0  2  0  0  0  0
   -1.7862    0.8250    0.0000 C   0  0  0  0  0  0  0  2  0  0  0  0
   -1.0717    1.2375    0.0000 C   0  0  0  0  0  0  0  2  0  0  0  0
   -0.3572    0.8250    0.0000 C   0  0  0  0  0  0  0  2  0  0  0  0
    0.3572   -0.4125    0.0000 C   0  0  0  0  0  0  0  2  0  0  0  0
    1.0717    0.0000    0.0000 C   0  0  0  0  0  0  0  2  0  0  0  0
    1.7862   -0.4125    0.0000 C   0  0  0  0  0  0  0  2  0  0  0  0
    0.3572   -1.2375    0.0000 C   0  0  0  0  0  0  0  2  0  0  0  0
  1  2  4  0        0
  2  3  4  0        0
  3  4  4  0        0
  4  5  4  0        0
  5  6  4  0        0
  1  6  4  0        0
  1  7  1  0        0
  7  8  1  0        0
  8  9  1  0        0
  7 10  1  0        0
M  END
$$$$

CDXL12

 15 16  0  0  0  0  0  0  0  0999 V2000
    0.7145   -0.8250    0.0000 N   0  0  0  0  0  0  0  2  0  0  0  0
    0.0000   -0.4125    0.0000 N   0  0  0  0  0  0  0  2  0  0  0  0
   -0.7145   -0.8250    0.0000 N   0  0  0  0  0  0  0  2  0  0  0  0
   -1.4289   -0.4125    0.0000 C   0  0  0  0  0  0  0  2  0  0  0  0
   -2.1434   -0.8250    0.0000 C   0  0  0  0  0  0  0  2  0  0  0  0
   -2.8579   -0.4125    0.0000 C   0  0  0  0  0  0  0  2  0  0  0  0
   -2.8579    0.4125    0.0000 C   0  0  0  0  0  0  0  2  0  0  0  0
   -2.1434    0.8250    0.0000 C   0  0  0  0  0  0  0  2  0  0  0  0
   -1.4289    0.4125    0.0000 C   0  0  0  0  0  0  0  2  0  0  0  0
    1.4289   -0.4125    0.0000 C   0  0  0  0  0  0  0  2  0  0  0  0
    1.4289    0.4125    0.0000 C   0  0  0  0  0  0  0  2  0  0  0  0
    2.1434    0.8250    0.0000 C   0  0  0  0  0  0  0  2  0  0  0  0
    2.8579    0.4125    0.0000 C   0  0  0  0  0  0  0  2  0  0  0  0
    2.8579   -0.4125    0.0000 C   0  0  0  0  0  0  0  2  0  0  0  0
    2.1434   -0.8250    0.0000 C   0  0  0  0  0  0  0  2  0  0  0  0
  1  2  2  0        0
  2  3  1  0        0
  3  4  1  0        0
  4  5  4  0        0
  5  6  4  0        0
  6  7  4  0        0
  7  8  4  0        0
  8  9  4  0        0
  4  9  4  0        0
  1 10  1  0        0
 10 11  4  0        0
 11 12  4  0        0
 12 13  4  0        0
 13 14  4  0        0
 14 15  4  0        0
 10 15  4  0        0
M  END
$$$$

CDXL12

 13 13  0  0  0  0  0  0  0  0999 V2000
   -0.7145   -1.2375    0.0000 O   0  0  0  0  0  0  0  2  0  0  0  0
   -0.7145   -0.4125    0.0000 C   0  0  0  0  0  0  0  2  0  0  0  0
   -0.0000    0.0000    0.0000 O   0  0  0  0  0  0  0  2  0  0  0  0
    0.7145   -0.4125    0.0000 C   0  0  0  0  0  0  0  2  0  0  0  0
    1.4289   -0.0000    0.0000 C   0  0  0  0  0  0  0  2  0  0  0  0
    2.1434   -0.4125    0.0000 C   0  0  0  0  0  0  0  2  0  0  0  0
    2.8579   -0.0000    0.0000 C   0  0  0  0  0  0  0  2  0  0  0  0
   -1.4289    0.0000    0.0000 C   0  0  0  0  0  0  0  2  0  0  0  0
   -1.4289    0.8250    0.0000 C   0  0  0  0  0  0  0  2  0  0  0  0
   -2.1434    1.2375    0.0000 C   0  0  0  0  0  0  0  2  0  0  0  0
   -2.8579    0.8250    0.0000 C   0  0  0  0  0  0  0  2  0  0  0  0
   -2.8579    0.0000    0.0000 C   0  0  0  0  0  0  0  2  0  0  0  0
   -2.1434   -0.4125    0.0000 C   0  0  0  0  0  0  0  2  0  0  0  0
  1  2  2  0        0
  2  3  1  0        0
  3  4  1  0        0
  4  5  1  0        0
  5  6  1  0        0
  6  7  1  0        0
  2  8  1  0        0
  8  9  4  0        0
  9 10  4  0        0
 10 11  4  0        0
 11 12  4  0        0
 12 13  4  0        0
  8 13  4  0        0
M  END
$$$$

CDXL12

 14 14  0  0  0  0  0  0  0  0999 V2000
    0.3572    0.8250    0.0000 O   0  0  0  0  0  0  0  2  0  0  0  0
    1.0717    0.4125    0.0000 C   0  0  0  0  0  0  0  2  0  0  0  0
    1.0717   -0.4125    0.0000 C   0  0  0  0  0  0  0  2  0  0  0  0
    1.7862   -0.8250    0.0000 C   0  0  0  0  0  0  0  2  0  0  0  0
    2.5006   -0.4125    0.0000 C   0  0  0  0  0  0  0  2  0  0  0  0
    2.5006    0.4125    0.0000 C   0  0  0  0  0  0  0  2  0  0  0  0
    3.2151    0.8250    0.0000 O   0  0  0  0  0  0  0  2  0  0  0  0
    1.7862    0.8250    0.0000 C   0  0  0  0  0  0  0  2  0  0  0  0
    0.3572   -0.8250    0.0000 C   0  0  0  0  0  0  0  2  0  0  0  0
   -0.3572   -0.4125    0.0000 C   0  0  0  0  0  0  0  2  0  0  0  0
   -1.0717   -0.8250    0.0000 C   0  0  0  0  0  0  0  2  0  0  0  0
   -1.7862   -0.4125    0.0000 C   0  0  0  0  0  0  0  2  0  0  0  0
   -2.5006   -0.8250    0.0000 C   0  0  0  0  0  0  0  2  0  0  0  0
   -3.2151   -0.4125    0.0000 C   0  0  0  0  0  0  0  2  0  0  0  0
  1  2  1  0        0
  2  3  4  0        0
  3  4  4  0        0
  4  5  4  0        0
  5  6  4  0        0
  6  7  1  0        0
  6  8  4  0        0
  2  8  4  0        0
  3  9  1  0        0
  9 10  1  0        0
 10 11  1  0        0
 11 12  1  0        0
 12 13  1  0        0
 13 14  1  0        0
M  END
$$$$

CDXL12

 10 10  0  0  0  0  0  0  0  0999 V2000
    1.4289   -0.8250    0.0000 C   0  0  0  0  0  0  0  2  0  0  0  0
    0.7145   -0.4125    0.0000 C   0  0  0  0  0  0  0  2  0  0  0  0
    0.0000   -0.8250    0.0000 C   0  0  0  0  0  0  0  2  0  0  0  0
   -0.7145   -0.4125    0.0000 C   0  0  0  0  0  0  0  2  0  0  0  0
   -1.4289   -0.8250    0.0000 C   0  0  0  0  0  0  0  2  0  0  0  0
   -0.7145    0.4125    0.0000 C   0  0  0  0  0  0  0  2  0  0  0  0
   -1.4289    0.8250    0.0000 N   0  0  0  0  0  0  0  2  0  0  0  0
    0.0000    0.8250    0.0000 C   0  0  0  0  0  0  0  2  0  0  0  0
    0.7145    0.4125    0.0000 C   0  0  0  0  0  0  0  2  0  0  0  0
    1.4289    0.8250    0.0000 C   0  0  0  0  0  0  0  2  0  0  0  0
  1  2  1  0        0
  2  3  4  0        0
  3  4  4  0        0
  4  5  1  0        0
  4  6  4  0        0
  6  7  1  0        0
  6  8  4  0        0
  8  9  4  0        0
  2  9  4  0        0
  9 10  1  0        0
M  END
$$$$

CDXL12

 12 11  0  0  0  0  0  0  0  0999 V2000
    1.7862    0.2062    0.0000 N   0  0  0  0  0  0  0  2  0  0  0  0
    1.0717   -0.2062    0.0000 C   0  0  0  0  0  0  0  2  0  0  0  0
    1.0717   -1.0313    0.0000 S   0  0  0  0  0  0  0  2  0  0  0  0
    0.3572    0.2062    0.0000 S   0  0  0  0  0  0  0  2  0  0  0  0
   -0.3572   -0.2062    0.0000 S   0  0  0  0  0  0  0  2  0  0  0  0
   -1.0717    0.2062    0.0000 C   0  0  0  0  0  0  0  2  0  0  0  0
   -1.7862   -0.2062    0.0000 N   0  0  0  0  0  0  0  2  0  0  0  0
   -1.7862   -1.0313    0.0000 C   0  0  0  0  0  0  0  2  0  0  0  0
   -2.5006    0.2062    0.0000 C   0  0  0  0  0  0  0  2  0  0  0  0
   -1.0717    1.0312    0.0000 S   0  0  0  0  0  0  0  2  0  0  0  0
    1.7862    1.0313    0.0000 C   0  0  0  0  0  0  0  2  0  0  0  0
    2.5006   -0.2062    0.0000 C   0  0  0  0  0  0  0  2  0  0  0  0
  1  2  1  0        0
  2  3  2  0        0
  2  4  1  0        0
  4  5  1  0        0
  5  6  1  0        0
  6  7  1  0        0
  7  8  1  0        0
  7  9  1  0        0
  6 10  2  0        0
  1 11  1  0        0
  1 12  1  0        0
M  END
$$$$

CDXL12

 13 12  0  0  0  0  0  0  0  0999 V2000
   -2.1434   -1.0312    0.0000 C   0  0  0  0  0  0  0  2  0  0  0  0
   -2.1434   -0.2062    0.0000 N   0  0  0  0  0  0  0  2  0  0  0  0
   -2.8579    0.2063    0.0000 C   0  0  0  0  0  0  0  2  0  0  0  0
   -1.4289    0.2062    0.0000 C   0  0  0  0  0  0  0  2  0  0  0  0
   -1.4289    1.0312    0.0000 S   0  0  0  0  0  0  0  2  0  0  0  0
   -0.7145   -0.2062    0.0000 S   0  0  0  0  0  0  0  2  0  0  0  0
    0.0000    0.2062    0.0000 Zn  0  0  0  0  0  0  0  2  0  0  0  0
    0.7145   -0.2062    0.0000 S   0  0  0  0  0  0  0  2  0  0  0  0
    1.4289    0.2062    0.0000 C   0  0  0  0  0  0  0  2  0  0  0  0
    1.4289    1.0312    0.0000 S   0  0  0  0  0  0  0  2  0  0  0  0
    2.1434   -0.2062    0.0000 N   0  0  0  0  0  0  0  2  0  0  0  0
    2.8579    0.2062    0.0000 C   0  0  0  0  0  0  0  2  0  0  0  0
    2.1434   -1.0312    0.0000 C   0  0  0  0  0  0  0  2  0  0  0  0
  1  2  1  0        0
  2  3  1  0        0
  2  4  1  0        0
  4  5  2  0        0
  4  6  1  0        0
  6  7  1  0        0
  7  8  1  0        0
  8  9  1  0        0
  9 10  2  0        0
  9 11  1  0        0
 11 12  1  0        0
 11 13  1  0        0
M  END
$$$$

CDXL12

  6  5  0  0  0  0  0  0  0  0999 V2000
    1.4289   -0.2062    0.0000 O   0  0  0  0  0  0  0  2  0  0  0  0
    0.7145   -0.6188    0.0000 C   0  0  0  0  0  0  0  2  0  0  0  0
    0.0000   -0.2062    0.0000 C   0  0  0  0  0  0  0  2  0  0  0  0
   -0.7145   -0.6187    0.0000 C   0  0  0  0  0  0  0  2  0  0  0  0
   -1.4289   -0.2062    0.0000 C   0  0  0  0  0  0  0  2  0  0  0  0
    0.0000    0.6188    0.0000 C   0  0  0  0  0  0  0  2  0  0  0  0
  1  2  1  0        0
  2  3  1  0        0
  3  4  1  0        0
  4  5  1  0        0
  3  6  1  0        0
M  END
$$$$

CDXL12

  6  5  0  0  0  0  0  0  0  0999 V2000
   -1.4289   -0.2062    0.0000 C   0  0  0  0  0  0  0  2  0  0  0  0
   -0.7145   -0.6188    0.0000 N   0  0  0  0  0  0  0  2  0  0  0  0
   -0.0000   -0.2062    0.0000 C   0  0  0  0  0  0  0  2  0  0  0  0
   -0.0000    0.6188    0.0000 S   0  0  0  0  0  0  0  2  0  0  0  0
    0.7145   -0.6187    0.0000 S   0  0  0  0  0  0  0  2  0  0  0  0
    1.4289   -0.2062    0.0000 Na  0  0  0  0  0  0  0  2  0  0  0  0
  1  2  1  0        0
  2  3  1  0        0
  3  4  2  0        0
  3  5  1  0        0
  5  6  1  0        0
M  END
$$$$

CDXL12

 17 17  0  0  0  0  0  0  0  0999 V2000
    0.0000    0.8250    0.0000 O   0  0  0  0  0  0  0  2  0  0  0  0
    0.0000    0.0000    0.0000 C   0  0  0  0  0  0  0  2  0  0  0  0
    0.7145   -0.4125    0.0000 N   0  0  0  0  0  0  0  2  0  0  0  0
    1.4289    0.0000    0.0000 C   0  0  0  0  0  0  0  2  0  0  0  0
    1.4289    0.8250    0.0000 C   0  0  0  0  0  0  0  2  0  0  0  0
    2.1434    1.2375    0.0000 C   0  0  0  0  0  0  0  2  0  0  0  0
    2.8579    0.8250    0.0000 C   0  0  0  0  0  0  0  2  0  0  0  0
    2.8579    0.0000    0.0000 C   0  0  0  0  0  0  0  2  0  0  0  0
    2.1434   -0.4125    0.0000 C   0  0  0  0  0  0  0  2  0  0  0  0
    2.1434   -1.2375    0.0000 C   0  0  0  0  0  0  0  2  0  0  0  0
    0.7145    1.2375    0.0000 C   0  0  0  0  0  0  0  2  0  0  0  0
   -0.7145   -0.4125    0.0000 C   0  0  0  0  0  0  0  2  0  0  0  0
   -1.4289    0.0000    0.0000 N   0  0  0  0  0  0  0  2  0  0  0  0
   -2.1434   -0.4125    0.0000 C   0  0  0  0  0  0  0  2  0  0  0  0
   -2.8579    0.0000    0.0000 C   0  0  0  0  0  0  0  2  0  0  0  0
   -1.4289    0.8250    0.0000 C   0  0  0  0  0  0  0  2  0  0  0  0
   -2.1434    1.2375    0.0000 C   0  0  0  0  0  0  0  2  0  0  0  0
  1  2  2  0        0
  2  3  1  0        0
  3  4  1  0        0
  4  5  4  0        0
  5  6  4  0        0
  6  7  4  0        0
  7  8  4  0        0
  8  9  4  0        0
  4  9  4  0        0
  9 10  1  0        0
  5 11  1  0        0
  2 12  1  0        0
 12 13  1  0        0
 13 14  1  0        0
 14 15  1  0        0
 13 16  1  0        0
 16 17  1  0        0
M  END
$$$$

CDXL12

 10  9  0  0  0  0  0  0  0  0999 V2000
   -1.0717    1.0312    0.0000 O   0  0  0  0  0  0  0  2  0  0  0  0
   -1.0717    0.2062    0.0000 C   0  0  0  0  0  0  0  2  0  0  0  0
   -0.3572   -0.2063    0.0000 O   0  0  0  0  0  0  0  2  0  0  0  0
    0.3572    0.2062    0.0000 C   0  0  0  0  0  0  0  2  0  0  0  0
    1.0717   -0.2063    0.0000 C   0  0  0  0  0  0  0  2  0  0  0  0
    1.7862    0.2062    0.0000 C   0  0  0  0  0  0  0  2  0  0  0  0
    2.5006   -0.2063    0.0000 C   0  0  0  0  0  0  0  2  0  0  0  0
   -1.7862   -0.2063    0.0000 C   0  0  0  0  0  0  0  2  0  0  0  0
   -1.7862   -1.0312    0.0000 O   0  0  0  0  0  0  0  2  0  0  0  0
   -2.5006    0.2062    0.0000 C   0  0  0  0  0  0  0  2  0  0  0  0
  1  2  2  0        0
  2  3  1  0        0
  3  4  1  0        0
  4  5  1  0        0
  5  6  1  0        0
  6  7  1  0        0
  2  8  1  0        0
  8  9  1  0        0
  8 10  1  0        0
M  END
$$$$

CDXL12

 20 21  0  0  0  0  0  0  0  0999 V2000
    0.7145    0.6187    0.0000 O   0  0  0  0  0  0  0  2  0  0  0  0
    1.4289    0.2062    0.0000 C   0  0  0  0  0  0  0  2  0  0  0  0
    1.4289   -0.6188    0.0000 C   0  0  0  0  0  0  0  2  0  0  0  0
    2.1434   -1.0313    0.0000 O   0  0  0  0  0  0  0  2  0  0  0  0
    0.7145   -1.0312    0.0000 C   0  0  0  0  0  0  0  2  0  0  0  0
    0.7145   -1.8562    0.0000 O   0  0  0  0  0  0  0  2  0  0  0  0
    0.0000   -0.6188    0.0000 C   0  0  0  0  0  0  0  2  0  0  0  0
   -0.7145   -1.0312    0.0000 O   0  0  0  0  0  0  0  2  0  0  0  0
    0.0000    0.2062    0.0000 C   0  0  0  0  0  0  0  2  0  0  0  0
   -0.7145    0.6187    0.0000 O   0  0  0  0  0  0  0  2  0  0  0  0
   -1.4289    0.2062    0.0000 C   0  0  0  0  0  0  0  2  0  0  0  0
   -2.1434    0.6187    0.0000 C   0  0  0  0  0  0  0  2  0  0  0  0
   -2.8579    0.2062    0.0000 C   0  0  0  0  0  0  0  2  0  0  0  0
   -2.8579   -0.6188    0.0000 C   0  0  0  0  0  0  0  2  0  0  0  0
   -2.1434   -1.0312    0.0000 C   0  0  0  0  0  0  0  2  0  0  0  0
   -1.4289   -0.6188    0.0000 C   0  0  0  0  0  0  0  2  0  0  0  0
   -2.1434    1.4437    0.0000 C   0  0  0  0  0  0  0  2  0  0  0  0
   -2.8579    1.8562    0.0000 O   0  0  0  0  0  0  0  2  0  0  0  0
    2.1434    0.6187    0.0000 C   0  0  0  0  0  0  0  2  0  0  0  0
    2.8579    0.2062    0.0000 O   0  0  0  0  0  0  0  2  0  0  0  0
  1  2  1  0        0
  2  3  1  0        0
  3  4  1  0        0
  3  5  1  0        0
  5  6  1  0        0
  5  7  1  0        0
  7  8  1  0        0
  7  9  1  0        0
  1  9  1  0        0
  9 10  1  0        0
 10 11  1  0        0
 11 12  4  0        0
 12 13  4  0        0
 13 14  4  0        0
 14 15  4  0        0
 15 16  4  0        0
 11 16  4  0        0
 12 17  1  0        0
 17 18  1  0        0
  2 19  1  0        0
 19 20  1  0        0
M  END
$$$$

CDXL12

 12 12  0  0  0  0  0  0  0  0999 V2000
   -1.7862    0.8250    0.0000 O   0  0  0  0  0  0  0  2  0  0  0  0
   -1.0717    0.4125    0.0000 C   0  0  0  0  0  0  0  2  0  0  0  0
   -0.3572    0.8250    0.0000 C   0  0  0  0  0  0  0  2  0  0  0  0
    0.3572    0.4125    0.0000 C   0  0  0  0  0  0  0  2  0  0  0  0
    0.3572   -0.4125    0.0000 C   0  0  0  0  0  0  0  2  0  0  0  0
   -0.3572   -0.8250    0.0000 C   0  0  0  0  0  0  0  2  0  0  0  0
   -0.3572   -1.6500    0.0000 O   0  0  0  0  0  0  0  2  0  0  0  0
   -1.0717   -0.4125    0.0000 C   0  0  0  0  0  0  0  2  0  0  0  0
   -1.7862   -0.8250    0.0000 O   0  0  0  0  0  0  0  2  0  0  0  0
    1.0717    0.8250    0.0000 C   0  0  0  0  0  0  0  2  0  0  0  0
    1.7862    0.4125    0.0000 O   0  0  0  0  0  0  0  2  0  0  0  0
    1.0717    1.6500    0.0000 O   0  0  0  0  0  0  0  2  0  0  0  0
  1  2  1  0        0
  2  3  1  0        0
  3  4  1  0        0
  4  5  2  0        0
  5  6  1  0        0
  6  7  1  0        0
  6  8  1  0        0
  2  8  1  0        0
  8  9  1  0        0
  4 10  1  0        0
 10 11  1  0        0
 10 12  2  0        0
M  END
$$$$

CDXL12

  0  0  0  0  0  0  0  0  0  0999 V2000
M  END
$$$$

CDXL12

 13 12  0  0  0  0  0  0  0  0999 V2000
   -1.0717    0.6187    0.0000 O   0  0  0  0  0  0  0  2  0  0  0  0
   -1.0717   -0.2062    0.0000 C   0  0  0  0  0  0  0  2  0  0  0  0
   -1.7862   -0.6188    0.0000 O   0  0  0  0  0  0  0  2  0  0  0  0
   -0.3572   -0.6188    0.0000 C   0  0  0  0  0  0  0  2  0  0  0  0
    0.3572   -0.2062    0.0000 N   0  0  0  0  0  0  0  2  0  0  0  0
    1.0717   -0.6188    0.0000 C   0  0  0  0  0  0  0  2  0  0  0  0
    1.0717   -1.4438    0.0000 C   0  0  0  0  0  0  0  2  0  0  0  0
    0.3572   -1.8563    0.0000 O   0  0  0  0  0  0  0  2  0  0  0  0
    1.7862   -1.8563    0.0000 O   0  0  0  0  0  0  0  2  0  0  0  0
    0.3572    0.6187    0.0000 C   0  0  0  0  0  0  0  2  0  0  0  0
    1.0717    1.0313    0.0000 C   0  0  0  0  0  0  0  2  0  0  0  0
    1.0717    1.8563    0.0000 O   0  0  0  0  0  0  0  2  0  0  0  0
    1.7862    0.6188    0.0000 O   0  0  0  0  0  0  0  2  0  0  0  0
  1  2  2  0        0
  2  3  1  0        0
  2  4  1  0        0
  4  5  1  0        0
  5  6  1  0        0
  6  7  1  0        0
  7  8  2  0        0
  7  9  1  0        0
  5 10  1  0        0
 10 11  1  0        0
 11 12  2  0        0
 11 13  1  0        0
M  END
$$$$

CDXL12

 18 17  0  0  0  0  0  0  0  0999 V2000
   -2.1434   -1.6500    0.0000 O   0  0  0  0  0  0  0  2  0  0  0  0
   -2.1434   -0.8250    0.0000 C   0  0  0  0  0  0  0  2  0  0  0  0
   -1.4289   -0.4125    0.0000 O   0  0  0  0  0  0  0  2  0  0  0  0
   -0.7145   -0.8250    0.0000 C   0  0  0  0  0  0  0  2  0  0  0  0
    0.0000   -0.4125    0.0000 C   0  0  0  0  0  0  0  2  0  0  0  0
    0.0000    0.4125    0.0000 O   0  0  0  0  0  0  0  2  0  0  0  0
   -0.7145    0.8250    0.0000 C   0  0  0  0  0  0  0  2  0  0  0  0
   -0.7145    1.6500    0.0000 O   0  0  0  0  0  0  0  2  0  0  0  0
   -1.4289    0.4125    0.0000 C   0  0  0  0  0  0  0  2  0  0  0  0
   -2.1434    0.8250    0.0000 C   0  0  0  0  0  0  0  2  0  0  0  0
    0.7145   -0.8250    0.0000 C   0  0  0  0  0  0  0  2  0  0  0  0
    1.4289   -0.4125    0.0000 O   0  0  0  0  0  0  0  2  0  0  0  0
    2.1434   -0.8250    0.0000 C   0  0  0  0  0  0  0  2  0  0  0  0
    2.1434   -1.6500    0.0000 O   0  0  0  0  0  0  0  2  0  0  0  0
    2.8579   -0.4125    0.0000 C   0  0  0  0  0  0  0  2  0  0  0  0
    3.5724   -0.8250    0.0000 C   0  0  0  0  0  0  0  2  0  0  0  0
   -2.8579   -0.4125    0.0000 C   0  0  0  0  0  0  0  2  0  0  0  0
   -3.5724   -0.8250    0.0000 C   0  0  0  0  0  0  0  2  0  0  0  0
  1  2  2  0        0
  2  3  1  0        0
  3  4  1  0        0
  4  5  1  0        0
  5  6  1  0        0
  6  7  1  0        0
  7  8  2  0        0
  7  9  1  0        0
  9 10  1  0        0
  5 11  1  0        0
 11 12  1  0        0
 12 13  1  0        0
 13 14  2  0        0
 13 15  1  0        0
 15 16  1  0        0
  2 17  1  0        0
 17 18  1  0        0
M  END
$$$$

CDXL12

 11 11  0  0  0  0  0  0  0  0999 V2000
    1.4289    1.2375    0.0000 O   0  0  0  0  0  0  0  2  0  0  0  0
    1.4289    0.4125    0.0000 C   0  0  0  0  0  0  0  2  0  0  0  0
    2.1434    0.0000    0.0000 O   0  0  0  0  0  0  0  2  0  0  0  0
    0.7145    0.0000    0.0000 C   0  0  0  0  0  0  0  2  0  0  0  0
    0.0000    0.4125    0.0000 C   0  0  0  0  0  0  0  2  0  0  0  0
   -0.7145    0.0000    0.0000 C   0  0  0  0  0  0  0  2  0  0  0  0
   -0.7145   -0.8250    0.0000 C   0  0  0  0  0  0  0  2  0  0  0  0
   -1.4289   -1.2375    0.0000 C   0  0  0  0  0  0  0  2  0  0  0  0
   -2.1434   -0.8250    0.0000 C   0  0  0  0  0  0  0  2  0  0  0  0
   -2.1434   -0.0000    0.0000 C   0  0  0  0  0  0  0  2  0  0  0  0
   -1.4289    0.4125    0.0000 C   0  0  0  0  0  0  0  2  0  0  0  0
  1  2  2  0        0
  2  3  1  0        0
  2  4  1  0        0
  4  5  2  0        0
  5  6  1  0        0
  6  7  4  0        0
  7  8  4  0        0
  8  9  4  0        0
  9 10  4  0        0
 10 11  4  0        0
  6 11  4  0        0
M  END
$$$$

CDXL12

 11 11  0  0  0  0  0  0  0  0999 V2000
   -1.4289    1.2375    0.0000 O   0  0  0  0  0  0  0  2  0  0  0  0
   -1.4289    0.4125    0.0000 C   0  0  0  0  0  0  0  2  0  0  0  0
   -0.7145    0.0000    0.0000 O   0  0  0  0  0  0  0  2  0  0  0  0
   -0.0000    0.4125    0.0000 C   0  0  0  0  0  0  0  2  0  0  0  0
    0.7145    0.0000    0.0000 C   0  0  0  0  0  0  0  2  0  0  0  0
    0.7145   -0.8250    0.0000 C   0  0  0  0  0  0  0  2  0  0  0  0
    1.4289   -1.2375    0.0000 C   0  0  0  0  0  0  0  2  0  0  0  0
    2.1434   -0.8250    0.0000 C   0  0  0  0  0  0  0  2  0  0  0  0
    2.1434   -0.0000    0.0000 C   0  0  0  0  0  0  0  2  0  0  0  0
    1.4289    0.4125    0.0000 C   0  0  0  0  0  0  0  2  0  0  0  0
   -2.1434    0.0000    0.0000 C   0  0  0  0  0  0  0  2  0  0  0  0
  1  2  2  0        0
  2  3  1  0        0
  3  4  1  0        0
  4  5  1  0        0
  5  6  4  0        0
  6  7  4  0        0
  7  8  4  0        0
  8  9  4  0        0
  9 10  4  0        0
  5 10  4  0        0
  2 11  1  0        0
M  END
$$$$

CDXL12

  9  9  0  0  0  0  0  0  0  0999 V2000
   -1.7862   -0.0000    0.0000 N   0  0  0  0  0  0  0  2  0  0  0  0
   -1.0717   -0.4125    0.0000 C   0  0  0  0  0  0  0  2  0  0  0  0
   -0.3572   -0.8250    0.0000 C   0  0  0  0  0  0  0  2  0  0  0  0
    0.3572   -0.4125    0.0000 C   0  0  0  0  0  0  0  2  0  0  0  0
    0.3572    0.4125    0.0000 C   0  0  0  0  0  0  0  2  0  0  0  0
    1.0717    0.8250    0.0000 C   0  0  0  0  0  0  0  2  0  0  0  0
    1.7862    0.4125    0.0000 C   0  0  0  0  0  0  0  2  0  0  0  0
    1.7862   -0.4125    0.0000 C   0  0  0  0  0  0  0  2  0  0  0  0
    1.0717   -0.8250    0.0000 C   0  0  0  0  0  0  0  2  0  0  0  0
  1  2  3  0        0
  2  3  1  0        0
  3  4  1  0        0
  4  5  4  0        0
  5  6  4  0        0
  6  7  4  0        0
  7  8  4  0        0
  8  9  4  0        0
  4  9  4  0        0
M  END
$$$$

CDXL12

 16 16  0  0  0  0  0  0  0  0999 V2000
   -2.5006    1.5947    0.0000 C   0  0  0  0  0  0  0  2  0  0  0  0
   -2.5006    0.7697    0.0000 N   0  0  0  0  0  0  0  2  0  0  0  0
   -3.2151    0.3572    0.0000 C   0  0  0  0  0  0  0  2  0  0  0  0
   -1.7862    0.3572    0.0000 C   0  0  0  0  0  0  0  2  0  0  0  0
   -1.7862   -0.4678    0.0000 C   0  0  0  0  0  0  0  2  0  0  0  0
   -1.0717   -0.8803    0.0000 C   0  0  0  0  0  0  0  2  0  0  0  0
   -0.3572   -0.4678    0.0000 C   0  0  0  0  0  0  0  2  0  0  0  0
    0.3572   -0.8803    0.0000 N   0  0  0  0  0  0  0  2  0  0  0  0
    1.0717   -0.4678    0.0000 N   0  0  0  0  0  0  0  2  0  0  0  0
    1.7862   -0.8803    0.0000 S   0  0  0  0  0  0  0  2  0  0  0  0
    2.5006   -1.2928    0.0000 O   0  0  0  0  0  0  0  2  0  0  0  0
    3.2151   -0.8803    0.0000 Na  0  0  0  0  0  0  0  2  0  0  0  0
    2.1987   -0.1658    0.0000 O   0  0  0  0  0  0  0  2  0  0  0  0
    1.3737   -1.5947    0.0000 O   0  0  0  0  0  0  0  2  0  0  0  0
   -0.3572    0.3572    0.0000 C   0  0  0  0  0  0  0  2  0  0  0  0
   -1.0717    0.7697    0.0000 C   0  0  0  0  0  0  0  2  0  0  0  0
  1  2  1  0        0
  2  3  1  0        0
  2  4  1  0        0
  4  5  4  0        0
  5  6  4  0        0
  6  7  4  0        0
  7  8  1  0        0
  8  9  2  0        0
  9 10  1  0        0
 10 11  1  0        0
 11 12  1  0        0
 10 13  2  0        0
 10 14  2  0        0
  7 15  4  0        0
 15 16  4  0        0
  4 16  4  0        0
M  END
$$$$

CDXL12

 10 10  0  0  0  0  0  0  0  0999 V2000
    1.3673    1.1148    0.0000 O   0  0  0  0  0  0  0  2  0  0  0  0
    1.3673    0.2898    0.0000 C   0  0  0  0  0  0  0  2  0  0  0  0
    2.0818   -0.1227    0.0000 O   0  0  0  0  0  0  0  2  0  0  0  0
    0.6529   -0.1227    0.0000 C   0  0  0  0  0  0  0  2  0  0  0  0
   -0.0616    0.2898    0.0000 C   0  0  0  0  0  0  0  2  0  0  0  0
   -0.7761   -0.1227    0.0000 C   0  0  0  0  0  0  0  2  0  0  0  0
   -0.8623   -0.9432    0.0000 C   0  0  0  0  0  0  0  2  0  0  0  0
   -1.6693   -1.1148    0.0000 C   0  0  0  0  0  0  0  2  0  0  0  0
   -2.0818   -0.4003    0.0000 C   0  0  0  0  0  0  0  2  0  0  0  0
   -1.5298    0.2128    0.0000 C   0  0  0  0  0  0  0  2  0  0  0  0
  1  2  2  0        0
  2  3  1  0        0
  2  4  1  0        0
  4  5  1  0        0
  5  6  1  0        0
  6  7  1  0        0
  7  8  1  0        0
  8  9  1  0        0
  9 10  1  0        0
  6 10  1  0        0
M  END
$$$$

CDXL12

  8  7  0  0  0  0  0  0  0  0999 V2000
    1.0717    0.6187    0.0000 C   0  0  0  0  0  0  0  2  0  0  0  0
    1.0717   -0.2062    0.0000 C   0  0  0  0  0  0  0  2  0  0  0  0
    1.7862   -0.6187    0.0000 C   0  0  0  0  0  0  0  2  0  0  0  0
    0.3572   -0.6187    0.0000 O   0  0  0  0  0  0  0  2  0  0  0  0
   -0.3572   -0.2062    0.0000 C   0  0  0  0  0  0  0  2  0  0  0  0
   -0.3572    0.6187    0.0000 S   0  0  0  0  0  0  0  2  0  0  0  0
   -1.0717   -0.6187    0.0000 S   0  0  0  0  0  0  0  2  0  0  0  0
   -1.7862   -0.2062    0.0000 Na  0  0  0  0  0  0  0  2  0  0  0  0
  1  2  1  0        0
  2  3  1  0        0
  2  4  1  0        0
  4  5  1  0        0
  5  6  2  0        0
  5  7  1  0        0
  7  8  1  0        0
M  END
$$$$

CDXL12

  8  7  0  0  0  0  0  0  0  0999 V2000
    0.0000    0.6188    0.0000 O   0  0  0  0  0  0  0  2  0  0  0  0
    0.0000   -0.2062    0.0000 C   0  0  0  0  0  0  0  2  0  0  0  0
   -0.7145   -0.6187    0.0000 N   0  0  0  0  0  0  0  2  0  0  0  0
   -1.4289   -0.2062    0.0000 C   0  0  0  0  0  0  0  2  0  0  0  0
   -2.1434   -0.6187    0.0000 O   0  0  0  0  0  0  0  2  0  0  0  0
    0.7145   -0.6188    0.0000 N   0  0  0  0  0  0  0  2  0  0  0  0
    1.4289   -0.2062    0.0000 C   0  0  0  0  0  0  0  2  0  0  0  0
    2.1434   -0.6188    0.0000 O   0  0  0  0  0  0  0  2  0  0  0  0
  1  2  2  0        0
  2  3  1  0        0
  3  4  1  0        0
  4  5  1  0        0
  2  6  1  0        0
  6  7  1  0        0
  7  8  1  0        0
M  END
$$$$

CDXL12

 21 20  0  0  0  0  0  0  0  0999 V2000
    5.7158    1.0312    0.0000 O   0  0  0  0  0  0  0  2  0  0  0  0
    5.7158    0.2062    0.0000 C   0  0  0  0  0  0  0  2  0  0  0  0
    6.4302   -0.2062    0.0000 O   0  0  0  0  0  0  0  2  0  0  0  0
    5.0013   -0.2062    0.0000 C   0  0  0  0  0  0  0  2  0  0  0  0
    4.2868    0.2062    0.0000 C   0  0  0  0  0  0  0  2  0  0  0  0
    3.5724   -0.2062    0.0000 C   0  0  0  0  0  0  0  2  0  0  0  0
    2.8579    0.2062    0.0000 C   0  0  0  0  0  0  0  2  0  0  0  0
    2.1434   -0.2062    0.0000 C   0  0  0  0  0  0  0  2  0  0  0  0
    1.4289    0.2062    0.0000 C   0  0  0  0  0  0  0  2  0  0  0  0
    0.7145   -0.2062    0.0000 C   0  0  0  0  0  0  0  2  0  0  0  0
   -0.0000    0.2062    0.0000 C   0  0  0  0  0  0  0  2  0  0  0  0
   -0.7145   -0.2062    0.0000 C   0  0  0  0  0  0  0  2  0  0  0  0
   -1.4289    0.2063    0.0000 C   0  0  0  0  0  0  0  2  0  0  0  0
   -2.1434   -0.2062    0.0000 C   0  0  0  0  0  0  0  2  0  0  0  0
   -2.1434   -1.0312    0.0000 O   0  0  0  0  0  0  0  2  0  0  0  0
   -2.8579    0.2062    0.0000 C   0  0  0  0  0  0  0  2  0  0  0  0
   -3.5724   -0.2062    0.0000 C   0  0  0  0  0  0  0  2  0  0  0  0
   -4.2868    0.2062    0.0000 C   0  0  0  0  0  0  0  2  0  0  0  0
   -5.0013   -0.2062    0.0000 C   0  0  0  0  0  0  0  2  0  0  0  0
   -5.7158    0.2062    0.0000 C   0  0  0  0  0  0  0  2  0  0  0  0
   -6.4302   -0.2062    0.0000 C   0  0  0  0  0  0  0  2  0  0  0  0
  1  2  2  0        0
  2  3  1  0        0
  2  4  1  0        0
  4  5  1  0        0
  5  6  1  0        0
  6  7  1  0        0
  7  8  1  0        0
  8  9  1  0        0
  9 10  1  0        0
 10 11  1  0        0
 11 12  2  0        0
 12 13  1  0        0
 13 14  1  0        0
 14 15  1  0        0
 14 16  1  0        0
 16 17  1  0        0
 17 18  1  0        0
 18 19  1  0        0
 19 20  1  0        0
 20 21  1  0        0
M  END
$$$$

CDXL12

 14 13  0  0  0  0  0  0  0  0999 V2000
    1.7862   -1.0312    0.0000 O   0  0  0  0  0  0  0  2  0  0  0  0
    1.7862   -0.2062    0.0000 C   0  0  0  0  0  0  0  2  0  0  0  0
    2.5006    0.2063    0.0000 O   0  0  0  0  0  0  0  2  0  0  0  0
    3.2151   -0.2062    0.0000 C   0  0  0  0  0  0  0  2  0  0  0  0
    3.9296    0.2062    0.0000 C   0  0  0  0  0  0  0  2  0  0  0  0
    1.0717    0.2062    0.0000 C   0  0  0  0  0  0  0  2  0  0  0  0
    0.3572   -0.2062    0.0000 C   0  0  0  0  0  0  0  2  0  0  0  0
   -0.3572    0.2062    0.0000 C   0  0  0  0  0  0  0  2  0  0  0  0
   -1.0717   -0.2062    0.0000 C   0  0  0  0  0  0  0  2  0  0  0  0
   -1.7862    0.2062    0.0000 C   0  0  0  0  0  0  0  2  0  0  0  0
   -1.7862    1.0312    0.0000 O   0  0  0  0  0  0  0  2  0  0  0  0
   -2.5006   -0.2062    0.0000 O   0  0  0  0  0  0  0  2  0  0  0  0
   -3.2151    0.2062    0.0000 C   0  0  0  0  0  0  0  2  0  0  0  0
   -3.9296   -0.2062    0.0000 C   0  0  0  0  0  0  0  2  0  0  0  0
  1  2  2  0        0
  2  3  1  0        0
  3  4  1  0        0
  4  5  1  0        0
  2  6  1  0        0
  6  7  1  0        0
  7  8  1  0        0
  8  9  1  0        0
  9 10  1  0        0
 10 11  2  0        0
 10 12  1  0        0
 12 13  1  0        0
 13 14  1  0        0
M  END
$$$$

CDXL12

 17 16  0  0  0  0  0  0  0  0999 V2000
    2.8579    0.2062    0.0000 C   0  0  0  0  0  0  0  2  0  0  0  0
    2.1434   -0.2063    0.0000 Si  0  0  0  0  0  0  0  2  0  0  0  0
    2.1434    0.6187    0.0000 C   0  0  0  0  0  0  0  2  0  0  0  0
    2.8579   -0.6187    0.0000 C   0  0  0  0  0  0  0  2  0  0  0  0
    1.4289   -0.6187    0.0000 O   0  0  0  0  0  0  0  2  0  0  0  0
    0.7145   -0.2062    0.0000 Si  0  0  0  0  0  0  0  2  0  0  0  0
    1.1270    0.5082    0.0000 C   0  0  0  0  0  0  0  2  0  0  0  0
    0.3020    0.5082    0.0000 C   0  0  0  0  0  0  0  2  0  0  0  0
    0.0000   -0.6187    0.0000 O   0  0  0  0  0  0  0  2  0  0  0  0
   -0.7145   -0.2063    0.0000 Si  0  0  0  0  0  0  0  2  0  0  0  0
   -0.3020    0.5082    0.0000 C   0  0  0  0  0  0  0  2  0  0  0  0
   -1.1270    0.5082    0.0000 C   0  0  0  0  0  0  0  2  0  0  0  0
   -1.4289   -0.6187    0.0000 O   0  0  0  0  0  0  0  2  0  0  0  0
   -2.1434   -0.2063    0.0000 Si  0  0  0  0  0  0  0  2  0  0  0  0
   -2.8579   -0.6187    0.0000 C   0  0  0  0  0  0  0  2  0  0  0  0
   -2.1434    0.6187    0.0000 C   0  0  0  0  0  0  0  2  0  0  0  0
   -2.8579    0.2062    0.0000 C   0  0  0  0  0  0  0  2  0  0  0  0
  1  2  1  0        0
  2  3  1  0        0
  2  4  1  0        0
  2  5  1  0        0
  5  6  1  0        0
  6  7  1  0        0
  6  8  1  0        0
  6  9  1  0        0
  9 10  1  0        0
 10 11  1  0        0
 10 12  1  0        0
 10 13  1  0        0
 13 14  1  0        0
 14 15  1  0        0
 14 16  1  0        0
 14 17  1  0        0
M  END
$$$$

CDXL12

 21 20  0  0  0  0  0  0  0  0999 V2000
    3.5724    0.2062    0.0000 C   0  0  0  0  0  0  0  2  0  0  0  0
    2.8579   -0.2063    0.0000 Si  0  0  0  0  0  0  0  2  0  0  0  0
    2.8579    0.6187    0.0000 C   0  0  0  0  0  0  0  2  0  0  0  0
    3.5724   -0.6187    0.0000 C   0  0  0  0  0  0  0  2  0  0  0  0
    2.1434   -0.6187    0.0000 O   0  0  0  0  0  0  0  2  0  0  0  0
    1.4289   -0.2063    0.0000 Si  0  0  0  0  0  0  0  2  0  0  0  0
    1.8414    0.5082    0.0000 C   0  0  0  0  0  0  0  2  0  0  0  0
    1.0164    0.5082    0.0000 C   0  0  0  0  0  0  0  2  0  0  0  0
    0.7145   -0.6187    0.0000 O   0  0  0  0  0  0  0  2  0  0  0  0
   -0.0000   -0.2062    0.0000 Si  0  0  0  0  0  0  0  2  0  0  0  0
    0.4125    0.5082    0.0000 C   0  0  0  0  0  0  0  2  0  0  0  0
   -0.4125    0.5082    0.0000 C   0  0  0  0  0  0  0  2  0  0  0  0
   -0.7145   -0.6187    0.0000 O   0  0  0  0  0  0  0  2  0  0  0  0
   -1.4289   -0.2063    0.0000 Si  0  0  0  0  0  0  0  2  0  0  0  0
   -1.0164    0.5082    0.0000 C   0  0  0  0  0  0  0  2  0  0  0  0
   -1.8414    0.5082    0.0000 C   0  0  0  0  0  0  0  2  0  0  0  0
   -2.1434   -0.6187    0.0000 O   0  0  0  0  0  0  0  2  0  0  0  0
   -2.8579   -0.2063    0.0000 Si  0  0  0  0  0  0  0  2  0  0  0  0
   -3.5724   -0.6187    0.0000 C   0  0  0  0  0  0  0  2  0  0  0  0
   -2.8579    0.6187    0.0000 C   0  0  0  0  0  0  0  2  0  0  0  0
   -3.5724    0.2062    0.0000 C   0  0  0  0  0  0  0  2  0  0  0  0
  1  2  1  0        0
  2  3  1  0        0
  2  4  1  0        0
  2  5  1  0        0
  5  6  1  0        0
  6  7  1  0        0
  6  8  1  0        0
  6  9  1  0        0
  9 10  1  0        0
 10 11  1  0        0
 10 12  1  0        0
 10 13  1  0        0
 13 14  1  0        0
 14 15  1  0        0
 14 16  1  0        0
 14 17  1  0        0
 17 18  1  0        0
 18 19  1  0        0
 18 20  1  0        0
 18 21  1  0        0
M  END
$$$$

CDXL12

  6  5  0  0  0  0  0  0  0  0999 V2000
    0.7145    0.6187    0.0000 O   0  0  0  0  0  0  0  2  0  0  0  0
    0.7145   -0.2062    0.0000 C   0  0  0  0  0  0  0  2  0  0  0  0
    1.4289   -0.6187    0.0000 O   0  0  0  0  0  0  0  2  0  0  0  0
    0.0000   -0.6187    0.0000 C   0  0  0  0  0  0  0  2  0  0  0  0
   -0.7145   -0.2062    0.0000 C   0  0  0  0  0  0  0  2  0  0  0  0
   -1.4289   -0.6187    0.0000 I   0  0  0  0  0  0  0  2  0  0  0  0
  1  2  2  0        0
  2  3  1  0        0
  2  4  1  0        0
  4  5  1  0        0
  5  6  1  0        0
M  END
$$$$

CDXL12

  6  5  0  0  0  0  0  0  0  0999 V2000
   -0.7145    0.6187    0.0000 O   0  0  0  0  0  0  0  2  0  0  0  0
   -0.7145   -0.2062    0.0000 C   0  0  0  0  0  0  0  2  0  0  0  0
   -0.0000   -0.6187    0.0000 O   0  0  0  0  0  0  0  2  0  0  0  0
    0.7145   -0.2062    0.0000 C   0  0  0  0  0  0  0  2  0  0  0  0
    1.4289   -0.6187    0.0000 C   0  0  0  0  0  0  0  2  0  0  0  0
   -1.4289   -0.6187    0.0000 C   0  0  0  0  0  0  0  2  0  0  0  0
  1  2  2  0        0
  2  3  1  0        0
  3  4  1  0        0
  4  5  1  0        0
  2  6  1  0        0
M  END
$$$$

CDXL12

  7  6  0  0  0  0  0  0  0  0999 V2000
    0.7145    0.6187    0.0000 O   0  0  0  0  0  0  0  2  0  0  0  0
    0.7145   -0.2062    0.0000 C   0  0  0  0  0  0  0  2  0  0  0  0
    0.0000   -0.6188    0.0000 C   0  0  0  0  0  0  0  2  0  0  0  0
   -0.7145   -0.2062    0.0000 C   0  0  0  0  0  0  0  2  0  0  0  0
   -1.4289   -0.6187    0.0000 C   0  0  0  0  0  0  0  2  0  0  0  0
   -0.7145    0.6188    0.0000 C   0  0  0  0  0  0  0  2  0  0  0  0
    1.4289   -0.6188    0.0000 C   0  0  0  0  0  0  0  2  0  0  0  0
  1  2  2  0        0
  2  3  1  0        0
  3  4  2  0        0
  4  5  1  0        0
  4  6  1  0        0
  2  7  1  0        0
M  END
$$$$

CDXL12

  7  6  0  0  0  0  0  0  0  0999 V2000
    0.7145    0.6187    0.0000 O   0  0  0  0  0  0  0  2  0  0  0  0
    0.7145   -0.2062    0.0000 C   0  0  0  0  0  0  0  2  0  0  0  0
    1.4289   -0.6188    0.0000 O   0  0  0  0  0  0  0  2  0  0  0  0
    0.0000   -0.6188    0.0000 C   0  0  0  0  0  0  0  2  0  0  0  0
   -0.7145   -0.2062    0.0000 C   0  0  0  0  0  0  0  2  0  0  0  0
   -0.7145    0.6188    0.0000 O   0  0  0  0  0  0  0  2  0  0  0  0
   -1.4289   -0.6187    0.0000 O   0  0  0  0  0  0  0  2  0  0  0  0
  1  2  2  0        0
  2  3  1  0        0
  2  4  1  0        0
  4  5  1  0        0
  5  6  2  0        0
  5  7  1  0        0
M  END
$$$$

CDXL12

 10 10  0  0  0  0  0  0  0  0999 V2000
   -0.7145   -0.4125    0.0000 C   0  0  0  0  0  0  0  2  0  0  0  0
   -0.7145    0.4125    0.0000 C   0  0  0  0  0  0  0  2  0  0  0  0
    0.0000    0.8250    0.0000 C   0  0  0  0  0  0  0  2  0  0  0  0
    0.7145    0.4125    0.0000 C   0  0  0  0  0  0  0  2  0  0  0  0
    0.7145   -0.4125    0.0000 C   0  0  0  0  0  0  0  2  0  0  0  0
    1.4289   -0.8250    0.0000 C   0  0  0  0  0  0  0  2  0  0  0  0
    2.1434   -0.4125    0.0000 C   0  0  0  0  0  0  0  2  0  0  0  0
    0.0000   -0.8250    0.0000 C   0  0  0  0  0  0  0  2  0  0  0  0
   -1.4289   -0.8250    0.0000 C   0  0  0  0  0  0  0  2  0  0  0  0
   -2.1434   -0.4125    0.0000 C   0  0  0  0  0  0  0  2  0  0  0  0
  1  2  4  0        0
  2  3  4  0        0
  3  4  4  0        0
  4  5  4  0        0
  5  6  1  0        0
  6  7  1  0        0
  5  8  4  0        0
  1  8  4  0        0
  1  9  1  0        0
  9 10  1  0        0
M  END
$$$$

CDXL12

  9  8  0  0  0  0  0  0  0  0999 V2000
    0.0000    0.6187    0.0000 O   0  0  0  0  0  0  0  2  0  0  0  0
    0.0000   -0.2062    0.0000 C   0  0  0  0  0  0  0  2  0  0  0  0
    0.7145   -0.6188    0.0000 O   0  0  0  0  0  0  0  2  0  0  0  0
    1.4289   -0.2062    0.0000 C   0  0  0  0  0  0  0  2  0  0  0  0
    2.1434   -0.6187    0.0000 C   0  0  0  0  0  0  0  2  0  0  0  0
   -0.7145   -0.6188    0.0000 C   0  0  0  0  0  0  0  2  0  0  0  0
   -1.4289   -0.2062    0.0000 C   0  0  0  0  0  0  0  2  0  0  0  0
   -1.4289    0.6188    0.0000 O   0  0  0  0  0  0  0  2  0  0  0  0
   -2.1434   -0.6187    0.0000 C   0  0  0  0  0  0  0  2  0  0  0  0
  1  2  2  0        0
  2  3  1  0        0
  3  4  1  0        0
  4  5  1  0        0
  2  6  1  0        0
  6  7  1  0        0
  7  8  2  0        0
  7  9  1  0        0
M  END
$$$$

CDXL12

 10 10  0  0  0  0  0  0  0  0999 V2000
    1.4289   -0.0000    0.0000 Cl  0  0  0  0  0  0  0  2  0  0  0  0
    0.7145    0.4125    0.0000 N   0  0  0  0  0  0  0  2  0  0  0  0
    1.4289    0.8250    0.0000 H   0  0  0  0  0  0  0  2  0  0  0  0
    0.7145    1.2375    0.0000 H   0  0  0  0  0  0  0  2  0  0  0  0
    0.0000   -0.0000    0.0000 C   0  0  0  0  0  0  0  2  0  0  0  0
    0.0000   -0.8250    0.0000 C   0  0  0  0  0  0  0  2  0  0  0  0
   -0.7145   -1.2375    0.0000 C   0  0  0  0  0  0  0  2  0  0  0  0
   -1.4289   -0.8250    0.0000 C   0  0  0  0  0  0  0  2  0  0  0  0
   -1.4289   -0.0000    0.0000 C   0  0  0  0  0  0  0  2  0  0  0  0
   -0.7145    0.4125    0.0000 C   0  0  0  0  0  0  0  2  0  0  0  0
  1  2  1  0        0
  2  3  1  0        0
  2  4  1  0        0
  2  5  1  0        0
  5  6  4  0        0
  6  7  4  0        0
  7  8  4  0        0
  8  9  4  0        0
  9 10  4  0        0
  5 10  4  0        0
M  END
$$$$

CDXL12

  7  7  0  0  0  0  0  0  0  0999 V2000
   -0.3572    0.8250    0.0000 N   0  0  0  0  0  0  0  2  0  0  0  0
    0.3572    0.4125    0.0000 C   0  0  0  0  0  0  0  2  0  0  0  0
    1.0717    0.8250    0.0000 O   0  0  0  0  0  0  0  2  0  0  0  0
    0.3572   -0.4125    0.0000 C   0  0  0  0  0  0  0  2  0  0  0  0
   -0.3572   -0.8250    0.0000 C   0  0  0  0  0  0  0  2  0  0  0  0
   -1.0717   -0.4125    0.0000 C   0  0  0  0  0  0  0  2  0  0  0  0
   -1.0717    0.4125    0.0000 C   0  0  0  0  0  0  0  2  0  0  0  0
  1  2  4  0        0
  2  3  1  0        0
  2  4  4  0        0
  4  5  4  0        0
  5  6  4  0        0
  6  7  4  0        0
  1  7  4  0        0
M  END
$$$$

CDXL12

  5  4  0  0  0  0  0  0  0  0999 V2000
   -1.4289   -0.2062    0.0000 Cl  0  0  0  0  0  0  0  2  0  0  0  0
   -0.7145    0.2062    0.0000 C   0  0  0  0  0  0  0  2  0  0  0  0
    0.0000   -0.2062    0.0000 C   0  0  0  0  0  0  0  2  0  0  0  0
    0.7145    0.2062    0.0000 C   0  0  0  0  0  0  0  2  0  0  0  0
    1.4289   -0.2062    0.0000 Cl  0  0  0  0  0  0  0  2  0  0  0  0
  1  2  1  0        0
  2  3  1  0        0
  3  4  1  0        0
  4  5  1  0        0
M  END
$$$$

CDXL12

  5  5  0  0  0  0  0  0  0  0999 V2000
    0.4125    0.6348    0.0000 C   0  0  0  0  0  0  0  2  0  0  0  0
    0.6674   -0.1498    0.0000 C   0  0  0  0  0  0  0  2  0  0  0  0
   -0.0000   -0.6348    0.0000 C   0  0  0  0  0  0  0  2  0  0  0  0
   -0.6674   -0.1498    0.0000 C   0  0  0  0  0  0  0  2  0  0  0  0
   -0.4125    0.6348    0.0000 C   0  0  0  0  0  0  0  2  0  0  0  0
  1  2  2  0        0
  2  3  1  0        0
  3  4  1  0        0
  4  5  1  0        0
  1  5  1  0        0
M  END
$$$$

CDXL12

 11 10  0  0  0  0  0  0  0  0999 V2000
    1.0717   -1.0313    0.0000 N   0  0  0  0  0  0  0  2  0  0  0  0
    1.0717   -0.2062    0.0000 C   0  0  0  0  0  0  0  2  0  0  0  0
    0.3572    0.2062    0.0000 C   0  0  0  0  0  0  0  2  0  0  0  0
   -0.3572   -0.2062    0.0000 C   0  0  0  0  0  0  0  2  0  0  0  0
   -1.0717    0.2062    0.0000 C   0  0  0  0  0  0  0  2  0  0  0  0
   -1.7862   -0.2062    0.0000 O   0  0  0  0  0  0  0  2  0  0  0  0
   -2.5006    0.2062    0.0000 Na  0  0  0  0  0  0  0  2  0  0  0  0
   -1.0717    1.0312    0.0000 O   0  0  0  0  0  0  0  2  0  0  0  0
    1.7862    0.2062    0.0000 C   0  0  0  0  0  0  0  2  0  0  0  0
    2.5006   -0.2062    0.0000 O   0  0  0  0  0  0  0  2  0  0  0  0
    1.7862    1.0313    0.0000 O   0  0  0  0  0  0  0  2  0  0  0  0
  1  2  1  0        0
  2  3  1  0        0
  3  4  1  0        0
  4  5  1  0        0
  5  6  1  0        0
  6  7  1  0        0
  5  8  2  0        0
  2  9  1  0        0
  9 10  1  0        0
  9 11  2  0        0
M  END
$$$$

CDXL12

  8  7  0  0  0  0  0  0  0  0999 V2000
    1.4289    0.6187    0.0000 O   0  0  0  0  0  0  0  2  0  0  0  0
    1.4289   -0.2062    0.0000 C   0  0  0  0  0  0  0  2  0  0  0  0
    2.1434   -0.6187    0.0000 O   0  0  0  0  0  0  0  2  0  0  0  0
    0.7145   -0.6187    0.0000 C   0  0  0  0  0  0  0  2  0  0  0  0
   -0.0000   -0.2062    0.0000 C   0  0  0  0  0  0  0  2  0  0  0  0
   -0.7145   -0.6187    0.0000 C   0  0  0  0  0  0  0  2  0  0  0  0
   -1.4289   -0.2062    0.0000 C   0  0  0  0  0  0  0  2  0  0  0  0
   -2.1434   -0.6187    0.0000 C   0  0  0  0  0  0  0  2  0  0  0  0
  1  2  2  0        0
  2  3  1  0        0
  2  4  1  0        0
  4  5  1  0        0
  5  6  1  0        0
  6  7  1  0        0
  7  8  1  0        0
M  END
$$$$

CDXL12

  6  6  0  0  0  0  0  0  0  0999 V2000
    0.7145   -0.4125    0.0000 O   0  0  0  0  0  0  0  2  0  0  0  0
    0.0000   -0.8250    0.0000 C   0  0  0  0  0  0  0  2  0  0  0  0
   -0.7145   -0.4125    0.0000 C   0  0  0  0  0  0  0  2  0  0  0  0
   -0.7145    0.4125    0.0000 C   0  0  0  0  0  0  0  2  0  0  0  0
    0.0000    0.8250    0.0000 C   0  0  0  0  0  0  0  2  0  0  0  0
    0.7145    0.4125    0.0000 C   0  0  0  0  0  0  0  2  0  0  0  0
  1  2  1  0        0
  2  3  1  0        0
  3  4  1  0        0
  4  5  1  0        0
  5  6  1  0        0
  1  6  1  0        0
M  END
$$$$

CDXL12

  7  6  0  0  0  0  0  0  0  0999 V2000
   -1.4289    0.2062    0.0000 C   0  0  0  0  0  0  0  2  0  0  0  0
   -0.7145   -0.2062    0.0000 C   0  0  0  0  0  0  0  2  0  0  0  0
    0.0000    0.2062    0.0000 C   0  0  0  0  0  0  0  2  0  0  0  0
    0.7145   -0.2062    0.0000 C   0  0  0  0  0  0  0  2  0  0  0  0
    1.4289    0.2062    0.0000 C   0  0  0  0  0  0  0  2  0  0  0  0
    2.1434   -0.2062    0.0000 C   0  0  0  0  0  0  0  2  0  0  0  0
   -2.1434   -0.2062    0.0000 C   0  0  0  0  0  0  0  2  0  0  0  0
  1  2  1  0        0
  2  3  1  0        0
  3  4  1  0        0
  4  5  1  0        0
  5  6  1  0        0
  1  7  1  0        0
M  END
$$$$

CDXL12

 10  9  0  0  0  0  0  0  0  0999 V2000
   -2.1434    0.6187    0.0000 O   0  0  0  0  0  0  0  2  0  0  0  0
   -2.1434   -0.2062    0.0000 C   0  0  0  0  0  0  0  2  0  0  0  0
   -1.4289   -0.6187    0.0000 O   0  0  0  0  0  0  0  2  0  0  0  0
   -0.7145   -0.2062    0.0000 C   0  0  0  0  0  0  0  2  0  0  0  0
    0.0000   -0.6187    0.0000 C   0  0  0  0  0  0  0  2  0  0  0  0
    0.7145   -0.2062    0.0000 C   0  0  0  0  0  0  0  2  0  0  0  0
    1.4289   -0.6187    0.0000 C   0  0  0  0  0  0  0  2  0  0  0  0
    2.1434   -0.2062    0.0000 C   0  0  0  0  0  0  0  2  0  0  0  0
    2.8579   -0.6187    0.0000 C   0  0  0  0  0  0  0  2  0  0  0  0
   -2.8579   -0.6187    0.0000 C   0  0  0  0  0  0  0  2  0  0  0  0
  1  2  2  0        0
  2  3  1  0        0
  3  4  1  0        0
  4  5  1  0        0
  5  6  1  0        0
  6  7  1  0        0
  7  8  1  0        0
  8  9  1  0        0
  2 10  1  0        0
M  END
$$$$

CDXL12

 14 13  0  0  0  0  0  0  0  0999 V2000
    3.5724    0.6187    0.0000 O   0  0  0  0  0  0  0  2  0  0  0  0
    3.5724   -0.2062    0.0000 C   0  0  0  0  0  0  0  2  0  0  0  0
    4.2868   -0.6187    0.0000 O   0  0  0  0  0  0  0  2  0  0  0  0
    2.8579   -0.6187    0.0000 C   0  0  0  0  0  0  0  2  0  0  0  0
    2.1434   -0.2062    0.0000 C   0  0  0  0  0  0  0  2  0  0  0  0
    1.4289   -0.6187    0.0000 C   0  0  0  0  0  0  0  2  0  0  0  0
    0.7145   -0.2062    0.0000 C   0  0  0  0  0  0  0  2  0  0  0  0
    0.0000   -0.6187    0.0000 C   0  0  0  0  0  0  0  2  0  0  0  0
   -0.7145   -0.2062    0.0000 C   0  0  0  0  0  0  0  2  0  0  0  0
   -1.4289   -0.6187    0.0000 C   0  0  0  0  0  0  0  2  0  0  0  0
   -2.1434   -0.2062    0.0000 C   0  0  0  0  0  0  0  2  0  0  0  0
   -2.8579   -0.6187    0.0000 C   0  0  0  0  0  0  0  2  0  0  0  0
   -3.5724   -0.2062    0.0000 C   0  0  0  0  0  0  0  2  0  0  0  0
   -4.2868   -0.6187    0.0000 C   0  0  0  0  0  0  0  2  0  0  0  0
  1  2  2  0        0
  2  3  1  0        0
  2  4  1  0        0
  4  5  1  0        0
  5  6  1  0        0
  6  7  1  0        0
  7  8  1  0        0
  8  9  1  0        0
  9 10  1  0        0
 10 11  1  0        0
 11 12  1  0        0
 12 13  1  0        0
 13 14  1  0        0
M  END
$$$$

CDXL12

 10  9  0  0  0  0  0  0  0  0999 V2000
   -3.2151   -0.2062    0.0000 O   0  0  0  0  0  0  0  2  0  0  0  0
   -2.5006    0.2062    0.0000 C   0  0  0  0  0  0  0  2  0  0  0  0
   -1.7862   -0.2062    0.0000 C   0  0  0  0  0  0  0  2  0  0  0  0
   -1.0717    0.2062    0.0000 C   0  0  0  0  0  0  0  2  0  0  0  0
   -0.3572   -0.2062    0.0000 C   0  0  0  0  0  0  0  2  0  0  0  0
    0.3572    0.2062    0.0000 C   0  0  0  0  0  0  0  2  0  0  0  0
    1.0717   -0.2062    0.0000 C   0  0  0  0  0  0  0  2  0  0  0  0
    1.7862    0.2062    0.0000 C   0  0  0  0  0  0  0  2  0  0  0  0
    2.5006   -0.2062    0.0000 C   0  0  0  0  0  0  0  2  0  0  0  0
    3.2151    0.2062    0.0000 C   0  0  0  0  0  0  0  2  0  0  0  0
  1  2  1  0        0
  2  3  1  0        0
  3  4  1  0        0
  4  5  1  0        0
  5  6  1  0        0
  6  7  1  0        0
  7  8  1  0        0
  8  9  1  0        0
  9 10  1  0        0
M  END
$$$$

CDXL12

 14 13  0  0  0  0  0  0  0  0999 V2000
   -1.7862   -0.2062    0.0000 O   0  0  0  0  0  0  0  2  0  0  0  0
   -1.0717    0.2062    0.0000 C   0  0  0  0  0  0  0  2  0  0  0  0
   -0.3572   -0.2062    0.0000 C   0  0  0  0  0  0  0  2  0  0  0  0
    0.3572    0.2062    0.0000 O   0  0  0  0  0  0  0  2  0  0  0  0
    1.0717   -0.2062    0.0000 C   0  0  0  0  0  0  0  2  0  0  0  0
    1.7862    0.2062    0.0000 C   0  0  0  0  0  0  0  2  0  0  0  0
    2.5006   -0.2062    0.0000 O   0  0  0  0  0  0  0  2  0  0  0  0
    3.2151    0.2062    0.0000 C   0  0  0  0  0  0  0  2  0  0  0  0
    3.9296   -0.2062    0.0000 C   0  0  0  0  0  0  0  2  0  0  0  0
    4.6441    0.2062    0.0000 O   0  0  0  0  0  0  0  2  0  0  0  0
   -2.5006    0.2062    0.0000 C   0  0  0  0  0  0  0  2  0  0  0  0
   -3.2151   -0.2062    0.0000 C   0  0  0  0  0  0  0  2  0  0  0  0
   -3.9296    0.2062    0.0000 C   0  0  0  0  0  0  0  2  0  0  0  0
   -4.6441   -0.2062    0.0000 C   0  0  0  0  0  0  0  2  0  0  0  0
  1  2  1  0        0
  2  3  1  0        0
  3  4  1  0        0
  4  5  1  0        0
  5  6  1  0        0
  6  7  1  0        0
  7  8  1  0        0
  8  9  1  0        0
  9 10  1  0        0
  1 11  1  0        0
 11 12  1  0        0
 12 13  1  0        0
 13 14  1  0        0
M  END
$$$$

CDXL12

  6  5  0  0  0  0  0  0  0  0999 V2000
   -0.3572   -1.0313    0.0000 O   0  0  0  0  0  0  0  2  0  0  0  0
   -0.3572   -0.2062    0.0000 C   0  0  0  0  0  0  0  2  0  0  0  0
   -1.0717    0.2062    0.0000 O   0  0  0  0  0  0  0  2  0  0  0  0
    0.3572    0.2062    0.0000 C   0  0  0  0  0  0  0  2  0  0  0  0
    0.3572    1.0313    0.0000 O   0  0  0  0  0  0  0  2  0  0  0  0
    1.0717   -0.2062    0.0000 O   0  0  0  0  0  0  0  2  0  0  0  0
  1  2  2  0        0
  2  3  1  0        0
  2  4  1  0        0
  4  5  2  0        0
  4  6  1  0        0
M  END
$$$$

CDXL12

 17 18  0  0  0  0  0  0  0  0999 V2000
   -1.0631   -0.7697    0.0000 C   0  0  0  0  0  0  0  2  0  0  0  0
   -1.7776   -1.1822    0.0000 C   0  0  0  0  0  0  0  2  0  0  0  0
   -2.4920   -0.7697    0.0000 C   0  0  0  0  0  0  0  2  0  0  0  0
   -3.2065   -1.1822    0.0000 N   0  0  0  0  0  0  0  2  0  0  0  0
   -2.4920    0.0553    0.0000 C   0  0  0  0  0  0  0  2  0  0  0  0
   -1.7776    0.4678    0.0000 C   0  0  0  0  0  0  0  2  0  0  0  0
   -1.0631    0.0553    0.0000 C   0  0  0  0  0  0  0  2  0  0  0  0
   -0.3486    0.4678    0.0000 S   0  0  0  0  0  0  0  2  0  0  0  0
    0.0639   -0.2467    0.0000 O   0  0  0  0  0  0  0  2  0  0  0  0
   -0.7611    1.1822    0.0000 O   0  0  0  0  0  0  0  2  0  0  0  0
    0.3658    0.8803    0.0000 N   0  0  0  0  0  0  0  2  0  0  0  0
    1.0803    0.4678    0.0000 C   0  0  0  0  0  0  0  2  0  0  0  0
    1.1666   -0.3527    0.0000 N   0  0  0  0  0  0  0  2  0  0  0  0
    1.9735   -0.5242    0.0000 N   0  0  0  0  0  0  0  2  0  0  0  0
    2.3860    0.1902    0.0000 C   0  0  0  0  0  0  0  2  0  0  0  0
    3.2065    0.2765    0.0000 C   0  0  0  0  0  0  0  2  0  0  0  0
    1.8340    0.8033    0.0000 S   0  0  0  0  0  0  0  2  0  0  0  0
  1  2  4  0        0
  2  3  4  0        0
  3  4  1  0        0
  3  5  4  0        0
  5  6  4  0        0
  6  7  4  0        0
  1  7  4  0        0
  7  8  1  0        0
  8  9  2  0        0
  8 10  2  0        0
  8 11  1  0        0
 11 12  1  0        0
 12 13  4  0        0
 13 14  4  0        0
 14 15  4  0        0
 15 16  1  0        0
 15 17  4  0        0
 12 17  4  0        0
M  END
$$$$

CDXL12

 19 19  0  0  0  0  0  0  0  0999 V2000
   -1.4289    1.2375    0.0000 O   0  0  0  0  0  0  0  2  0  0  0  0
   -1.4289    0.4125    0.0000 N   0  0  0  0  0  0  0  2  0  0  0  0
   -2.1434    0.0000    0.0000 O   0  0  0  0  0  0  0  2  0  0  0  0
   -0.7145    0.0000    0.0000 C   0  0  0  0  0  0  0  2  0  0  0  0
    0.0000    0.4125    0.0000 C   0  0  0  0  0  0  0  2  0  0  0  0
    0.7145   -0.0000    0.0000 C   0  0  0  0  0  0  0  2  0  0  0  0
    1.4289    0.4125    0.0000 N   0  0  0  0  0  0  0  2  0  0  0  0
    1.4289    1.2375    0.0000 O   0  0  0  0  0  0  0  2  0  0  0  0
    2.1434   -0.0000    0.0000 O   0  0  0  0  0  0  0  2  0  0  0  0
    0.7145   -0.8250    0.0000 C   0  0  0  0  0  0  0  2  0  0  0  0
    0.0000   -1.2375    0.0000 C   0  0  0  0  0  0  0  2  0  0  0  0
    0.0000   -2.0625    0.0000 C   0  0  0  0  0  0  0  2  0  0  0  0
   -0.7145   -0.8250    0.0000 C   0  0  0  0  0  0  0  2  0  0  0  0
   -1.4289   -1.2375    0.0000 C   0  0  0  0  0  0  0  2  0  0  0  0
    1.4289   -1.2375    0.0000 C   0  0  0  0  0  0  0  2  0  0  0  0
    0.0000    1.2375    0.0000 C   0  0  0  0  0  0  0  2  0  0  0  0
   -0.7145    1.6500    0.0000 C   0  0  0  0  0  0  0  2  0  0  0  0
    0.0000    2.0625    0.0000 C   0  0  0  0  0  0  0  2  0  0  0  0
    0.7145    1.6500    0.0000 C   0  0  0  0  0  0  0  2  0  0  0  0
  1  2  2  0        0
  2  3  2  0        0
  2  4  1  0        0
  4  5  4  0        0
  5  6  4  0        0
  6  7  1  0        0
  7  8  2  0        0
  7  9  2  0        0
  6 10  4  0        0
 10 11  4  0        0
 11 12  1  0        0
 11 13  4  0        0
  4 13  4  0        0
 13 14  1  0        0
 10 15  1  0        0
  5 16  1  0        0
 16 17  1  0        0
 16 18  1  0        0
 16 19  1  0        0
M  END
$$$$

CDXL12

 13 14  0  0  0  0  0  0  0  0999 V2000
    0.7145    1.6500    0.0000 O   0  0  0  0  0  0  0  2  0  0  0  0
    0.7145    0.8250    0.0000 C   0  0  0  0  0  0  0  2  0  0  0  0
    1.4289    0.4125    0.0000 O   0  0  0  0  0  0  0  2  0  0  0  0
    0.0000    0.4125    0.0000 C   0  0  0  0  0  0  0  2  0  0  0  0
    0.0000   -0.4125    0.0000 C   0  0  0  0  0  0  0  2  0  0  0  0
    0.7145   -0.8250    0.0000 C   0  0  0  0  0  0  0  2  0  0  0  0
    0.7145   -1.6500    0.0000 O   0  0  0  0  0  0  0  2  0  0  0  0
    1.4289   -0.4125    0.0000 O   0  0  0  0  0  0  0  2  0  0  0  0
   -0.7145   -0.8250    0.0000 C   0  0  0  0  0  0  0  2  0  0  0  0
   -1.0510   -0.0000    0.0000 O   0  0  0  0  0  0  0  2  0  0  0  0
   -0.7145    0.8250    0.0000 C   0  0  0  0  0  0  0  2  0  0  0  0
   -1.4289    0.4125    0.0000 C   0  0  0  0  0  0  0  2  0  0  0  0
   -1.4289   -0.4125    0.0000 C   0  0  0  0  0  0  0  2  0  0  0  0
  1  2  2  0        0
  2  3  1  0        0
  2  4  1  0        0
  4  5  1  0        0
  5  6  1  0        0
  6  7  2  0        0
  6  8  1  0        0
  5  9  1  0        0
  9 10  1  0        0
 10 11  1  0        0
  4 11  1  0        0
 11 12  1  0        0
 12 13  1  0        0
  9 13  1  0        0
M  END
$$$$

CDXL12

 11 12  0  0  0  0  0  0  0  0999 V2000
    0.7145    0.4125    0.0000 N   0  0  0  0  0  0  0  2  0  0  0  0
    0.0000    0.0000    0.0000 C   0  0  0  0  0  0  0  2  0  0  0  0
    0.0000   -0.8250    0.0000 C   0  0  0  0  0  0  0  2  0  0  0  0
   -0.7145   -1.2375    0.0000 C   0  0  0  0  0  0  0  2  0  0  0  0
   -1.4289   -0.8250    0.0000 C   0  0  0  0  0  0  0  2  0  0  0  0
   -1.4289    0.0000    0.0000 C   0  0  0  0  0  0  0  2  0  0  0  0
   -0.7145    0.4125    0.0000 C   0  0  0  0  0  0  0  2  0  0  0  0
   -0.7145    1.2375    0.0000 O   0  0  0  0  0  0  0  2  0  0  0  0
    0.7145   -1.2375    0.0000 C   0  0  0  0  0  0  0  2  0  0  0  0
    1.4289   -0.8250    0.0000 C   0  0  0  0  0  0  0  2  0  0  0  0
    1.4289   -0.0000    0.0000 C   0  0  0  0  0  0  0  2  0  0  0  0
  1  2  4  0        0
  2  3  4  0        0
  3  4  4  0        0
  4  5  4  0        0
  5  6  4  0        0
  6  7  4  0        0
  2  7  4  0        0
  7  8  1  0        0
  3  9  4  0        0
  9 10  4  0        0
 10 11  4  0        0
  1 11  4  0        0
M  END
$$$$

CDXL12

 14 16  0  0  0  0  0  0  0  0999 V2000
   -2.3965    0.4125    0.0000 C   0  0  0  0  0  0  0  2  0  0  0  0
   -2.3965   -0.4125    0.0000 C   0  0  0  0  0  0  0  2  0  0  0  0
   -1.6820   -0.8250    0.0000 C   0  0  0  0  0  0  0  2  0  0  0  0
   -0.9676   -0.4125    0.0000 C   0  0  0  0  0  0  0  2  0  0  0  0
   -0.1830   -0.6674    0.0000 N   0  0  0  0  0  0  0  2  0  0  0  0
    0.3020   -0.0000    0.0000 C   0  0  0  0  0  0  0  2  0  0  0  0
   -0.1830    0.6674    0.0000 N   0  0  0  0  0  0  0  2  0  0  0  0
   -0.9676    0.4125    0.0000 C   0  0  0  0  0  0  0  2  0  0  0  0
   -1.6820    0.8250    0.0000 C   0  0  0  0  0  0  0  2  0  0  0  0
    1.1270   -0.0000    0.0000 C   0  0  0  0  0  0  0  2  0  0  0  0
    1.6119    0.6674    0.0000 C   0  0  0  0  0  0  0  2  0  0  0  0
    2.3965    0.4125    0.0000 S   0  0  0  0  0  0  0  2  0  0  0  0
    2.3965   -0.4125    0.0000 C   0  0  0  0  0  0  0  2  0  0  0  0
    1.6119   -0.6674    0.0000 N   0  0  0  0  0  0  0  2  0  0  0  0
  1  2  4  0        0
  2  3  4  0        0
  3  4  4  0        0
  4  5  4  0        0
  5  6  4  0        0
  6  7  4  0        0
  7  8  4  0        0
  4  8  4  0        0
  8  9  4  0        0
  1  9  4  0        0
  6 10  1  0        0
 10 11  4  0        0
 11 12  4  0        0
 12 13  4  0        0
 13 14  4  0        0
 10 14  4  0        0
M  END
$$$$

CDXL12

 10 11  0  0  0  0  0  0  0  0999 V2000
    0.4518   -0.6674    0.0000 N   0  0  0  0  0  0  0  2  0  0  0  0
   -0.3328   -0.4125    0.0000 C   0  0  0  0  0  0  0  2  0  0  0  0
   -0.3328    0.4125    0.0000 C   0  0  0  0  0  0  0  2  0  0  0  0
    0.4518    0.6674    0.0000 S   0  0  0  0  0  0  0  2  0  0  0  0
    0.9367   -0.0000    0.0000 C   0  0  0  0  0  0  0  2  0  0  0  0
    1.7617   -0.0000    0.0000 S   0  0  0  0  0  0  0  2  0  0  0  0
   -1.0473    0.8250    0.0000 C   0  0  0  0  0  0  0  2  0  0  0  0
   -1.7617    0.4125    0.0000 C   0  0  0  0  0  0  0  2  0  0  0  0
   -1.7617   -0.4125    0.0000 C   0  0  0  0  0  0  0  2  0  0  0  0
   -1.0473   -0.8250    0.0000 C   0  0  0  0  0  0  0  2  0  0  0  0
  1  2  4  0        0
  2  3  4  0        0
  3  4  4  0        0
  4  5  4  0        0
  1  5  4  0        0
  5  6  1  0        0
  3  7  4  0        0
  7  8  4  0        0
  8  9  4  0        0
  9 10  4  0        0
  2 10  4  0        0
M  END
$$$$

CDXL12

  8  7  0  0  0  0  0  0  0  0999 V2000
   -1.7862   -0.2062    0.0000 O   0  0  0  0  0  0  0  2  0  0  0  0
   -1.0717    0.2062    0.0000 C   0  0  0  0  0  0  0  2  0  0  0  0
   -0.3572   -0.2062    0.0000 C   0  0  0  0  0  0  0  2  0  0  0  0
   -0.3572   -1.0313    0.0000 O   0  0  0  0  0  0  0  2  0  0  0  0
    0.3572    0.2062    0.0000 C   0  0  0  0  0  0  0  2  0  0  0  0
    0.3572    1.0313    0.0000 O   0  0  0  0  0  0  0  2  0  0  0  0
    1.0717   -0.2062    0.0000 C   0  0  0  0  0  0  0  2  0  0  0  0
    1.7862    0.2062    0.0000 O   0  0  0  0  0  0  0  2  0  0  0  0
  1  2  1  0        0
  2  3  1  0        0
  3  4  1  0        0
  3  5  1  0        0
  5  6  1  0        0
  5  7  1  0        0
  7  8  1  0        0
M  END
$$$$

CDXL12

 10  9  0  0  0  0  0  0  0  0999 V2000
    1.4289    1.2375    0.0000 O   0  0  0  0  0  0  0  2  0  0  0  0
    1.4289    0.4125    0.0000 C   0  0  0  0  0  0  0  2  0  0  0  0
    2.1434   -0.0000    0.0000 O   0  0  0  0  0  0  0  2  0  0  0  0
    0.7145   -0.0000    0.0000 C   0  0  0  0  0  0  0  2  0  0  0  0
    0.0000    0.4125    0.0000 C   0  0  0  0  0  0  0  2  0  0  0  0
   -0.7145   -0.0000    0.0000 C   0  0  0  0  0  0  0  2  0  0  0  0
   -1.4289    0.4125    0.0000 C   0  0  0  0  0  0  0  2  0  0  0  0
   -2.1434   -0.0000    0.0000 C   0  0  0  0  0  0  0  2  0  0  0  0
    0.7145   -0.8250    0.0000 C   0  0  0  0  0  0  0  2  0  0  0  0
    1.4289   -1.2375    0.0000 C   0  0  0  0  0  0  0  2  0  0  0  0
  1  2  2  0        0
  2  3  1  0        0
  2  4  1  0        0
  4  5  1  0        0
  5  6  1  0        0
  6  7  1  0        0
  7  8  1  0        0
  4  9  1  0        0
  9 10  1  0        0
M  END
$$$$

CDXL12

 12 12  0  0  0  0  0  0  0  0999 V2000
    1.0717    1.6500    0.0000 O   0  0  0  0  0  0  0  2  0  0  0  0
    1.0717    0.8250    0.0000 C   0  0  0  0  0  0  0  2  0  0  0  0
    1.7862    0.4125    0.0000 O   0  0  0  0  0  0  0  2  0  0  0  0
    0.3572    0.4125    0.0000 C   0  0  0  0  0  0  0  2  0  0  0  0
    0.3572   -0.4125    0.0000 C   0  0  0  0  0  0  0  2  0  0  0  0
   -0.3572   -0.8250    0.0000 C   0  0  0  0  0  0  0  2  0  0  0  0
   -0.3572   -1.6500    0.0000 O   0  0  0  0  0  0  0  2  0  0  0  0
   -1.0717   -0.4125    0.0000 C   0  0  0  0  0  0  0  2  0  0  0  0
   -1.7862   -0.8250    0.0000 O   0  0  0  0  0  0  0  2  0  0  0  0
   -1.0717    0.4125    0.0000 C   0  0  0  0  0  0  0  2  0  0  0  0
   -1.7862    0.8250    0.0000 O   0  0  0  0  0  0  0  2  0  0  0  0
   -0.3572    0.8250    0.0000 C   0  0  0  0  0  0  0  2  0  0  0  0
  1  2  2  0        0
  2  3  1  0        0
  2  4  1  0        0
  4  5  4  0        0
  5  6  4  0        0
  6  7  1  0        0
  6  8  4  0        0
  8  9  1  0        0
  8 10  4  0        0
 10 11  1  0        0
 10 12  4  0        0
  4 12  4  0        0
M  END
$$$$

CDXL12

  9  9  0  0  0  0  0  0  0  0999 V2000
    1.0717   -0.8250    0.0000 O   0  0  0  0  0  0  0  2  0  0  0  0
    0.3572   -0.4125    0.0000 C   0  0  0  0  0  0  0  2  0  0  0  0
    0.3572    0.4125    0.0000 C   0  0  0  0  0  0  0  2  0  0  0  0
   -0.3572    0.8250    0.0000 C   0  0  0  0  0  0  0  2  0  0  0  0
   -1.0717    0.4125    0.0000 C   0  0  0  0  0  0  0  2  0  0  0  0
   -1.0717   -0.4125    0.0000 C   0  0  0  0  0  0  0  2  0  0  0  0
   -1.7862   -0.8250    0.0000 O   0  0  0  0  0  0  0  2  0  0  0  0
   -0.3572   -0.8250    0.0000 C   0  0  0  0  0  0  0  2  0  0  0  0
    1.7862   -0.4125    0.0000 C   0  0  0  0  0  0  0  2  0  0  0  0
  1  2  1  0        0
  2  3  4  0        0
  3  4  4  0        0
  4  5  4  0        0
  5  6  4  0        0
  6  7  1  0        0
  6  8  4  0        0
  2  8  4  0        0
  1  9  1  0        0
M  END
$$$$

CDXL12

 12 12  0  0  0  0  0  0  0  0999 V2000
    1.4289    1.2375    0.0000 O   0  0  0  0  0  0  0  2  0  0  0  0
    1.4289    0.4125    0.0000 C   0  0  0  0  0  0  0  2  0  0  0  0
    2.1434   -0.0000    0.0000 O   0  0  0  0  0  0  0  2  0  0  0  0
    0.7145   -0.0000    0.0000 C   0  0  0  0  0  0  0  2  0  0  0  0
    0.7145   -0.8250    0.0000 N   0  0  0  0  0  0  0  2  0  0  0  0
    0.0000    0.4125    0.0000 C   0  0  0  0  0  0  0  2  0  0  0  0
   -0.7145   -0.0000    0.0000 C   0  0  0  0  0  0  0  2  0  0  0  0
   -0.7145   -0.8250    0.0000 C   0  0  0  0  0  0  0  2  0  0  0  0
   -1.4289   -1.2375    0.0000 C   0  0  0  0  0  0  0  2  0  0  0  0
   -2.1434   -0.8250    0.0000 C   0  0  0  0  0  0  0  2  0  0  0  0
   -2.1434   -0.0000    0.0000 C   0  0  0  0  0  0  0  2  0  0  0  0
   -1.4289    0.4125    0.0000 C   0  0  0  0  0  0  0  2  0  0  0  0
  1  2  2  0        0
  2  3  1  0        0
  2  4  1  0        0
  4  5  1  0        0
  4  6  1  0        0
  6  7  1  0        0
  7  8  4  0        0
  8  9  4  0        0
  9 10  4  0        0
 10 11  4  0        0
 11 12  4  0        0
  7 12  4  0        0
M  END
$$$$

CDXL12

  9  9  0  0  0  0  0  0  0  0999 V2000
    1.0717   -0.8250    0.0000 O   0  0  0  0  0  0  0  2  0  0  0  0
    0.3572   -0.4125    0.0000 C   0  0  0  0  0  0  0  2  0  0  0  0
   -0.3572   -0.8250    0.0000 C   0  0  0  0  0  0  0  2  0  0  0  0
   -1.0717   -0.4125    0.0000 C   0  0  0  0  0  0  0  2  0  0  0  0
   -1.0717    0.4125    0.0000 C   0  0  0  0  0  0  0  2  0  0  0  0
   -1.7862    0.8250    0.0000 O   0  0  0  0  0  0  0  2  0  0  0  0
   -0.3572    0.8250    0.0000 C   0  0  0  0  0  0  0  2  0  0  0  0
    0.3572    0.4125    0.0000 C   0  0  0  0  0  0  0  2  0  0  0  0
    1.7862   -0.4125    0.0000 C   0  0  0  0  0  0  0  2  0  0  0  0
  1  2  1  0        0
  2  3  4  0        0
  3  4  4  0        0
  4  5  4  0        0
  5  6  1  0        0
  5  7  4  0        0
  7  8  4  0        0
  2  8  4  0        0
  1  9  1  0        0
M  END
$$$$

CDXL12

 10 10  0  0  0  0  0  0  0  0999 V2000
    1.4289   -0.8250    0.0000 O   0  0  0  0  0  0  0  2  0  0  0  0
    0.7145   -0.4125    0.0000 C   0  0  0  0  0  0  0  2  0  0  0  0
    0.0000   -0.8250    0.0000 C   0  0  0  0  0  0  0  2  0  0  0  0
   -0.7145   -0.4125    0.0000 C   0  0  0  0  0  0  0  2  0  0  0  0
   -0.7145    0.4125    0.0000 C   0  0  0  0  0  0  0  2  0  0  0  0
   -1.4289    0.8250    0.0000 O   0  0  0  0  0  0  0  2  0  0  0  0
   -2.1434    0.4125    0.0000 C   0  0  0  0  0  0  0  2  0  0  0  0
    0.0000    0.8250    0.0000 C   0  0  0  0  0  0  0  2  0  0  0  0
    0.7145    0.4125    0.0000 C   0  0  0  0  0  0  0  2  0  0  0  0
    2.1434   -0.4125    0.0000 C   0  0  0  0  0  0  0  2  0  0  0  0
  1  2  1  0        0
  2  3  4  0        0
  3  4  4  0        0
  4  5  4  0        0
  5  6  1  0        0
  6  7  1  0        0
  5  8  4  0        0
  8  9  4  0        0
  2  9  4  0        0
  1 10  1  0        0
M  END
$$$$

CDXL12

 10 10  0  0  0  0  0  0  0  0999 V2000
    1.4289   -0.8250    0.0000 O   0  0  0  0  0  0  0  2  0  0  0  0
    0.7145   -0.4125    0.0000 C   0  0  0  0  0  0  0  2  0  0  0  0
    0.7145    0.4125    0.0000 C   0  0  0  0  0  0  0  2  0  0  0  0
    0.0000    0.8250    0.0000 C   0  0  0  0  0  0  0  2  0  0  0  0
   -0.7145    0.4125    0.0000 C   0  0  0  0  0  0  0  2  0  0  0  0
   -0.7145   -0.4125    0.0000 C   0  0  0  0  0  0  0  2  0  0  0  0
   -1.4289   -0.8250    0.0000 O   0  0  0  0  0  0  0  2  0  0  0  0
   -2.1434   -0.4125    0.0000 C   0  0  0  0  0  0  0  2  0  0  0  0
    0.0000   -0.8250    0.0000 C   0  0  0  0  0  0  0  2  0  0  0  0
    2.1434   -0.4125    0.0000 C   0  0  0  0  0  0  0  2  0  0  0  0
  1  2  1  0        0
  2  3  4  0        0
  3  4  4  0        0
  4  5  4  0        0
  5  6  4  0        0
  6  7  1  0        0
  7  8  1  0        0
  6  9  4  0        0
  2  9  4  0        0
  1 10  1  0        0
M  END
$$$$

CDXL12

 18 17  0  0  0  0  0  0  0  0999 V2000
   -5.3585   -0.4125    0.0000 C   0  0  0  0  0  0  0  2  0  0  0  0
   -4.6441   -0.0000    0.0000 C   0  0  0  0  0  0  0  2  0  0  0  0
   -3.9296   -0.4125    0.0000 C   0  0  0  0  0  0  0  2  0  0  0  0
   -3.2151   -0.0000    0.0000 C   0  0  0  0  0  0  0  2  0  0  0  0
   -2.5006   -0.4125    0.0000 C   0  0  0  0  0  0  0  2  0  0  0  0
   -1.7862   -0.0000    0.0000 C   0  0  0  0  0  0  0  2  0  0  0  0
   -1.0717   -0.4125    0.0000 C   0  0  0  0  0  0  0  2  0  0  0  0
   -0.3572   -0.0000    0.0000 C   0  0  0  0  0  0  0  2  0  0  0  0
    0.3572   -0.4125    0.0000 C   0  0  0  0  0  0  0  2  0  0  0  0
    1.0717   -0.0000    0.0000 C   0  0  0  0  0  0  0  2  0  0  0  0
    1.7862   -0.4125    0.0000 C   0  0  0  0  0  0  0  2  0  0  0  0
    2.5006   -0.0000    0.0000 C   0  0  0  0  0  0  0  2  0  0  0  0
    3.2151   -0.4125    0.0000 O   0  0  0  0  0  0  0  2  0  0  0  0
    3.9296    0.0000    0.0000 S   0  0  0  0  0  0  0  2  0  0  0  0
    4.3421   -0.7145    0.0000 O   0  0  0  0  0  0  0  2  0  0  0  0
    3.5171    0.7145    0.0000 O   0  0  0  0  0  0  0  2  0  0  0  0
    4.6441    0.4125    0.0000 O   0  0  0  0  0  0  0  2  0  0  0  0
    5.3585   -0.0000    0.0000 Na  0  0  0  0  0  0  0  2  0  0  0  0
  1  2  1  0        0
  2  3  1  0        0
  3  4  1  0        0
  4  5  1  0        0
  5  6  1  0        0
  6  7  1  0        0
  7  8  1  0        0
  8  9  1  0        0
  9 10  1  0        0
 10 11  1  0        0
 11 12  1  0        0
 12 13  1  0        0
 13 14  1  0        0
 14 15  2  0        0
 14 16  2  0        0
 14 17  1  0        0
 17 18  1  0        0
M  END
$$$$

CDXL12

  7  6  0  0  0  0  0  0  0  0999 V2000
   -1.0717    0.2062    0.0000 F   0  0  0  0  0  0  0  2  0  0  0  0
   -0.3572   -0.2062    0.0000 C   0  0  0  0  0  0  0  2  0  0  0  0
   -1.0717   -0.6187    0.0000 F   0  0  0  0  0  0  0  2  0  0  0  0
   -0.3572   -1.0313    0.0000 F   0  0  0  0  0  0  0  2  0  0  0  0
    0.3572    0.2062    0.0000 C   0  0  0  0  0  0  0  2  0  0  0  0
    0.3572    1.0313    0.0000 Cl  0  0  0  0  0  0  0  2  0  0  0  0
    1.0717   -0.2062    0.0000 Br  0  0  0  0  0  0  0  2  0  0  0  0
  1  2  1  0        0
  2  3  1  0        0
  2  4  1  0        0
  2  5  1  0        0
  5  6  1  0        0
  5  7  1  0        0
M  END
$$$$

CDXL12

 17 16  0  0  0  0  0  0  0  0999 V2000
    0.8859    1.4767    0.0000 O   0  0  0  0  0  0  0  2  0  0  0  0
    0.8859    0.6517    0.0000 P   0  0  0  0  0  0  0  2  0  0  0  0
    0.1715    0.2392    0.0000 O   0  0  0  0  0  0  0  2  0  0  0  0
   -0.5430    0.6517    0.0000 P   0  0  0  0  0  0  0  2  0  0  0  0
   -0.5430    1.4767    0.0000 O   0  0  0  0  0  0  0  2  0  0  0  0
   -2.0291   -0.2062    0.0000 N   0  0  0  0  0  0  0  2  0  0  0  0
   -2.0291   -1.0313    0.0000 C   0  0  0  0  0  0  0  2  0  0  0  0
   -2.7436    0.2062    0.0000 C   0  0  0  0  0  0  0  2  0  0  0  0
   -0.5430   -1.0642    0.0000 N   0  0  0  0  0  0  0  2  0  0  0  0
   -1.2575   -1.4767    0.0000 C   0  0  0  0  0  0  0  2  0  0  0  0
    0.1715   -1.4767    0.0000 C   0  0  0  0  0  0  0  2  0  0  0  0
    2.0291   -0.0083    0.0000 N   0  0  0  0  0  0  0  2  0  0  0  0
    2.7436    0.4042    0.0000 C   0  0  0  0  0  0  0  2  0  0  0  0
    2.0291   -0.8333    0.0000 C   0  0  0  0  0  0  0  2  0  0  0  0
    0.8859   -0.6683    0.0000 N   0  0  0  0  0  0  0  2  0  0  0  0
    1.6004   -1.0808    0.0000 C   0  0  0  0  0  0  0  2  0  0  0  0
    0.1715   -1.0808    0.0000 C   0  0  0  0  0  0  0  2  0  0  0  0
  1  2  2  0        0
  2  3  1  0        0
  3  4  1  0        0
  4  5  2  0        0
  4  6  1  0        0
  6  7  1  0        0
  6  8  1  0        0
  4  9  1  0        0
  9 10  1  0        0
  9 11  1  0        0
  2 12  1  0        0
 12 13  1  0        0
 12 14  1  0        0
  2 15  1  0        0
 15 16  1  0        0
 15 17  1  0        0
M  END
$$$$

CDXL12

  4  3  0  0  0  0  0  0  0  0999 V2000
   -0.3572   -0.2062    0.0000 C   0  0  0  0  0  0  0  2  0  0  0  0
    0.3572    0.2062    0.0000 C   0  0  0  0  0  0  0  2  0  0  0  0
    1.0717   -0.2062    0.0000 Cl  0  0  0  0  0  0  0  2  0  0  0  0
   -1.0717    0.2062    0.0000 Cl  0  0  0  0  0  0  0  2  0  0  0  0
  1  2  2  0        0
  2  3  1  0        0
  1  4  1  0        0
M  END
$$$$

CDXL12

  4  3  0  0  0  0  0  0  0  0999 V2000
   -0.3572   -0.2062    0.0000 C   0  0  0  0  0  0  0  2  0  0  0  0
    0.3572    0.2062    0.0000 C   0  0  0  0  0  0  0  2  0  0  0  0
    1.0717   -0.2062    0.0000 Cl  0  0  0  0  0  0  0  2  0  0  0  0
   -1.0717    0.2062    0.0000 Cl  0  0  0  0  0  0  0  2  0  0  0  0
  1  2  2  0        0
  2  3  1  0        0
  1  4  1  0        0
M  END
$$$$

CDXL12

 22 27  0  0  0  0  0  0  0  0999 V2000
   -0.7145   -0.4125    0.0000 C   0  0  0  0  0  0  0  2  0  0  0  0
   -1.4289   -0.8250    0.0000 C   0  0  0  0  0  0  0  2  0  0  0  0
   -2.1434   -0.4125    0.0000 C   0  0  0  0  0  0  0  2  0  0  0  0
   -2.1434    0.4125    0.0000 C   0  0  0  0  0  0  0  2  0  0  0  0
   -1.4289    0.8250    0.0000 C   0  0  0  0  0  0  0  2  0  0  0  0
   -1.4289    1.6500    0.0000 C   0  0  0  0  0  0  0  2  0  0  0  0
   -0.7145    2.0625    0.0000 C   0  0  0  0  0  0  0  2  0  0  0  0
    0.0000    1.6500    0.0000 C   0  0  0  0  0  0  0  2  0  0  0  0
    0.7145    2.0625    0.0000 C   0  0  0  0  0  0  0  2  0  0  0  0
    1.4289    1.6500    0.0000 C   0  0  0  0  0  0  0  2  0  0  0  0
    1.4289    0.8250    0.0000 C   0  0  0  0  0  0  0  2  0  0  0  0
    2.1434    0.4125    0.0000 C   0  0  0  0  0  0  0  2  0  0  0  0
    2.1434   -0.4125    0.0000 C   0  0  0  0  0  0  0  2  0  0  0  0
    1.4289   -0.8250    0.0000 C   0  0  0  0  0  0  0  2  0  0  0  0
    1.4289   -1.6500    0.0000 C   0  0  0  0  0  0  0  2  0  0  0  0
    0.7145   -2.0625    0.0000 C   0  0  0  0  0  0  0  2  0  0  0  0
    0.0000   -1.6500    0.0000 C   0  0  0  0  0  0  0  2  0  0  0  0
    0.0000   -0.8250    0.0000 C   0  0  0  0  0  0  0  2  0  0  0  0
    0.7145   -0.4125    0.0000 C   0  0  0  0  0  0  0  2  0  0  0  0
    0.7145    0.4125    0.0000 C   0  0  0  0  0  0  0  2  0  0  0  0
    0.0000    0.8250    0.0000 C   0  0  0  0  0  0  0  2  0  0  0  0
   -0.7145    0.4125    0.0000 C   0  0  0  0  0  0  0  2  0  0  0  0
  1  2  4  0        0
  2  3  4  0        0
  3  4  4  0        0
  4  5  4  0        0
  5  6  4  0        0
  6  7  4  0        0
  7  8  4  0        0
  8  9  4  0        0
  9 10  4  0        0
 10 11  4  0        0
 11 12  4  0        0
 12 13  4  0        0
 13 14  4  0        0
 14 15  4  0        0
 15 16  4  0        0
 16 17  4  0        0
 17 18  4  0        0
  1 18  4  0        0
 18 19  4  0        0
 14 19  4  0        0
 19 20  4  0        0
 11 20  4  0        0
 20 21  4  0        0
  8 21  4  0        0
 21 22  4  0        0
  1 22  4  0        0
  5 22  4  0        0
M  END
$$$$

CDXL12

 20 24  0  0  0  0  0  0  0  0999 V2000
   -2.1434    0.4125    0.0000 C   0  0  0  0  0  0  0  2  0  0  0  0
   -2.1434   -0.4125    0.0000 C   0  0  0  0  0  0  0  2  0  0  0  0
   -1.4289   -0.8250    0.0000 C   0  0  0  0  0  0  0  2  0  0  0  0
   -0.7145   -0.4125    0.0000 C   0  0  0  0  0  0  0  2  0  0  0  0
   -0.7145    0.4125    0.0000 C   0  0  0  0  0  0  0  2  0  0  0  0
   -1.4289    0.8250    0.0000 C   0  0  0  0  0  0  0  2  0  0  0  0
   -0.0000    0.8250    0.0000 C   0  0  0  0  0  0  0  2  0  0  0  0
   -0.0000    1.6500    0.0000 C   0  0  0  0  0  0  0  2  0  0  0  0
    0.7145    2.0625    0.0000 C   0  0  0  0  0  0  0  2  0  0  0  0
    1.4289    1.6500    0.0000 C   0  0  0  0  0  0  0  2  0  0  0  0
    1.4289    0.8250    0.0000 C   0  0  0  0  0  0  0  2  0  0  0  0
    2.1434    0.4125    0.0000 C   0  0  0  0  0  0  0  2  0  0  0  0
    2.1434   -0.4125    0.0000 C   0  0  0  0  0  0  0  2  0  0  0  0
    1.4289   -0.8250    0.0000 C   0  0  0  0  0  0  0  2  0  0  0  0
    1.4289   -1.6500    0.0000 C   0  0  0  0  0  0  0  2  0  0  0  0
    0.7145   -2.0625    0.0000 C   0  0  0  0  0  0  0  2  0  0  0  0
   -0.0000   -1.6500    0.0000 C   0  0  0  0  0  0  0  2  0  0  0  0
   -0.0000   -0.8250    0.0000 C   0  0  0  0  0  0  0  2  0  0  0  0
    0.7145   -0.4125    0.0000 C   0  0  0  0  0  0  0  2  0  0  0  0
    0.7145    0.4125    0.0000 C   0  0  0  0  0  0  0  2  0  0  0  0
  1  2  4  0        0
  2  3  4  0        0
  3  4  4  0        0
  4  5  4  0        0
  5  6  4  0        0
  1  6  4  0        0
  5  7  4  0        0
  7  8  4  0        0
  8  9  4  0        0
  9 10  4  0        0
 10 11  4  0        0
 11 12  4  0        0
 12 13  4  0        0
 13 14  4  0        0
 14 15  4  0        0
 15 16  4  0        0
 16 17  4  0        0
 17 18  4  0        0
  4 18  4  0        0
 18 19  4  0        0
 14 19  4  0        0
 19 20  4  0        0
  7 20  4  0        0
 11 20  4  0        0
M  END
$$$$

CDXL12

 22 27  0  0  0  0  0  0  0  0999 V2000
   -0.1125   -0.0447    0.0000 C   0  0  0  0  0  0  0  2  0  0  0  0
    0.6020    0.3678    0.0000 C   0  0  0  0  0  0  0  2  0  0  0  0
    1.3165   -0.0447    0.0000 C   0  0  0  0  0  0  0  2  0  0  0  0
    1.3165   -0.8697    0.0000 C   0  0  0  0  0  0  0  2  0  0  0  0
    2.0310   -1.2822    0.0000 C   0  0  0  0  0  0  0  2  0  0  0  0
    2.7454   -0.8697    0.0000 C   0  0  0  0  0  0  0  2  0  0  0  0
    2.7454   -0.0447    0.0000 C   0  0  0  0  0  0  0  2  0  0  0  0
    2.0310    0.3678    0.0000 C   0  0  0  0  0  0  0  2  0  0  0  0
    2.0310    1.1928    0.0000 C   0  0  0  0  0  0  0  2  0  0  0  0
    1.3165    1.6053    0.0000 C   0  0  0  0  0  0  0  2  0  0  0  0
    0.6020    1.1928    0.0000 C   0  0  0  0  0  0  0  2  0  0  0  0
   -0.1125    1.6053    0.0000 C   0  0  0  0  0  0  0  2  0  0  0  0
   -0.8269    1.1928    0.0000 C   0  0  0  0  0  0  0  2  0  0  0  0
   -0.8269    0.3678    0.0000 C   0  0  0  0  0  0  0  2  0  0  0  0
   -1.4400   -0.1842    0.0000 C   0  0  0  0  0  0  0  2  0  0  0  0
   -1.1045   -0.9379    0.0000 C   0  0  0  0  0  0  0  2  0  0  0  0
   -0.2840   -0.8516    0.0000 C   0  0  0  0  0  0  0  2  0  0  0  0
    0.5140   -1.0611    0.0000 C   0  0  0  0  0  0  0  2  0  0  0  0
   -1.5894   -1.6053    0.0000 C   0  0  0  0  0  0  0  2  0  0  0  0
   -2.4099   -1.5191    0.0000 C   0  0  0  0  0  0  0  2  0  0  0  0
   -2.7454   -0.7654    0.0000 C   0  0  0  0  0  0  0  2  0  0  0  0
   -2.2605   -0.0980    0.0000 C   0  0  0  0  0  0  0  2  0  0  0  0
  1  2  4  0        0
  2  3  4  0        0
  3  4  4  0        0
  4  5  4  0        0
  5  6  4  0        0
  6  7  4  0        0
  7  8  4  0        0
  3  8  4  0        0
  8  9  4  0        0
  9 10  4  0        0
 10 11  4  0        0
  2 11  4  0        0
 11 12  4  0        0
 12 13  4  0        0
 13 14  4  0        0
  1 14  4  0        0
 14 15  4  0        0
 15 16  4  0        0
 16 17  4  0        0
  1 17  4  0        0
 17 18  1  0        0
  4 18  1  0        0
 16 19  4  0        0
 19 20  4  0        0
 20 21  4  0        0
 21 22  4  0        0
 15 22  4  0        0
M  END
$$$$

CDXL12

 21 25  0  0  0  0  0  0  0  0999 V2000
    2.0686    1.4687    0.0000 C   0  0  0  0  0  0  0  2  0  0  0  0
    1.2616    1.6402    0.0000 C   0  0  0  0  0  0  0  2  0  0  0  0
    0.7096    1.0271    0.0000 C   0  0  0  0  0  0  0  2  0  0  0  0
    0.9645    0.2425    0.0000 C   0  0  0  0  0  0  0  2  0  0  0  0
    1.7715    0.0709    0.0000 C   0  0  0  0  0  0  0  2  0  0  0  0
    2.3235    0.6840    0.0000 C   0  0  0  0  0  0  0  2  0  0  0  0
    2.0264   -0.7137    0.0000 C   0  0  0  0  0  0  0  2  0  0  0  0
    1.4744   -1.3268    0.0000 C   0  0  0  0  0  0  0  2  0  0  0  0
    0.6674   -1.1553    0.0000 C   0  0  0  0  0  0  0  2  0  0  0  0
    0.0000   -1.6402    0.0000 N   0  0  0  0  0  0  0  2  0  0  0  0
   -0.6674   -1.1553    0.0000 C   0  0  0  0  0  0  0  2  0  0  0  0
   -1.4744   -1.3268    0.0000 C   0  0  0  0  0  0  0  2  0  0  0  0
   -2.0264   -0.7137    0.0000 C   0  0  0  0  0  0  0  2  0  0  0  0
   -1.7715    0.0709    0.0000 C   0  0  0  0  0  0  0  2  0  0  0  0
   -2.3235    0.6840    0.0000 C   0  0  0  0  0  0  0  2  0  0  0  0
   -2.0686    1.4687    0.0000 C   0  0  0  0  0  0  0  2  0  0  0  0
   -1.2616    1.6402    0.0000 C   0  0  0  0  0  0  0  2  0  0  0  0
   -0.7096    1.0271    0.0000 C   0  0  0  0  0  0  0  2  0  0  0  0
   -0.9645    0.2425    0.0000 C   0  0  0  0  0  0  0  2  0  0  0  0
   -0.4125   -0.3706    0.0000 C   0  0  0  0  0  0  0  2  0  0  0  0
    0.4125   -0.3706    0.0000 C   0  0  0  0  0  0  0  2  0  0  0  0
  1  2  4  0        0
  2  3  4  0        0
  3  4  4  0        0
  4  5  4  0        0
  5  6  4  0        0
  1  6  4  0        0
  5  7  4  0        0
  7  8  4  0        0
  8  9  4  0        0
  9 10  4  0        0
 10 11  4  0        0
 11 12  4  0        0
 12 13  4  0        0
 13 14  4  0        0
 14 15  4  0        0
 15 16  4  0        0
 16 17  4  0        0
 17 18  4  0        0
 18 19  4  0        0
 14 19  4  0        0
 19 20  4  0        0
 11 20  4  0        0
 20 21  4  0        0
  4 21  4  0        0
  9 21  4  0        0
M  END
$$$$

CDXL12

 18 21  0  0  0  0  0  0  0  0999 V2000
   -1.7862   -0.8250    0.0000 C   0  0  0  0  0  0  0  2  0  0  0  0
   -1.7862   -1.6500    0.0000 C   0  0  0  0  0  0  0  2  0  0  0  0
   -1.0717   -2.0625    0.0000 C   0  0  0  0  0  0  0  2  0  0  0  0
   -0.3572   -1.6500    0.0000 C   0  0  0  0  0  0  0  2  0  0  0  0
    0.3572   -2.0625    0.0000 C   0  0  0  0  0  0  0  2  0  0  0  0
    1.0717   -1.6500    0.0000 C   0  0  0  0  0  0  0  2  0  0  0  0
    1.0717   -0.8250    0.0000 C   0  0  0  0  0  0  0  2  0  0  0  0
    1.7862   -0.4125    0.0000 C   0  0  0  0  0  0  0  2  0  0  0  0
    1.7862    0.4125    0.0000 C   0  0  0  0  0  0  0  2  0  0  0  0
    1.0717    0.8250    0.0000 C   0  0  0  0  0  0  0  2  0  0  0  0
    1.0717    1.6500    0.0000 C   0  0  0  0  0  0  0  2  0  0  0  0
    0.3572    2.0625    0.0000 C   0  0  0  0  0  0  0  2  0  0  0  0
   -0.3572    1.6500    0.0000 C   0  0  0  0  0  0  0  2  0  0  0  0
   -0.3572    0.8250    0.0000 C   0  0  0  0  0  0  0  2  0  0  0  0
    0.3572    0.4125    0.0000 C   0  0  0  0  0  0  0  2  0  0  0  0
    0.3572   -0.4125    0.0000 C   0  0  0  0  0  0  0  2  0  0  0  0
   -0.3572   -0.8250    0.0000 C   0  0  0  0  0  0  0  2  0  0  0  0
   -1.0717   -0.4125    0.0000 C   0  0  0  0  0  0  0  2  0  0  0  0
  1  2  4  0        0
  2  3  4  0        0
  3  4  4  0        0
  4  5  4  0        0
  5  6  4  0        0
  6  7  4  0        0
  7  8  4  0        0
  8  9  4  0        0
  9 10  4  0        0
 10 11  4  0        0
 11 12  4  0        0
 12 13  4  0        0
 13 14  4  0        0
 14 15  4  0        0
 10 15  4  0        0
 15 16  4  0        0
  7 16  4  0        0
 16 17  4  0        0
  4 17  4  0        0
 17 18  4  0        0
  1 18  4  0        0
M  END
$$$$

CDXL12

 20 24  0  0  0  0  0  0  0  0999 V2000
    0.7145    0.4125    0.0000 C   0  0  0  0  0  0  0  2  0  0  0  0
    1.4289    0.8250    0.0000 C   0  0  0  0  0  0  0  2  0  0  0  0
    1.4289    1.6500    0.0000 C   0  0  0  0  0  0  0  2  0  0  0  0
    0.7145    2.0625    0.0000 C   0  0  0  0  0  0  0  2  0  0  0  0
    0.0000    1.6500    0.0000 C   0  0  0  0  0  0  0  2  0  0  0  0
   -0.0000    0.8250    0.0000 C   0  0  0  0  0  0  0  2  0  0  0  0
   -0.7145    0.4125    0.0000 C   0  0  0  0  0  0  0  2  0  0  0  0
   -0.7145   -0.4125    0.0000 C   0  0  0  0  0  0  0  2  0  0  0  0
   -1.4289   -0.8250    0.0000 C   0  0  0  0  0  0  0  2  0  0  0  0
   -2.1434   -0.4125    0.0000 C   0  0  0  0  0  0  0  2  0  0  0  0
   -2.1434    0.4125    0.0000 C   0  0  0  0  0  0  0  2  0  0  0  0
   -1.4289    0.8250    0.0000 C   0  0  0  0  0  0  0  2  0  0  0  0
   -1.4289   -1.6500    0.0000 C   0  0  0  0  0  0  0  2  0  0  0  0
   -0.7145   -2.0625    0.0000 C   0  0  0  0  0  0  0  2  0  0  0  0
   -0.0000   -1.6500    0.0000 C   0  0  0  0  0  0  0  2  0  0  0  0
   -0.0000   -0.8250    0.0000 C   0  0  0  0  0  0  0  2  0  0  0  0
    0.7145   -0.4125    0.0000 C   0  0  0  0  0  0  0  2  0  0  0  0
    1.4289   -0.8250    0.0000 C   0  0  0  0  0  0  0  2  0  0  0  0
    2.1434   -0.4125    0.0000 C   0  0  0  0  0  0  0  2  0  0  0  0
    2.1434    0.4125    0.0000 C   0  0  0  0  0  0  0  2  0  0  0  0
  1  2  4  0        0
  2  3  4  0        0
  3  4  4  0        0
  4  5  4  0        0
  5  6  4  0        0
  1  6  4  0        0
  6  7  4  0        0
  7  8  4  0        0
  8  9  4  0        0
  9 10  4  0        0
 10 11  4  0        0
 11 12  4  0        0
  7 12  4  0        0
  9 13  4  0        0
 13 14  4  0        0
 14 15  4  0        0
 15 16  4  0        0
  8 16  4  0        0
 16 17  4  0        0
  1 17  4  0        0
 17 18  4  0        0
 18 19  4  0        0
 19 20  4  0        0
  2 20  4  0        0
M  END
$$$$

CDXL12

 24 29  0  0  0  0  0  0  0  0999 V2000
    0.0076   -0.8674    0.0000 C   0  0  0  0  0  0  0  2  0  0  0  0
   -0.6598   -1.3523    0.0000 C   0  0  0  0  0  0  0  2  0  0  0  0
   -0.4049   -2.1370    0.0000 C   0  0  0  0  0  0  0  2  0  0  0  0
   -0.9569   -2.7501    0.0000 C   0  0  0  0  0  0  0  2  0  0  0  0
   -1.7639   -2.5785    0.0000 C   0  0  0  0  0  0  0  2  0  0  0  0
   -2.0188   -1.7939    0.0000 C   0  0  0  0  0  0  0  2  0  0  0  0
   -1.4668   -1.1808    0.0000 C   0  0  0  0  0  0  0  2  0  0  0  0
    0.4201   -2.1370    0.0000 C   0  0  0  0  0  0  0  2  0  0  0  0
    0.6751   -1.3523    0.0000 C   0  0  0  0  0  0  0  2  0  0  0  0
    1.4287   -1.0168    0.0000 C   0  0  0  0  0  0  0  2  0  0  0  0
    2.0188   -1.5934    0.0000 C   0  0  0  0  0  0  0  2  0  0  0  0
    1.8363   -2.3979    0.0000 C   0  0  0  0  0  0  0  2  0  0  0  0
    1.0552   -2.6635    0.0000 C   0  0  0  0  0  0  0  2  0  0  0  0
    1.5150   -0.1963    0.0000 C   0  0  0  0  0  0  0  2  0  0  0  0
    0.8475    0.2886    0.0000 C   0  0  0  0  0  0  0  2  0  0  0  0
    0.0939   -0.0469    0.0000 C   0  0  0  0  0  0  0  2  0  0  0  0
   -0.5736    0.4380    0.0000 C   0  0  0  0  0  0  0  2  0  0  0  0
   -0.4873    1.2585    0.0000 C   0  0  0  0  0  0  0  2  0  0  0  0
    0.2663    1.5940    0.0000 C   0  0  0  0  0  0  0  2  0  0  0  0
    0.9338    1.1091    0.0000 C   0  0  0  0  0  0  0  2  0  0  0  0
    1.6875    1.4447    0.0000 C   0  0  0  0  0  0  0  2  0  0  0  0
    1.7737    2.2651    0.0000 C   0  0  0  0  0  0  0  2  0  0  0  0
    1.1063    2.7501    0.0000 C   0  0  0  0  0  0  0  2  0  0  0  0
    0.3526    2.4145    0.0000 C   0  0  0  0  0  0  0  2  0  0  0  0
  1  2  4  0        0
  2  3  4  0        0
  3  4  4  0        0
  4  5  4  0        0
  5  6  4  0        0
  6  7  4  0        0
  2  7  4  0        0
  3  8  4  0        0
  8  9  4  0        0
  1  9  4  0        0
  9 10  4  0        0
 10 11  4  0        0
 11 12  4  0        0
 12 13  4  0        0
  8 13  4  0        0
 10 14  4  0        0
 14 15  4  0        0
 15 16  4  0        0
  1 16  4  0        0
 16 17  4  0        0
 17 18  4  0        0
 18 19  4  0        0
 19 20  4  0        0
 15 20  4  0        0
 20 21  4  0        0
 21 22  4  0        0
 22 23  4  0        0
 23 24  4  0        0
 19 24  4  0        0
M  END
$$$$

CDXL12

 15 18  0  0  0  0  0  0  0  0999 V2000
    1.7862    0.2062    0.0000 C   0  0  0  0  0  0  0  2  0  0  0  0
    1.7862    1.0312    0.0000 C   0  0  0  0  0  0  0  2  0  0  0  0
    1.0717    1.4437    0.0000 C   0  0  0  0  0  0  0  2  0  0  0  0
    0.3572    1.0312    0.0000 C   0  0  0  0  0  0  0  2  0  0  0  0
   -0.3572    1.4437    0.0000 C   0  0  0  0  0  0  0  2  0  0  0  0
   -1.0717    1.0312    0.0000 C   0  0  0  0  0  0  0  2  0  0  0  0
   -1.0717    0.2062    0.0000 C   0  0  0  0  0  0  0  2  0  0  0  0
   -1.7862   -0.2063    0.0000 C   0  0  0  0  0  0  0  2  0  0  0  0
   -1.7862   -1.0312    0.0000 C   0  0  0  0  0  0  0  2  0  0  0  0
   -1.0717   -1.4437    0.0000 C   0  0  0  0  0  0  0  2  0  0  0  0
   -0.3572   -1.0312    0.0000 C   0  0  0  0  0  0  0  2  0  0  0  0
    0.6309   -1.0927    0.0000 C   0  0  0  0  0  0  0  2  0  0  0  0
    1.0717   -0.2063    0.0000 C   0  0  0  0  0  0  0  2  0  0  0  0
    0.3572    0.2062    0.0000 C   0  0  0  0  0  0  0  2  0  0  0  0
   -0.3572   -0.2063    0.0000 C   0  0  0  0  0  0  0  2  0  0  0  0
  1  2  4  0        0
  2  3  4  0        0
  3  4  4  0        0
  4  5  4  0        0
  5  6  4  0        0
  6  7  4  0        0
  7  8  4  0        0
  8  9  4  0        0
  9 10  4  0        0
 10 11  4  0        0
 11 12  1  0        0
 12 13  1  0        0
  1 13  4  0        0
 13 14  4  0        0
  4 14  4  0        0
 14 15  4  0        0
  7 15  4  0        0
 11 15  4  0        0
M  END
$$$$

CDXL12

 20 24  0  0  0  0  0  0  0  0999 V2000
   -2.5498    0.3930    0.0000 C   0  0  0  0  0  0  0  2  0  0  0  0
   -1.9977    1.0061    0.0000 C   0  0  0  0  0  0  0  2  0  0  0  0
   -1.1908    0.8345    0.0000 C   0  0  0  0  0  0  0  2  0  0  0  0
   -0.9358    0.0499    0.0000 C   0  0  0  0  0  0  0  2  0  0  0  0
   -1.4879   -0.5632    0.0000 C   0  0  0  0  0  0  0  2  0  0  0  0
   -2.2948   -0.3917    0.0000 C   0  0  0  0  0  0  0  2  0  0  0  0
   -1.2329   -1.3478    0.0000 C   0  0  0  0  0  0  0  2  0  0  0  0
   -0.4259   -1.5193    0.0000 C   0  0  0  0  0  0  0  2  0  0  0  0
    0.1261   -0.9062    0.0000 C   0  0  0  0  0  0  0  2  0  0  0  0
    0.9511   -0.9062    0.0000 C   0  0  0  0  0  0  0  2  0  0  0  0
    1.5862   -1.4328    0.0000 C   0  0  0  0  0  0  0  2  0  0  0  0
    2.3673   -1.1672    0.0000 C   0  0  0  0  0  0  0  2  0  0  0  0
    2.5498   -0.3627    0.0000 C   0  0  0  0  0  0  0  2  0  0  0  0
    1.9597    0.2139    0.0000 C   0  0  0  0  0  0  0  2  0  0  0  0
    2.0459    1.0344    0.0000 C   0  0  0  0  0  0  0  2  0  0  0  0
    1.3785    1.5193    0.0000 C   0  0  0  0  0  0  0  2  0  0  0  0
    0.6248    1.1838    0.0000 C   0  0  0  0  0  0  0  2  0  0  0  0
    0.5386    0.3633    0.0000 C   0  0  0  0  0  0  0  2  0  0  0  0
    1.2060   -0.1216    0.0000 C   0  0  0  0  0  0  0  2  0  0  0  0
   -0.1288   -0.1216    0.0000 C   0  0  0  0  0  0  0  2  0  0  0  0
  1  2  4  0        0
  2  3  4  0        0
  3  4  4  0        0
  4  5  4  0        0
  5  6  4  0        0
  1  6  4  0        0
  5  7  4  0        0
  7  8  4  0        0
  8  9  4  0        0
  9 10  4  0        0
 10 11  4  0        0
 11 12  4  0        0
 12 13  4  0        0
 13 14  4  0        0
 14 15  4  0        0
 15 16  4  0        0
 16 17  4  0        0
 17 18  4  0        0
 18 19  4  0        0
 10 19  4  0        0
 14 19  4  0        0
 18 20  4  0        0
  4 20  4  0        0
  9 20  4  0        0
M  END
$$$$

CDXL12

 20 24  0  0  0  0  0  0  0  0999 V2000
    1.2128    0.1829    0.0000 C   0  0  0  0  0  0  0  2  0  0  0  0
    1.9273    0.5954    0.0000 C   0  0  0  0  0  0  0  2  0  0  0  0
    2.6417    0.1829    0.0000 C   0  0  0  0  0  0  0  2  0  0  0  0
    2.6417   -0.6421    0.0000 C   0  0  0  0  0  0  0  2  0  0  0  0
    1.9273   -1.0546    0.0000 C   0  0  0  0  0  0  0  2  0  0  0  0
    1.2128   -0.6421    0.0000 C   0  0  0  0  0  0  0  2  0  0  0  0
    0.4983   -1.0546    0.0000 C   0  0  0  0  0  0  0  2  0  0  0  0
   -0.2162   -0.6421    0.0000 C   0  0  0  0  0  0  0  2  0  0  0  0
   -1.0008   -0.8970    0.0000 C   0  0  0  0  0  0  0  2  0  0  0  0
   -1.3363   -1.6507    0.0000 C   0  0  0  0  0  0  0  2  0  0  0  0
   -2.1568   -1.7370    0.0000 C   0  0  0  0  0  0  0  2  0  0  0  0
   -2.6417   -1.0695    0.0000 C   0  0  0  0  0  0  0  2  0  0  0  0
   -2.3062   -0.3158    0.0000 C   0  0  0  0  0  0  0  2  0  0  0  0
   -1.4857   -0.2296    0.0000 C   0  0  0  0  0  0  0  2  0  0  0  0
   -1.0008    0.4378    0.0000 C   0  0  0  0  0  0  0  2  0  0  0  0
   -0.2162    0.1829    0.0000 C   0  0  0  0  0  0  0  2  0  0  0  0
    0.4983    0.5954    0.0000 C   0  0  0  0  0  0  0  2  0  0  0  0
    0.3787    1.4117    0.0000 C   0  0  0  0  0  0  0  2  0  0  0  0
   -0.3795    1.7370    0.0000 C   0  0  0  0  0  0  0  2  0  0  0  0
   -1.0535    1.2612    0.0000 C   0  0  0  0  0  0  0  2  0  0  0  0
  1  2  4  0        0
  2  3  4  0        0
  3  4  4  0        0
  4  5  4  0        0
  5  6  4  0        0
  1  6  4  0        0
  6  7  4  0        0
  7  8  4  0        0
  8  9  4  0        0
  9 10  4  0        0
 10 11  4  0        0
 11 12  4  0        0
 12 13  4  0        0
 13 14  4  0        0
  9 14  4  0        0
 14 15  4  0        0
 15 16  4  0        0
  8 16  4  0        0
 16 17  4  0        0
  1 17  4  0        0
 17 18  4  0        0
 18 19  4  0        0
 19 20  4  0        0
 15 20  4  0        0
M  END
$$$$

CDXL12

 16 19  0  0  0  0  0  0  0  0999 V2000
    0.6674   -0.0654    0.0000 C   0  0  0  0  0  0  0  2  0  0  0  0
    1.4744    0.1062    0.0000 C   0  0  0  0  0  0  0  2  0  0  0  0
    1.6129    0.9194    0.0000 C   0  0  0  0  0  0  0  2  0  0  0  0
    0.9923    1.4631    0.0000 C   0  0  0  0  0  0  0  2  0  0  0  0
    0.2043    1.2188    0.0000 C   0  0  0  0  0  0  0  2  0  0  0  0
    0.0000    0.4195    0.0000 C   0  0  0  0  0  0  0  2  0  0  0  0
   -0.6674   -0.0654    0.0000 C   0  0  0  0  0  0  0  2  0  0  0  0
   -0.4125   -0.8500    0.0000 C   0  0  0  0  0  0  0  2  0  0  0  0
   -0.9645   -1.4631    0.0000 C   0  0  0  0  0  0  0  2  0  0  0  0
   -1.7715   -1.2916    0.0000 C   0  0  0  0  0  0  0  2  0  0  0  0
   -2.0264   -0.5069    0.0000 C   0  0  0  0  0  0  0  2  0  0  0  0
   -1.4744    0.1062    0.0000 C   0  0  0  0  0  0  0  2  0  0  0  0
    0.4125   -0.8500    0.0000 C   0  0  0  0  0  0  0  2  0  0  0  0
    0.9645   -1.4631    0.0000 C   0  0  0  0  0  0  0  2  0  0  0  0
    1.7715   -1.2916    0.0000 C   0  0  0  0  0  0  0  2  0  0  0  0
    2.0264   -0.5069    0.0000 C   0  0  0  0  0  0  0  2  0  0  0  0
  1  2  4  0        0
  2  3  4  0        0
  3  4  4  0        0
  4  5  4  0        0
  5  6  4  0        0
  1  6  4  0        0
  6  7  4  0        0
  7  8  4  0        0
  8  9  4  0        0
  9 10  4  0        0
 10 11  4  0        0
 11 12  4  0        0
  7 12  4  0        0
  8 13  4  0        0
  1 13  4  0        0
 13 14  4  0        0
 14 15  4  0        0
 15 16  4  0        0
  2 16  4  0        0
M  END
$$$$

CDXL12

 20 24  0  0  0  0  0  0  0  0999 V2000
   -2.6655    0.4839    0.0000 C   0  0  0  0  0  0  0  2  0  0  0  0
   -2.6655   -0.3411    0.0000 C   0  0  0  0  0  0  0  2  0  0  0  0
   -1.9510   -0.7536    0.0000 C   0  0  0  0  0  0  0  2  0  0  0  0
   -1.2365   -0.3411    0.0000 C   0  0  0  0  0  0  0  2  0  0  0  0
   -0.5220   -0.7536    0.0000 C   0  0  0  0  0  0  0  2  0  0  0  0
    0.1924   -0.3411    0.0000 C   0  0  0  0  0  0  0  2  0  0  0  0
    0.1924    0.4839    0.0000 C   0  0  0  0  0  0  0  2  0  0  0  0
   -0.5220    0.8964    0.0000 C   0  0  0  0  0  0  0  2  0  0  0  0
   -1.2365    0.4839    0.0000 C   0  0  0  0  0  0  0  2  0  0  0  0
   -1.9510    0.8964    0.0000 C   0  0  0  0  0  0  0  2  0  0  0  0
    0.9770    0.7389    0.0000 C   0  0  0  0  0  0  0  2  0  0  0  0
    1.4184    1.4359    0.0000 C   0  0  0  0  0  0  0  2  0  0  0  0
    2.2433    1.4247    0.0000 C   0  0  0  0  0  0  0  2  0  0  0  0
    2.6655    0.7159    0.0000 C   0  0  0  0  0  0  0  2  0  0  0  0
    2.2825   -0.0148    0.0000 C   0  0  0  0  0  0  0  2  0  0  0  0
    2.6180   -0.7685    0.0000 C   0  0  0  0  0  0  0  2  0  0  0  0
    2.1331   -1.4359    0.0000 C   0  0  0  0  0  0  0  2  0  0  0  0
    1.3126   -1.3497    0.0000 C   0  0  0  0  0  0  0  2  0  0  0  0
    0.9770   -0.5960    0.0000 C   0  0  0  0  0  0  0  2  0  0  0  0
    1.4620    0.0714    0.0000 C   0  0  0  0  0  0  0  2  0  0  0  0
  1  2  4  0        0
  2  3  4  0        0
  3  4  4  0        0
  4  5  4  0        0
  5  6  4  0        0
  6  7  4  0        0
  7  8  4  0        0
  8  9  4  0        0
  4  9  4  0        0
  9 10  4  0        0
  1 10  4  0        0
  7 11  4  0        0
 11 12  4  0        0
 12 13  4  0        0
 13 14  4  0        0
 14 15  4  0        0
 15 16  4  0        0
 16 17  4  0        0
 17 18  4  0        0
 18 19  4  0        0
  6 19  4  0        0
 19 20  4  0        0
 11 20  4  0        0
 15 20  4  0        0
M  END
$$$$

CDXL12

 12 14  0  0  0  0  0  0  0  0999 V2000
   -1.4289    0.0286    0.0000 C   0  0  0  0  0  0  0  2  0  0  0  0
   -1.4289   -0.7964    0.0000 C   0  0  0  0  0  0  0  2  0  0  0  0
   -0.7145   -1.2089    0.0000 C   0  0  0  0  0  0  0  2  0  0  0  0
    0.0000   -0.7964    0.0000 C   0  0  0  0  0  0  0  2  0  0  0  0
    0.7145   -1.2089    0.0000 C   0  0  0  0  0  0  0  2  0  0  0  0
    1.4289   -0.7964    0.0000 C   0  0  0  0  0  0  0  2  0  0  0  0
    1.4289    0.0286    0.0000 C   0  0  0  0  0  0  0  2  0  0  0  0
    0.7145    0.4411    0.0000 C   0  0  0  0  0  0  0  2  0  0  0  0
    0.0000    0.0286    0.0000 C   0  0  0  0  0  0  0  2  0  0  0  0
   -0.7145    0.4411    0.0000 C   0  0  0  0  0  0  0  2  0  0  0  0
   -0.4125    1.2089    0.0000 C   0  0  0  0  0  0  0  2  0  0  0  0
    0.4125    1.2089    0.0000 C   0  0  0  0  0  0  0  2  0  0  0  0
  1  2  4  0        0
  2  3  4  0        0
  3  4  4  0        0
  4  5  4  0        0
  5  6  4  0        0
  6  7  4  0        0
  7  8  4  0        0
  8  9  4  0        0
  4  9  4  0        0
  9 10  4  0        0
  1 10  4  0        0
 10 11  1  0        0
 11 12  1  0        0
  8 12  1  0        0
M  END
$$$$

CDXL12

 22 26  0  0  0  0  0  0  0  0999 V2000
    2.1434    2.0625    0.0000 C   0  0  0  0  0  0  0  2  0  0  0  0
    1.4289    1.6500    0.0000 C   0  0  0  0  0  0  0  2  0  0  0  0
    1.4289    0.8250    0.0000 C   0  0  0  0  0  0  0  2  0  0  0  0
    0.7145    0.4125    0.0000 C   0  0  0  0  0  0  0  2  0  0  0  0
   -0.0000    0.8250    0.0000 C   0  0  0  0  0  0  0  2  0  0  0  0
   -0.7145    0.4125    0.0000 C   0  0  0  0  0  0  0  2  0  0  0  0
   -0.7145   -0.4125    0.0000 C   0  0  0  0  0  0  0  2  0  0  0  0
   -1.4289   -0.8250    0.0000 C   0  0  0  0  0  0  0  2  0  0  0  0
   -2.1434   -0.4125    0.0000 C   0  0  0  0  0  0  0  2  0  0  0  0
   -2.8579   -0.8250    0.0000 C   0  0  0  0  0  0  0  2  0  0  0  0
   -2.8579   -1.6500    0.0000 C   0  0  0  0  0  0  0  2  0  0  0  0
   -2.1434   -2.0625    0.0000 C   0  0  0  0  0  0  0  2  0  0  0  0
   -1.4289   -1.6500    0.0000 C   0  0  0  0  0  0  0  2  0  0  0  0
   -0.7145   -2.0625    0.0000 C   0  0  0  0  0  0  0  2  0  0  0  0
   -0.0000   -1.6500    0.0000 C   0  0  0  0  0  0  0  2  0  0  0  0
   -0.0000   -0.8250    0.0000 C   0  0  0  0  0  0  0  2  0  0  0  0
    0.7145   -0.4125    0.0000 C   0  0  0  0  0  0  0  2  0  0  0  0
    1.4289   -0.8250    0.0000 C   0  0  0  0  0  0  0  2  0  0  0  0
    2.1434   -0.4125    0.0000 C   0  0  0  0  0  0  0  2  0  0  0  0
    2.1434    0.4125    0.0000 C   0  0  0  0  0  0  0  2  0  0  0  0
    2.8579    0.8250    0.0000 C   0  0  0  0  0  0  0  2  0  0  0  0
    2.8579    1.6500    0.0000 C   0  0  0  0  0  0  0  2  0  0  0  0
  1  2  4  0        0
  2  3  4  0        0
  3  4  4  0        0
  4  5  4  0        0
  5  6  4  0        0
  6  7  4  0        0
  7  8  4  0        0
  8  9  4  0        0
  9 10  4  0        0
 10 11  4  0        0
 11 12  4  0        0
 12 13  4  0        0
  8 13  4  0        0
 13 14  4  0        0
 14 15  4  0        0
 15 16  4  0        0
  7 16  4  0        0
 16 17  4  0        0
  4 17  4  0        0
 17 18  4  0        0
 18 19  4  0        0
 19 20  4  0        0
  3 20  4  0        0
 20 21  4  0        0
 21 22  4  0        0
  1 22  4  0        0
M  END
$$$$

CDXL12

 22 26  0  0  0  0  0  0  0  0999 V2000
   -2.5006   -0.4125    0.0000 C   0  0  0  0  0  0  0  2  0  0  0  0
   -2.5006    0.4125    0.0000 C   0  0  0  0  0  0  0  2  0  0  0  0
   -1.7862    0.8250    0.0000 C   0  0  0  0  0  0  0  2  0  0  0  0
   -1.0717    0.4125    0.0000 C   0  0  0  0  0  0  0  2  0  0  0  0
   -0.3572    0.8250    0.0000 C   0  0  0  0  0  0  0  2  0  0  0  0
    0.3572    0.4125    0.0000 C   0  0  0  0  0  0  0  2  0  0  0  0
    1.0717    0.8250    0.0000 C   0  0  0  0  0  0  0  2  0  0  0  0
    1.0717    1.6500    0.0000 C   0  0  0  0  0  0  0  2  0  0  0  0
    1.7862    2.0625    0.0000 C   0  0  0  0  0  0  0  2  0  0  0  0
    2.5006    1.6500    0.0000 C   0  0  0  0  0  0  0  2  0  0  0  0
    2.5006    0.8250    0.0000 C   0  0  0  0  0  0  0  2  0  0  0  0
    1.7862    0.4125    0.0000 C   0  0  0  0  0  0  0  2  0  0  0  0
    1.7862   -0.4125    0.0000 C   0  0  0  0  0  0  0  2  0  0  0  0
    2.5006   -0.8250    0.0000 C   0  0  0  0  0  0  0  2  0  0  0  0
    2.5006   -1.6500    0.0000 C   0  0  0  0  0  0  0  2  0  0  0  0
    1.7862   -2.0625    0.0000 C   0  0  0  0  0  0  0  2  0  0  0  0
    1.0717   -1.6500    0.0000 C   0  0  0  0  0  0  0  2  0  0  0  0
    1.0717   -0.8250    0.0000 C   0  0  0  0  0  0  0  2  0  0  0  0
    0.3572   -0.4125    0.0000 C   0  0  0  0  0  0  0  2  0  0  0  0
   -0.3572   -0.8250    0.0000 C   0  0  0  0  0  0  0  2  0  0  0  0
   -1.0717   -0.4125    0.0000 C   0  0  0  0  0  0  0  2  0  0  0  0
   -1.7862   -0.8250    0.0000 C   0  0  0  0  0  0  0  2  0  0  0  0
  1  2  4  0        0
  2  3  4  0        0
  3  4  4  0        0
  4  5  4  0        0
  5  6  4  0        0
  6  7  4  0        0
  7  8  4  0        0
  8  9  4  0        0
  9 10  4  0        0
 10 11  4  0        0
 11 12  4  0        0
  7 12  4  0        0
 12 13  4  0        0
 13 14  4  0        0
 14 15  4  0        0
 15 16  4  0        0
 16 17  4  0        0
 17 18  4  0        0
 13 18  4  0        0
 18 19  4  0        0
  6 19  4  0        0
 19 20  4  0        0
 20 21  4  0        0
  4 21  4  0        0
 21 22  4  0        0
  1 22  4  0        0
M  END
$$$$

CDXL12

 18 21  0  0  0  0  0  0  0  0999 V2000
    1.7862    1.6500    0.0000 C   0  0  0  0  0  0  0  2  0  0  0  0
    1.0717    2.0625    0.0000 C   0  0  0  0  0  0  0  2  0  0  0  0
    0.3572    1.6500    0.0000 C   0  0  0  0  0  0  0  2  0  0  0  0
    0.3572    0.8250    0.0000 C   0  0  0  0  0  0  0  2  0  0  0  0
   -0.3572    0.4125    0.0000 C   0  0  0  0  0  0  0  2  0  0  0  0
   -1.0717    0.8250    0.0000 C   0  0  0  0  0  0  0  2  0  0  0  0
   -1.7862    0.4125    0.0000 C   0  0  0  0  0  0  0  2  0  0  0  0
   -1.7862   -0.4125    0.0000 C   0  0  0  0  0  0  0  2  0  0  0  0
   -1.0717   -0.8250    0.0000 C   0  0  0  0  0  0  0  2  0  0  0  0
   -0.3572   -0.4125    0.0000 C   0  0  0  0  0  0  0  2  0  0  0  0
    0.3572   -0.8250    0.0000 C   0  0  0  0  0  0  0  2  0  0  0  0
    0.3572   -1.6500    0.0000 C   0  0  0  0  0  0  0  2  0  0  0  0
    1.0717   -2.0625    0.0000 C   0  0  0  0  0  0  0  2  0  0  0  0
    1.7862   -1.6500    0.0000 C   0  0  0  0  0  0  0  2  0  0  0  0
    1.7862   -0.8250    0.0000 C   0  0  0  0  0  0  0  2  0  0  0  0
    1.0717   -0.4125    0.0000 C   0  0  0  0  0  0  0  2  0  0  0  0
    1.0717    0.4125    0.0000 C   0  0  0  0  0  0  0  2  0  0  0  0
    1.7862    0.8250    0.0000 C   0  0  0  0  0  0  0  2  0  0  0  0
  1  2  4  0        0
  2  3  4  0        0
  3  4  4  0        0
  4  5  4  0        0
  5  6  4  0        0
  6  7  4  0        0
  7  8  4  0        0
  8  9  4  0        0
  9 10  4  0        0
  5 10  4  0        0
 10 11  4  0        0
 11 12  4  0        0
 12 13  4  0        0
 13 14  4  0        0
 14 15  4  0        0
 15 16  4  0        0
 11 16  4  0        0
 16 17  4  0        0
  4 17  4  0        0
 17 18  4  0        0
  1 18  4  0        0
M  END
$$$$

CDXL12

 22 26  0  0  0  0  0  0  0  0999 V2000
    2.8579    1.0312    0.0000 C   0  0  0  0  0  0  0  2  0  0  0  0
    2.1434    1.4437    0.0000 C   0  0  0  0  0  0  0  2  0  0  0  0
    1.4289    1.0312    0.0000 C   0  0  0  0  0  0  0  2  0  0  0  0
    1.4289    0.2062    0.0000 C   0  0  0  0  0  0  0  2  0  0  0  0
    2.1434   -0.2063    0.0000 C   0  0  0  0  0  0  0  2  0  0  0  0
    2.8579    0.2062    0.0000 C   0  0  0  0  0  0  0  2  0  0  0  0
    2.1434   -1.0313    0.0000 C   0  0  0  0  0  0  0  2  0  0  0  0
    1.4289   -1.4438    0.0000 C   0  0  0  0  0  0  0  2  0  0  0  0
    0.7145   -1.0313    0.0000 C   0  0  0  0  0  0  0  2  0  0  0  0
    0.0000   -1.4437    0.0000 C   0  0  0  0  0  0  0  2  0  0  0  0
   -0.7145   -1.0312    0.0000 C   0  0  0  0  0  0  0  2  0  0  0  0
   -1.4289   -1.4437    0.0000 C   0  0  0  0  0  0  0  2  0  0  0  0
   -2.1434   -1.0312    0.0000 C   0  0  0  0  0  0  0  2  0  0  0  0
   -2.1434   -0.2062    0.0000 C   0  0  0  0  0  0  0  2  0  0  0  0
   -2.8579    0.2062    0.0000 C   0  0  0  0  0  0  0  2  0  0  0  0
   -2.8579    1.0313    0.0000 C   0  0  0  0  0  0  0  2  0  0  0  0
   -2.1434    1.4438    0.0000 C   0  0  0  0  0  0  0  2  0  0  0  0
   -1.4289    1.0313    0.0000 C   0  0  0  0  0  0  0  2  0  0  0  0
   -1.4289    0.2062    0.0000 C   0  0  0  0  0  0  0  2  0  0  0  0
   -0.7145   -0.2062    0.0000 C   0  0  0  0  0  0  0  2  0  0  0  0
    0.0000    0.2062    0.0000 C   0  0  0  0  0  0  0  2  0  0  0  0
    0.7145   -0.2063    0.0000 C   0  0  0  0  0  0  0  2  0  0  0  0
  1  2  4  0        0
  2  3  4  0        0
  3  4  4  0        0
  4  5  4  0        0
  5  6  4  0        0
  1  6  4  0        0
  5  7  4  0        0
  7  8  4  0        0
  8  9  4  0        0
  9 10  4  0        0
 10 11  4  0        0
 11 12  4  0        0
 12 13  4  0        0
 13 14  4  0        0
 14 15  4  0        0
 15 16  4  0        0
 16 17  4  0        0
 17 18  4  0        0
 18 19  4  0        0
 14 19  4  0        0
 19 20  4  0        0
 11 20  4  0        0
 20 21  4  0        0
 21 22  4  0        0
  4 22  4  0        0
  9 22  4  0        0
M  END
$$$$

CDXL12

 22 26  0  0  0  0  0  0  0  0999 V2000
    2.8579    1.6500    0.0000 C   0  0  0  0  0  0  0  2  0  0  0  0
    2.1434    2.0625    0.0000 C   0  0  0  0  0  0  0  2  0  0  0  0
    1.4289    1.6500    0.0000 C   0  0  0  0  0  0  0  2  0  0  0  0
    1.4289    0.8250    0.0000 C   0  0  0  0  0  0  0  2  0  0  0  0
    2.1434    0.4125    0.0000 C   0  0  0  0  0  0  0  2  0  0  0  0
    2.8579    0.8250    0.0000 C   0  0  0  0  0  0  0  2  0  0  0  0
    2.1434   -0.4125    0.0000 C   0  0  0  0  0  0  0  2  0  0  0  0
    1.4289   -0.8250    0.0000 C   0  0  0  0  0  0  0  2  0  0  0  0
    0.7145   -0.4125    0.0000 C   0  0  0  0  0  0  0  2  0  0  0  0
    0.0000   -0.8250    0.0000 N   0  0  0  0  0  0  0  2  0  0  0  0
   -0.7145   -0.4125    0.0000 C   0  0  0  0  0  0  0  2  0  0  0  0
   -0.7145    0.4125    0.0000 C   0  0  0  0  0  0  0  2  0  0  0  0
   -1.4289    0.8250    0.0000 C   0  0  0  0  0  0  0  2  0  0  0  0
   -2.1434    0.4125    0.0000 C   0  0  0  0  0  0  0  2  0  0  0  0
   -2.1434   -0.4125    0.0000 C   0  0  0  0  0  0  0  2  0  0  0  0
   -2.8579   -0.8250    0.0000 C   0  0  0  0  0  0  0  2  0  0  0  0
   -2.8579   -1.6500    0.0000 C   0  0  0  0  0  0  0  2  0  0  0  0
   -2.1434   -2.0625    0.0000 C   0  0  0  0  0  0  0  2  0  0  0  0
   -1.4289   -1.6500    0.0000 C   0  0  0  0  0  0  0  2  0  0  0  0
   -1.4289   -0.8250    0.0000 C   0  0  0  0  0  0  0  2  0  0  0  0
    0.0000    0.8250    0.0000 C   0  0  0  0  0  0  0  2  0  0  0  0
    0.7145    0.4125    0.0000 C   0  0  0  0  0  0  0  2  0  0  0  0
  1  2  4  0        0
  2  3  4  0        0
  3  4  4  0        0
  4  5  4  0        0
  5  6  4  0        0
  1  6  4  0        0
  5  7  4  0        0
  7  8  4  0        0
  8  9  4  0        0
  9 10  4  0        0
 10 11  4  0        0
 11 12  4  0        0
 12 13  4  0        0
 13 14  4  0        0
 14 15  4  0        0
 15 16  4  0        0
 16 17  4  0        0
 17 18  4  0        0
 18 19  4  0        0
 19 20  4  0        0
 11 20  4  0        0
 15 20  4  0        0
 12 21  4  0        0
 21 22  4  0        0
  4 22  4  0        0
  9 22  4  0        0
M  END
$$$$

CDXL12

 14 16  0  0  0  0  0  0  0  0999 V2000
   -1.7862   -1.0312    0.0000 C   0  0  0  0  0  0  0  2  0  0  0  0
   -1.7862   -0.2063    0.0000 C   0  0  0  0  0  0  0  2  0  0  0  0
   -1.0717    0.2062    0.0000 C   0  0  0  0  0  0  0  2  0  0  0  0
   -0.3572   -0.2063    0.0000 C   0  0  0  0  0  0  0  2  0  0  0  0
   -0.3572   -1.0312    0.0000 C   0  0  0  0  0  0  0  2  0  0  0  0
   -1.0717   -1.4437    0.0000 C   0  0  0  0  0  0  0  2  0  0  0  0
    0.3572   -1.4437    0.0000 C   0  0  0  0  0  0  0  2  0  0  0  0
    1.0717   -1.0312    0.0000 N   0  0  0  0  0  0  0  2  0  0  0  0
    1.0717   -0.2063    0.0000 C   0  0  0  0  0  0  0  2  0  0  0  0
    1.7862    0.2062    0.0000 C   0  0  0  0  0  0  0  2  0  0  0  0
    1.7862    1.0312    0.0000 C   0  0  0  0  0  0  0  2  0  0  0  0
    1.0717    1.4437    0.0000 C   0  0  0  0  0  0  0  2  0  0  0  0
    0.3572    1.0313    0.0000 C   0  0  0  0  0  0  0  2  0  0  0  0
    0.3572    0.2063    0.0000 C   0  0  0  0  0  0  0  2  0  0  0  0
  1  2  4  0        0
  2  3  4  0        0
  3  4  4  0        0
  4  5  4  0        0
  5  6  4  0        0
  1  6  4  0        0
  5  7  4  0        0
  7  8  4  0        0
  8  9  4  0        0
  9 10  4  0        0
 10 11  4  0        0
 11 12  4  0        0
 12 13  4  0        0
 13 14  4  0        0
  4 14  4  0        0
  9 14  4  0        0
M  END
$$$$

CDXL12

 17 20  0  0  0  0  0  0  0  0999 V2000
   -0.5310    0.6199    0.0000 C   0  0  0  0  0  0  0  2  0  0  0  0
   -1.1984    0.1350    0.0000 C   0  0  0  0  0  0  0  2  0  0  0  0
   -2.0054    0.3065    0.0000 C   0  0  0  0  0  0  0  2  0  0  0  0
   -2.5574   -0.3065    0.0000 C   0  0  0  0  0  0  0  2  0  0  0  0
   -2.3025   -1.0912    0.0000 C   0  0  0  0  0  0  0  2  0  0  0  0
   -1.4955   -1.2627    0.0000 C   0  0  0  0  0  0  0  2  0  0  0  0
   -0.9435   -0.6496    0.0000 C   0  0  0  0  0  0  0  2  0  0  0  0
   -0.1185   -0.6496    0.0000 C   0  0  0  0  0  0  0  2  0  0  0  0
    0.4336   -1.2627    0.0000 C   0  0  0  0  0  0  0  2  0  0  0  0
    1.2405   -1.0912    0.0000 C   0  0  0  0  0  0  0  2  0  0  0  0
    1.4955   -0.3065    0.0000 C   0  0  0  0  0  0  0  2  0  0  0  0
    2.3025   -0.1350    0.0000 C   0  0  0  0  0  0  0  2  0  0  0  0
    2.5574    0.6496    0.0000 C   0  0  0  0  0  0  0  2  0  0  0  0
    2.0054    1.2627    0.0000 C   0  0  0  0  0  0  0  2  0  0  0  0
    1.1984    1.0912    0.0000 C   0  0  0  0  0  0  0  2  0  0  0  0
    0.9435    0.3065    0.0000 C   0  0  0  0  0  0  0  2  0  0  0  0
    0.1365    0.1350    0.0000 C   0  0  0  0  0  0  0  2  0  0  0  0
  1  2  1  0        0
  2  3  4  0        0
  3  4  4  0        0
  4  5  4  0        0
  5  6  4  0        0
  6  7  4  0        0
  2  7  4  0        0
  7  8  1  0        0
  8  9  4  0        0
  9 10  4  0        0
 10 11  4  0        0
 11 12  4  0        0
 12 13  4  0        0
 13 14  4  0        0
 14 15  4  0        0
 15 16  4  0        0
 11 16  4  0        0
 16 17  4  0        0
  1 17  1  0        0
  8 17  4  0        0
M  END
$$$$

CDXL12

 21 25  0  0  0  0  0  0  0  0999 V2000
    3.0884    0.6496    0.0000 C   0  0  0  0  0  0  0  2  0  0  0  0
    2.5363    1.2627    0.0000 C   0  0  0  0  0  0  0  2  0  0  0  0
    1.7293    1.0912    0.0000 C   0  0  0  0  0  0  0  2  0  0  0  0
    1.4744    0.3065    0.0000 C   0  0  0  0  0  0  0  2  0  0  0  0
    2.0264   -0.3065    0.0000 C   0  0  0  0  0  0  0  2  0  0  0  0
    2.8334   -0.1350    0.0000 C   0  0  0  0  0  0  0  2  0  0  0  0
    1.7715   -1.0912    0.0000 C   0  0  0  0  0  0  0  2  0  0  0  0
    0.9645   -1.2627    0.0000 C   0  0  0  0  0  0  0  2  0  0  0  0
    0.4125   -0.6496    0.0000 C   0  0  0  0  0  0  0  2  0  0  0  0
   -0.4125   -0.6496    0.0000 C   0  0  0  0  0  0  0  2  0  0  0  0
   -0.9645   -1.2627    0.0000 C   0  0  0  0  0  0  0  2  0  0  0  0
   -1.7715   -1.0912    0.0000 C   0  0  0  0  0  0  0  2  0  0  0  0
   -2.0264   -0.3065    0.0000 C   0  0  0  0  0  0  0  2  0  0  0  0
   -2.8334   -0.1350    0.0000 C   0  0  0  0  0  0  0  2  0  0  0  0
   -3.0884    0.6496    0.0000 C   0  0  0  0  0  0  0  2  0  0  0  0
   -2.5363    1.2627    0.0000 C   0  0  0  0  0  0  0  2  0  0  0  0
   -1.7293    1.0912    0.0000 C   0  0  0  0  0  0  0  2  0  0  0  0
   -1.4744    0.3065    0.0000 C   0  0  0  0  0  0  0  2  0  0  0  0
   -0.6674    0.1350    0.0000 C   0  0  0  0  0  0  0  2  0  0  0  0
    0.0000    0.6199    0.0000 N   0  0  0  0  0  0  0  2  0  0  0  0
    0.6674    0.1350    0.0000 C   0  0  0  0  0  0  0  2  0  0  0  0
  1  2  4  0        0
  2  3  4  0        0
  3  4  4  0        0
  4  5  4  0        0
  5  6  4  0        0
  1  6  4  0        0
  5  7  4  0        0
  7  8  4  0        0
  8  9  4  0        0
  9 10  4  0        0
 10 11  4  0        0
 11 12  4  0        0
 12 13  4  0        0
 13 14  4  0        0
 14 15  4  0        0
 15 16  4  0        0
 16 17  4  0        0
 17 18  4  0        0
 13 18  4  0        0
 18 19  4  0        0
 10 19  4  0        0
 19 20  4  0        0
 20 21  4  0        0
  4 21  4  0        0
  9 21  4  0        0
M  END
$$$$

CDXL12

 17 20  0  0  0  0  0  0  0  0999 V2000
    2.6417   -0.4987    0.0000 C   0  0  0  0  0  0  0  2  0  0  0  0
    2.1568   -1.1662    0.0000 C   0  0  0  0  0  0  0  2  0  0  0  0
    1.3363   -1.0799    0.0000 C   0  0  0  0  0  0  0  2  0  0  0  0
    1.0008   -0.3263    0.0000 C   0  0  0  0  0  0  0  2  0  0  0  0
    0.2162   -0.0713    0.0000 C   0  0  0  0  0  0  0  2  0  0  0  0
   -0.4983   -0.4838    0.0000 C   0  0  0  0  0  0  0  2  0  0  0  0
   -1.2128   -0.0713    0.0000 C   0  0  0  0  0  0  0  2  0  0  0  0
   -1.9273   -0.4838    0.0000 C   0  0  0  0  0  0  0  2  0  0  0  0
   -2.6417   -0.0713    0.0000 C   0  0  0  0  0  0  0  2  0  0  0  0
   -2.6417    0.7537    0.0000 C   0  0  0  0  0  0  0  2  0  0  0  0
   -1.9273    1.1662    0.0000 C   0  0  0  0  0  0  0  2  0  0  0  0
   -1.2128    0.7537    0.0000 C   0  0  0  0  0  0  0  2  0  0  0  0
   -0.4983    1.1662    0.0000 C   0  0  0  0  0  0  0  2  0  0  0  0
    0.2162    0.7537    0.0000 C   0  0  0  0  0  0  0  2  0  0  0  0
    1.0008    1.0086    0.0000 C   0  0  0  0  0  0  0  2  0  0  0  0
    1.4857    0.3412    0.0000 C   0  0  0  0  0  0  0  2  0  0  0  0
    2.3062    0.2549    0.0000 C   0  0  0  0  0  0  0  2  0  0  0  0
  1  2  4  0        0
  2  3  4  0        0
  3  4  4  0        0
  4  5  1  0        0
  5  6  4  0        0
  6  7  4  0        0
  7  8  4  0        0
  8  9  4  0        0
  9 10  4  0        0
 10 11  4  0        0
 11 12  4  0        0
  7 12  4  0        0
 12 13  4  0        0
 13 14  4  0        0
  5 14  4  0        0
 14 15  1  0        0
 15 16  1  0        0
  4 16  4  0        0
 16 17  4  0        0
  1 17  4  0        0
M  END
$$$$

CDXL12

 14 16  0  0  0  0  0  0  0  0999 V2000
    0.0000   -0.8250    0.0000 N   0  0  0  0  0  0  0  2  0  0  0  0
    0.7145   -0.4125    0.0000 C   0  0  0  0  0  0  0  2  0  0  0  0
    0.7145    0.4125    0.0000 C   0  0  0  0  0  0  0  2  0  0  0  0
    1.4289    0.8250    0.0000 C   0  0  0  0  0  0  0  2  0  0  0  0
    2.1434    0.4125    0.0000 C   0  0  0  0  0  0  0  2  0  0  0  0
    2.1434   -0.4125    0.0000 C   0  0  0  0  0  0  0  2  0  0  0  0
    1.4289   -0.8250    0.0000 C   0  0  0  0  0  0  0  2  0  0  0  0
    0.0000    0.8250    0.0000 C   0  0  0  0  0  0  0  2  0  0  0  0
   -0.7145    0.4125    0.0000 C   0  0  0  0  0  0  0  2  0  0  0  0
   -1.4289    0.8250    0.0000 C   0  0  0  0  0  0  0  2  0  0  0  0
   -2.1434    0.4125    0.0000 C   0  0  0  0  0  0  0  2  0  0  0  0
   -2.1434   -0.4125    0.0000 C   0  0  0  0  0  0  0  2  0  0  0  0
   -1.4289   -0.8250    0.0000 C   0  0  0  0  0  0  0  2  0  0  0  0
   -0.7145   -0.4125    0.0000 C   0  0  0  0  0  0  0  2  0  0  0  0
  1  2  4  0        0
  2  3  4  0        0
  3  4  4  0        0
  4  5  4  0        0
  5  6  4  0        0
  6  7  4  0        0
  2  7  4  0        0
  3  8  4  0        0
  8  9  4  0        0
  9 10  4  0        0
 10 11  4  0        0
 11 12  4  0        0
 12 13  4  0        0
 13 14  4  0        0
  1 14  4  0        0
  9 14  4  0        0
M  END
$$$$

CDXL12

 14 16  0  0  0  0  0  0  0  0999 V2000
    0.0000    0.8250    0.0000 O   0  0  0  0  0  0  0  2  0  0  0  0
    0.7145    0.4125    0.0000 C   0  0  0  0  0  0  0  2  0  0  0  0
    1.4289    0.8250    0.0000 C   0  0  0  0  0  0  0  2  0  0  0  0
    2.1434    0.4125    0.0000 C   0  0  0  0  0  0  0  2  0  0  0  0
    2.1434   -0.4125    0.0000 C   0  0  0  0  0  0  0  2  0  0  0  0
    1.4289   -0.8250    0.0000 C   0  0  0  0  0  0  0  2  0  0  0  0
    0.7145   -0.4125    0.0000 C   0  0  0  0  0  0  0  2  0  0  0  0
    0.0000   -0.8250    0.0000 O   0  0  0  0  0  0  0  2  0  0  0  0
   -0.7145   -0.4125    0.0000 C   0  0  0  0  0  0  0  2  0  0  0  0
   -1.4289   -0.8250    0.0000 C   0  0  0  0  0  0  0  2  0  0  0  0
   -2.1434   -0.4125    0.0000 C   0  0  0  0  0  0  0  2  0  0  0  0
   -2.1434    0.4125    0.0000 C   0  0  0  0  0  0  0  2  0  0  0  0
   -1.4289    0.8250    0.0000 C   0  0  0  0  0  0  0  2  0  0  0  0
   -0.7145    0.4125    0.0000 C   0  0  0  0  0  0  0  2  0  0  0  0
  1  2  1  0        0
  2  3  4  0        0
  3  4  4  0        0
  4  5  4  0        0
  5  6  4  0        0
  6  7  4  0        0
  2  7  4  0        0
  7  8  1  0        0
  8  9  1  0        0
  9 10  4  0        0
 10 11  4  0        0
 11 12  4  0        0
 12 13  4  0        0
 13 14  4  0        0
  1 14  1  0        0
  9 14  4  0        0
M  END
$$$$

CDXL12

  9 10  0  0  0  0  0  0  0  0999 V2000
    0.8643    0.6674    0.0000 O   0  0  0  0  0  0  0  2  0  0  0  0
    0.0797    0.4125    0.0000 C   0  0  0  0  0  0  0  2  0  0  0  0
    0.0797   -0.4125    0.0000 C   0  0  0  0  0  0  0  2  0  0  0  0
    0.8643   -0.6674    0.0000 N   0  0  0  0  0  0  0  2  0  0  0  0
    1.3492   -0.0000    0.0000 C   0  0  0  0  0  0  0  2  0  0  0  0
   -0.6348   -0.8250    0.0000 C   0  0  0  0  0  0  0  2  0  0  0  0
   -1.3492   -0.4125    0.0000 C   0  0  0  0  0  0  0  2  0  0  0  0
   -1.3492    0.4125    0.0000 C   0  0  0  0  0  0  0  2  0  0  0  0
   -0.6348    0.8250    0.0000 C   0  0  0  0  0  0  0  2  0  0  0  0
  1  2  4  0        0
  2  3  4  0        0
  3  4  4  0        0
  4  5  4  0        0
  1  5  4  0        0
  3  6  4  0        0
  6  7  4  0        0
  7  8  4  0        0
  8  9  4  0        0
  2  9  4  0        0
M  END
$$$$

CDXL12

  5  5  0  0  0  0  0  0  0  0999 V2000
    0.4125    0.6348    0.0000 C   0  0  0  0  0  0  0  2  0  0  0  0
    0.6674   -0.1498    0.0000 C   0  0  0  0  0  0  0  2  0  0  0  0
   -0.0000   -0.6348    0.0000 C   0  0  0  0  0  0  0  2  0  0  0  0
   -0.6674   -0.1498    0.0000 C   0  0  0  0  0  0  0  2  0  0  0  0
   -0.4125    0.6348    0.0000 C   0  0  0  0  0  0  0  2  0  0  0  0
  1  2  1  0        0
  2  3  1  0        0
  3  4  1  0        0
  4  5  1  0        0
  1  5  1  0        0
M  END
$$$$

CDXL12

  7  7  0  0  0  0  0  0  0  0999 V2000
   -0.4125   -0.9036    0.0000 C   0  0  0  0  0  0  0  2  0  0  0  0
   -0.9269   -0.2586    0.0000 C   0  0  0  0  0  0  0  2  0  0  0  0
   -0.7433    0.5457    0.0000 C   0  0  0  0  0  0  0  2  0  0  0  0
    0.0000    0.9036    0.0000 C   0  0  0  0  0  0  0  2  0  0  0  0
    0.7433    0.5457    0.0000 C   0  0  0  0  0  0  0  2  0  0  0  0
    0.9269   -0.2586    0.0000 C   0  0  0  0  0  0  0  2  0  0  0  0
    0.4125   -0.9036    0.0000 C   0  0  0  0  0  0  0  2  0  0  0  0
  1  2  1  0        0
  2  3  1  0        0
  3  4  1  0        0
  4  5  1  0        0
  5  6  1  0        0
  6  7  1  0        0
  1  7  1  0        0
M  END
$$$$

CDXL12

 15 15  0  0  0  0  0  0  0  0999 V2000
    0.7145    0.4125    0.0000 O   0  0  0  0  0  0  0  2  0  0  0  0
    0.0000    0.8250    0.0000 P   0  0  0  0  0  0  0  2  0  0  0  0
   -0.7145    0.4125    0.0000 O   0  0  0  0  0  0  0  2  0  0  0  0
   -1.4289    0.8250    0.0000 C   0  0  0  0  0  0  0  2  0  0  0  0
   -2.1434    0.4125    0.0000 C   0  0  0  0  0  0  0  2  0  0  0  0
    0.0000    0.0000    0.0000 O   0  0  0  0  0  0  0  2  0  0  0  0
    0.7145   -0.4125    0.0000 C   0  0  0  0  0  0  0  2  0  0  0  0
    1.4289    0.0000    0.0000 N   0  0  0  0  0  0  0  2  0  0  0  0
    2.1434   -0.4125    0.0000 C   0  0  0  0  0  0  0  2  0  0  0  0
    2.1434   -1.2375    0.0000 C   0  0  0  0  0  0  0  2  0  0  0  0
    1.4289   -1.6500    0.0000 N   0  0  0  0  0  0  0  2  0  0  0  0
    0.7145   -1.2375    0.0000 C   0  0  0  0  0  0  0  2  0  0  0  0
    0.0000    1.6500    0.0000 S   0  0  0  0  0  0  0  2  0  0  0  0
    1.4289    0.8250    0.0000 C   0  0  0  0  0  0  0  2  0  0  0  0
    2.1434    0.4125    0.0000 C   0  0  0  0  0  0  0  2  0  0  0  0
  1  2  1  0        0
  2  3  1  0        0
  3  4  1  0        0
  4  5  1  0        0
  2  6  1  0        0
  6  7  1  0        0
  7  8  4  0        0
  8  9  4  0        0
  9 10  4  0        0
 10 11  4  0        0
 11 12  4  0        0
  7 12  4  0        0
  2 13  2  0        0
  1 14  1  0        0
 14 15  1  0        0
M  END
$$$$

CDXL12

  9  8  0  0  0  0  0  0  0  0999 V2000
    0.7145   -0.4125    0.0000 O   0  0  0  0  0  0  0  2  0  0  0  0
    0.0000   -0.0000    0.0000 P   0  0  0  0  0  0  0  2  0  0  0  0
   -0.7145   -0.4125    0.0000 O   0  0  0  0  0  0  0  2  0  0  0  0
   -1.4289   -0.0000    0.0000 C   0  0  0  0  0  0  0  2  0  0  0  0
   -2.1434   -0.4125    0.0000 C   0  0  0  0  0  0  0  2  0  0  0  0
    0.0000   -0.8250    0.0000 S   0  0  0  0  0  0  0  2  0  0  0  0
    0.0000    0.8250    0.0000 S   0  0  0  0  0  0  0  2  0  0  0  0
    1.4289    0.0000    0.0000 C   0  0  0  0  0  0  0  2  0  0  0  0
    2.1434   -0.4125    0.0000 C   0  0  0  0  0  0  0  2  0  0  0  0
  1  2  1  0        0
  2  3  1  0        0
  3  4  1  0        0
  4  5  1  0        0
  2  6  1  0        0
  2  7  2  0        0
  1  8  1  0        0
  8  9  1  0        0
M  END
$$$$

CDXL12

  5  4  0  0  0  0  0  0  0  0999 V2000
   -1.0717   -0.2062    0.0000 O   0  0  0  0  0  0  0  2  0  0  0  0
   -0.3572   -0.6187    0.0000 C   0  0  0  0  0  0  0  2  0  0  0  0
    0.3572   -0.2062    0.0000 C   0  0  0  0  0  0  0  2  0  0  0  0
    0.3572    0.6187    0.0000 O   0  0  0  0  0  0  0  2  0  0  0  0
    1.0717   -0.6187    0.0000 O   0  0  0  0  0  0  0  2  0  0  0  0
  1  2  2  0        0
  2  3  1  0        0
  3  4  2  0        0
  3  5  1  0        0
M  END
$$$$

CDXL12

  6  7  0  0  0  0  0  0  0  0999 V2000
   -1.1822    0.2062    0.0000 C   0  0  0  0  0  0  0  2  0  0  0  0
   -0.7697    0.9207    0.0000 O   0  0  0  0  0  0  0  2  0  0  0  0
   -0.3572    0.2062    0.0000 C   0  0  0  0  0  0  0  2  0  0  0  0
    0.3572   -0.2062    0.0000 C   0  0  0  0  0  0  0  2  0  0  0  0
    1.1822   -0.2062    0.0000 C   0  0  0  0  0  0  0  2  0  0  0  0
    0.7697   -0.9207    0.0000 O   0  0  0  0  0  0  0  2  0  0  0  0
  1  2  1  0        0
  2  3  1  0        0
  1  3  1  0        0
  3  4  1  0        0
  4  5  1  0        0
  5  6  1  0        0
  4  6  1  0        0
M  END
$$$$

CDXL12

 12 12  0  0  0  0  0  0  0  0999 V2000
    0.0000   -1.2375    0.0000 O   0  0  0  0  0  0  0  2  0  0  0  0
    0.0000   -0.4125    0.0000 C   0  0  0  0  0  0  0  2  0  0  0  0
    0.7145    0.0000    0.0000 C   0  0  0  0  0  0  0  2  0  0  0  0
    0.7145    0.8250    0.0000 C   0  0  0  0  0  0  0  2  0  0  0  0
    1.4289    1.2375    0.0000 C   0  0  0  0  0  0  0  2  0  0  0  0
    2.1434    0.8250    0.0000 C   0  0  0  0  0  0  0  2  0  0  0  0
    2.1434    0.0000    0.0000 C   0  0  0  0  0  0  0  2  0  0  0  0
    1.4289   -0.4125    0.0000 C   0  0  0  0  0  0  0  2  0  0  0  0
   -0.7145   -0.0000    0.0000 C   0  0  0  0  0  0  0  2  0  0  0  0
   -1.4289   -0.4125    0.0000 N   0  0  0  0  0  0  0  2  0  0  0  0
   -2.1434   -0.0000    0.0000 C   0  0  0  0  0  0  0  2  0  0  0  0
   -0.7145    0.8250    0.0000 C   0  0  0  0  0  0  0  2  0  0  0  0
  1  2  1  0        0
  2  3  1  0        0
  3  4  4  0        0
  4  5  4  0        0
  5  6  4  0        0
  6  7  4  0        0
  7  8  4  0        0
  3  8  4  0        0
  2  9  1  0        0
  9 10  1  0        0
 10 11  1  0        0
  9 12  1  0        0
M  END
$$$$

CDXL12

 16 16  0  0  0  0  0  0  0  0999 V2000
    2.5006   -0.0000    0.0000 C   0  0  0  0  0  0  0  2  0  0  0  0
    1.7862   -0.4125    0.0000 O   0  0  0  0  0  0  0  2  0  0  0  0
    1.0717    0.0000    0.0000 P   0  0  0  0  0  0  0  2  0  0  0  0
    1.0717    0.8250    0.0000 S   0  0  0  0  0  0  0  2  0  0  0  0
    1.0717   -0.8250    0.0000 O   0  0  0  0  0  0  0  2  0  0  0  0
    1.7862   -1.2375    0.0000 C   0  0  0  0  0  0  0  2  0  0  0  0
    0.3572   -0.4125    0.0000 O   0  0  0  0  0  0  0  2  0  0  0  0
   -0.3572   -0.0000    0.0000 C   0  0  0  0  0  0  0  2  0  0  0  0
   -1.0717   -0.4125    0.0000 C   0  0  0  0  0  0  0  2  0  0  0  0
   -1.7862    0.0000    0.0000 C   0  0  0  0  0  0  0  2  0  0  0  0
   -2.5006   -0.4125    0.0000 Cl  0  0  0  0  0  0  0  2  0  0  0  0
   -1.7862    0.8250    0.0000 C   0  0  0  0  0  0  0  2  0  0  0  0
   -2.5006    1.2375    0.0000 Cl  0  0  0  0  0  0  0  2  0  0  0  0
   -1.0717    1.2375    0.0000 C   0  0  0  0  0  0  0  2  0  0  0  0
   -0.3572    0.8250    0.0000 C   0  0  0  0  0  0  0  2  0  0  0  0
    0.3572    1.2375    0.0000 Cl  0  0  0  0  0  0  0  2  0  0  0  0
  1  2  1  0        0
  2  3  1  0        0
  3  4  2  0        0
  3  5  1  0        0
  5  6  1  0        0
  3  7  1  0        0
  7  8  1  0        0
  8  9  4  0        0
  9 10  4  0        0
 10 11  1  0        0
 10 12  4  0        0
 12 13  1  0        0
 12 14  4  0        0
 14 15  4  0        0
  8 15  4  0        0
 15 16  1  0        0
M  END
$$$$

CDXL12

 17 17  0  0  0  0  0  0  0  0999 V2000
   -1.4289   -1.2375    0.0000 C   0  0  0  0  0  0  0  2  0  0  0  0
   -0.7145   -0.8250    0.0000 O   0  0  0  0  0  0  0  2  0  0  0  0
   -0.7145    0.0000    0.0000 P   0  0  0  0  0  0  0  2  0  0  0  0
   -0.7145    0.8250    0.0000 S   0  0  0  0  0  0  0  2  0  0  0  0
   -1.4289   -0.4125    0.0000 N   0  0  0  0  0  0  0  2  0  0  0  0
   -2.1434   -0.0000    0.0000 C   0  0  0  0  0  0  0  2  0  0  0  0
   -2.1434    0.8250    0.0000 C   0  0  0  0  0  0  0  2  0  0  0  0
   -2.8579   -0.4125    0.0000 C   0  0  0  0  0  0  0  2  0  0  0  0
   -0.0000   -0.4125    0.0000 O   0  0  0  0  0  0  0  2  0  0  0  0
    0.7145    0.0000    0.0000 C   0  0  0  0  0  0  0  2  0  0  0  0
    1.4289   -0.4125    0.0000 C   0  0  0  0  0  0  0  2  0  0  0  0
    2.1434    0.0000    0.0000 C   0  0  0  0  0  0  0  2  0  0  0  0
    2.1434    0.8250    0.0000 C   0  0  0  0  0  0  0  2  0  0  0  0
    2.8579    1.2375    0.0000 Cl  0  0  0  0  0  0  0  2  0  0  0  0
    1.4289    1.2375    0.0000 C   0  0  0  0  0  0  0  2  0  0  0  0
    0.7145    0.8250    0.0000 C   0  0  0  0  0  0  0  2  0  0  0  0
   -0.0000    1.2375    0.0000 Cl  0  0  0  0  0  0  0  2  0  0  0  0
  1  2  1  0        0
  2  3  1  0        0
  3  4  2  0        0
  3  5  1  0        0
  5  6  1  0        0
  6  7  1  0        0
  6  8  1  0        0
  3  9  1  0        0
  9 10  1  0        0
 10 11  4  0        0
 11 12  4  0        0
 12 13  4  0        0
 13 14  1  0        0
 13 15  4  0        0
 15 16  4  0        0
 10 16  4  0        0
 16 17  1  0        0
M  END
$$$$

CDXL12

 13 12  0  0  0  0  0  0  0  0999 V2000
    2.1434    0.2062    0.0000 C   0  0  0  0  0  0  0  2  0  0  0  0
    1.4289   -0.2062    0.0000 O   0  0  0  0  0  0  0  2  0  0  0  0
    0.7145    0.2062    0.0000 P   0  0  0  0  0  0  0  2  0  0  0  0
    0.7145    1.0312    0.0000 O   0  0  0  0  0  0  0  2  0  0  0  0
    0.7145   -0.6187    0.0000 O   0  0  0  0  0  0  0  2  0  0  0  0
    1.4289   -1.0312    0.0000 C   0  0  0  0  0  0  0  2  0  0  0  0
    0.0000   -0.2062    0.0000 O   0  0  0  0  0  0  0  2  0  0  0  0
   -0.7145    0.2062    0.0000 C   0  0  0  0  0  0  0  2  0  0  0  0
   -0.7145    1.0312    0.0000 Br  0  0  0  0  0  0  0  2  0  0  0  0
   -1.4289   -0.2062    0.0000 C   0  0  0  0  0  0  0  2  0  0  0  0
   -1.8414   -0.9207    0.0000 Cl  0  0  0  0  0  0  0  2  0  0  0  0
   -1.0164   -0.9207    0.0000 Cl  0  0  0  0  0  0  0  2  0  0  0  0
   -2.1434    0.2063    0.0000 Br  0  0  0  0  0  0  0  2  0  0  0  0
  1  2  1  0        0
  2  3  1  0        0
  3  4  2  0        0
  3  5  1  0        0
  5  6  1  0        0
  3  7  1  0        0
  7  8  1  0        0
  8  9  1  0        0
  8 10  1  0        0
 10 11  1  0        0
 10 12  1  0        0
 10 13  1  0        0
M  END
$$$$

CDXL12

 13 12  0  0  0  0  0  0  0  0999 V2000
    2.8579    0.2062    0.0000 C   0  0  0  0  0  0  0  2  0  0  0  0
    2.1434   -0.2062    0.0000 C   0  0  0  0  0  0  0  2  0  0  0  0
    1.4289    0.2062    0.0000 S   0  0  0  0  0  0  0  2  0  0  0  0
    1.4289    1.0312    0.0000 O   0  0  0  0  0  0  0  2  0  0  0  0
    0.7145   -0.2062    0.0000 C   0  0  0  0  0  0  0  2  0  0  0  0
   -0.0000    0.2062    0.0000 C   0  0  0  0  0  0  0  2  0  0  0  0
   -0.7145   -0.2062    0.0000 S   0  0  0  0  0  0  0  2  0  0  0  0
   -1.4289    0.2062    0.0000 P   0  0  0  0  0  0  0  2  0  0  0  0
   -1.4289    1.0313    0.0000 O   0  0  0  0  0  0  0  2  0  0  0  0
   -2.1434   -0.2062    0.0000 O   0  0  0  0  0  0  0  2  0  0  0  0
   -2.8579    0.2062    0.0000 C   0  0  0  0  0  0  0  2  0  0  0  0
   -1.4289   -0.6188    0.0000 O   0  0  0  0  0  0  0  2  0  0  0  0
   -2.1434   -1.0313    0.0000 C   0  0  0  0  0  0  0  2  0  0  0  0
  1  2  1  0        0
  2  3  1  0        0
  3  4  2  0        0
  3  5  1  0        0
  5  6  1  0        0
  6  7  1  0        0
  7  8  1  0        0
  8  9  2  0        0
  8 10  1  0        0
 10 11  1  0        0
  8 12  1  0        0
 12 13  1  0        0
M  END
$$$$

CDXL12

  7  6  0  0  0  0  0  0  0  0999 V2000
   -1.0717   -0.2062    0.0000 O   0  0  0  0  0  0  0  2  0  0  0  0
   -0.3572    0.2062    0.0000 C   0  0  0  0  0  0  0  2  0  0  0  0
   -0.3572    1.0313    0.0000 O   0  0  0  0  0  0  0  2  0  0  0  0
    0.3572   -0.2062    0.0000 C   0  0  0  0  0  0  0  2  0  0  0  0
    1.0717    0.2062    0.0000 Cl  0  0  0  0  0  0  0  2  0  0  0  0
    0.3572   -1.0313    0.0000 Cl  0  0  0  0  0  0  0  2  0  0  0  0
    1.0717   -0.6188    0.0000 Cl  0  0  0  0  0  0  0  2  0  0  0  0
  1  2  1  0        0
  2  3  1  0        0
  2  4  1  0        0
  4  5  1  0        0
  4  6  1  0        0
  4  7  1  0        0
M  END
$$$$

CDXL12

 11 11  0  0  0  0  0  0  0  0999 V2000
    0.7145    1.2375    0.0000 O   0  0  0  0  0  0  0  2  0  0  0  0
    0.7145    0.4125    0.0000 C   0  0  0  0  0  0  0  2  0  0  0  0
    1.4289   -0.0000    0.0000 O   0  0  0  0  0  0  0  2  0  0  0  0
    0.0000   -0.0000    0.0000 C   0  0  0  0  0  0  0  2  0  0  0  0
   -0.7145    0.4125    0.0000 C   0  0  0  0  0  0  0  2  0  0  0  0
   -0.7145    1.2375    0.0000 O   0  0  0  0  0  0  0  2  0  0  0  0
   -1.4289   -0.0000    0.0000 C   0  0  0  0  0  0  0  2  0  0  0  0
   -1.4289   -0.8250    0.0000 C   0  0  0  0  0  0  0  2  0  0  0  0
   -0.7145   -1.2375    0.0000 C   0  0  0  0  0  0  0  2  0  0  0  0
    0.0000   -0.8250    0.0000 C   0  0  0  0  0  0  0  2  0  0  0  0
    0.7145   -1.2375    0.0000 O   0  0  0  0  0  0  0  2  0  0  0  0
  1  2  2  0        0
  2  3  1  0        0
  2  4  1  0        0
  4  5  4  0        0
  5  6  1  0        0
  5  7  4  0        0
  7  8  4  0        0
  8  9  4  0        0
  9 10  4  0        0
  4 10  4  0        0
 10 11  1  0        0
M  END
$$$$

CDXL12

 18 18  0  0  0  0  0  0  0  0999 V2000
    2.8579   -0.8250    0.0000 C   0  0  0  0  0  0  0  2  0  0  0  0
    2.1434   -1.2375    0.0000 C   0  0  0  0  0  0  0  2  0  0  0  0
    1.4289   -0.8250    0.0000 O   0  0  0  0  0  0  0  2  0  0  0  0
    0.7145   -1.2375    0.0000 P   0  0  0  0  0  0  0  2  0  0  0  0
    0.7145   -2.0625    0.0000 O   0  0  0  0  0  0  0  2  0  0  0  0
   -0.0000   -0.8250    0.0000 O   0  0  0  0  0  0  0  2  0  0  0  0
   -0.7145   -1.2375    0.0000 C   0  0  0  0  0  0  0  2  0  0  0  0
   -1.4289   -0.8250    0.0000 C   0  0  0  0  0  0  0  2  0  0  0  0
    0.7145   -0.4125    0.0000 O   0  0  0  0  0  0  0  2  0  0  0  0
   -0.0000    0.0000    0.0000 C   0  0  0  0  0  0  0  2  0  0  0  0
   -0.7145   -0.4125    0.0000 C   0  0  0  0  0  0  0  2  0  0  0  0
   -1.4289    0.0000    0.0000 C   0  0  0  0  0  0  0  2  0  0  0  0
   -1.4289    0.8250    0.0000 C   0  0  0  0  0  0  0  2  0  0  0  0
   -0.7145    1.2375    0.0000 C   0  0  0  0  0  0  0  2  0  0  0  0
   -0.0000    0.8250    0.0000 C   0  0  0  0  0  0  0  2  0  0  0  0
   -2.1434    1.2375    0.0000 N   0  0  0  0  0  0  0  2  0  0  0  0
   -2.1434    2.0625    0.0000 O   0  0  0  0  0  0  0  2  0  0  0  0
   -2.8579    0.8250    0.0000 O   0  0  0  0  0  0  0  2  0  0  0  0
  1  2  1  0        0
  2  3  1  0        0
  3  4  1  0        0
  4  5  2  0        0
  4  6  1  0        0
  6  7  1  0        0
  7  8  1  0        0
  4  9  1  0        0
  9 10  1  0        0
 10 11  4  0        0
 11 12  4  0        0
 12 13  4  0        0
 13 14  4  0        0
 14 15  4  0        0
 10 15  4  0        0
 13 16  1  0        0
 16 17  2  0        0
 16 18  2  0        0
M  END
$$$$

CDXL12

 14 14  0  0  0  0  0  0  0  0999 V2000
    0.7145   -1.2375    0.0000 N   0  0  0  0  0  0  0  2  0  0  0  0
    0.0000   -0.8250    0.0000 C   0  0  0  0  0  0  0  2  0  0  0  0
   -0.7145   -1.2375    0.0000 O   0  0  0  0  0  0  0  2  0  0  0  0
    0.0000    0.0000    0.0000 N   0  0  0  0  0  0  0  2  0  0  0  0
   -0.7145    0.4125    0.0000 C   0  0  0  0  0  0  0  2  0  0  0  0
   -0.7145    1.2375    0.0000 C   0  0  0  0  0  0  0  2  0  0  0  0
   -1.4289    0.0000    0.0000 C   0  0  0  0  0  0  0  2  0  0  0  0
   -2.1434    0.4125    0.0000 C   0  0  0  0  0  0  0  2  0  0  0  0
    0.7145    0.4125    0.0000 C   0  0  0  0  0  0  0  2  0  0  0  0
    0.7145    1.2375    0.0000 O   0  0  0  0  0  0  0  2  0  0  0  0
    1.4289   -0.0000    0.0000 C   0  0  0  0  0  0  0  2  0  0  0  0
    2.1434    0.4125    0.0000 Br  0  0  0  0  0  0  0  2  0  0  0  0
    1.4289   -0.8250    0.0000 C   0  0  0  0  0  0  0  2  0  0  0  0
    2.1434   -1.2375    0.0000 C   0  0  0  0  0  0  0  2  0  0  0  0
  1  2  1  0        0
  2  3  2  0        0
  2  4  1  0        0
  4  5  1  0        0
  5  6  1  0        0
  5  7  1  0        0
  7  8  1  0        0
  4  9  1  0        0
  9 10  2  0        0
  9 11  1  0        0
 11 12  1  0        0
 11 13  2  0        0
  1 13  1  0        0
 13 14  1  0        0
M  END
$$$$

CDXL12

 13 13  0  0  0  0  0  0  0  0999 V2000
    0.3572   -1.2375    0.0000 N   0  0  0  0  0  0  0  2  0  0  0  0
   -0.3572   -0.8250    0.0000 C   0  0  0  0  0  0  0  2  0  0  0  0
   -1.0717   -1.2375    0.0000 O   0  0  0  0  0  0  0  2  0  0  0  0
   -0.3572    0.0000    0.0000 N   0  0  0  0  0  0  0  2  0  0  0  0
   -1.0717    0.4125    0.0000 C   0  0  0  0  0  0  0  2  0  0  0  0
   -1.0717    1.2375    0.0000 C   0  0  0  0  0  0  0  2  0  0  0  0
   -1.7862    0.0000    0.0000 C   0  0  0  0  0  0  0  2  0  0  0  0
    0.3572    0.4125    0.0000 C   0  0  0  0  0  0  0  2  0  0  0  0
    0.3572    1.2375    0.0000 O   0  0  0  0  0  0  0  2  0  0  0  0
    1.0717   -0.0000    0.0000 C   0  0  0  0  0  0  0  2  0  0  0  0
    1.7862    0.4125    0.0000 Br  0  0  0  0  0  0  0  2  0  0  0  0
    1.0717   -0.8250    0.0000 C   0  0  0  0  0  0  0  2  0  0  0  0
    1.7862   -1.2375    0.0000 C   0  0  0  0  0  0  0  2  0  0  0  0
  1  2  1  0        0
  2  3  2  0        0
  2  4  1  0        0
  4  5  1  0        0
  5  6  1  0        0
  5  7  1  0        0
  4  8  1  0        0
  8  9  2  0        0
  8 10  1  0        0
 10 11  1  0        0
 10 12  2  0        0
  1 12  1  0        0
 12 13  1  0        0
M  END
$$$$

CDXL12

 10 11  0  0  0  0  0  0  0  0999 V2000
   -1.3492    0.8250    0.0000 C   0  0  0  0  0  0  0  2  0  0  0  0
   -1.3492    0.0000    0.0000 N   0  0  0  0  0  0  0  2  0  0  0  0
   -0.6348   -0.4125    0.0000 C   0  0  0  0  0  0  0  2  0  0  0  0
   -0.6348   -1.2375    0.0000 O   0  0  0  0  0  0  0  2  0  0  0  0
    0.0797    0.0000    0.0000 C   0  0  0  0  0  0  0  2  0  0  0  0
    0.8643   -0.2549    0.0000 C   0  0  0  0  0  0  0  2  0  0  0  0
    1.3492    0.4125    0.0000 N   0  0  0  0  0  0  0  2  0  0  0  0
    0.8643    1.0799    0.0000 N   0  0  0  0  0  0  0  2  0  0  0  0
    0.0797    0.8250    0.0000 C   0  0  0  0  0  0  0  2  0  0  0  0
   -0.6348    1.2375    0.0000 N   0  0  0  0  0  0  0  2  0  0  0  0
  1  2  4  0        0
  2  3  4  0        0
  3  4  1  0        0
  3  5  4  0        0
  5  6  4  0        0
  6  7  4  0        0
  7  8  4  0        0
  8  9  4  0        0
  5  9  4  0        0
  9 10  4  0        0
  1 10  4  0        0
M  END
$$$$

CDXL12

 38 42  0  0  0  0  0  0  0  0999 V2000
   -1.7862   -1.4438    0.0000 C   0  0  0  0  0  0  0  2  0  0  0  0
   -1.0717   -1.8563    0.0000 C   0  0  0  0  0  0  0  2  0  0  0  0
   -0.3572   -1.4438    0.0000 C   0  0  0  0  0  0  0  2  0  0  0  0
    0.3572   -1.8563    0.0000 C   0  0  0  0  0  0  0  2  0  0  0  0
    1.0717   -1.4437    0.0000 N   0  0  0  0  0  0  0  2  0  0  0  0
    1.0717   -2.2687    0.0000 Cl  0  0  0  0  0  0  0  2  0  0  0  0
    1.7862   -1.8563    0.0000 C   0  0  0  0  0  0  0  2  0  0  0  0
    2.5006   -1.4438    0.0000 C   0  0  0  0  0  0  0  2  0  0  0  0
    2.5006   -0.6188    0.0000 C   0  0  0  0  0  0  0  2  0  0  0  0
    3.2151   -0.2063    0.0000 C   0  0  0  0  0  0  0  2  0  0  0  0
    3.2151    0.6187    0.0000 C   0  0  0  0  0  0  0  2  0  0  0  0
    3.9296    1.0312    0.0000 O   0  0  0  0  0  0  0  2  0  0  0  0
    4.6441    0.6187    0.0000 C   0  0  0  0  0  0  0  2  0  0  0  0
    2.5006    1.0312    0.0000 C   0  0  0  0  0  0  0  2  0  0  0  0
    2.5006    1.8562    0.0000 O   0  0  0  0  0  0  0  2  0  0  0  0
    3.2151    2.2687    0.0000 C   0  0  0  0  0  0  0  2  0  0  0  0
    1.7862    0.6187    0.0000 C   0  0  0  0  0  0  0  2  0  0  0  0
    1.7862   -0.2063    0.0000 C   0  0  0  0  0  0  0  2  0  0  0  0
    1.0717   -0.6188    0.0000 C   0  0  0  0  0  0  0  2  0  0  0  0
    0.3572   -0.2063    0.0000 C   0  0  0  0  0  0  0  2  0  0  0  0
   -0.3572   -0.6188    0.0000 C   0  0  0  0  0  0  0  2  0  0  0  0
   -1.0717   -0.2063    0.0000 C   0  0  0  0  0  0  0  2  0  0  0  0
   -1.0717    0.6187    0.0000 C   0  0  0  0  0  0  0  2  0  0  0  0
   -0.3572    1.0312    0.0000 N   0  0  0  0  0  0  0  2  0  0  0  0
    0.4678    1.0312    0.0000 H   0  0  0  0  0  0  0  2  0  0  0  0
    0.0553    0.3168    0.0000 Cl  0  0  0  0  0  0  0  2  0  0  0  0
   -0.3572    1.8562    0.0000 C   0  0  0  0  0  0  0  2  0  0  0  0
   -1.0717    2.2687    0.0000 C   0  0  0  0  0  0  0  2  0  0  0  0
   -1.7862    1.8562    0.0000 C   0  0  0  0  0  0  0  2  0  0  0  0
   -2.5006    2.2687    0.0000 C   0  0  0  0  0  0  0  2  0  0  0  0
   -3.2151    1.8562    0.0000 C   0  0  0  0  0  0  0  2  0  0  0  0
   -3.9296    2.2687    0.0000 O   0  0  0  0  0  0  0  2  0  0  0  0
   -4.6441    1.8562    0.0000 C   0  0  0  0  0  0  0  2  0  0  0  0
   -3.2151    1.0312    0.0000 C   0  0  0  0  0  0  0  2  0  0  0  0
   -3.9296    0.6187    0.0000 O   0  0  0  0  0  0  0  2  0  0  0  0
   -4.6441    1.0312    0.0000 C   0  0  0  0  0  0  0  2  0  0  0  0
   -2.5006    0.6187    0.0000 C   0  0  0  0  0  0  0  2  0  0  0  0
   -1.7862    1.0312    0.0000 C   0  0  0  0  0  0  0  2  0  0  0  0
  1  2  1  0        0
  2  3  1  0        0
  3  4  1  0        0
  4  5  1  0        0
  5  6  1  0        0
  5  7  1  0        0
  7  8  1  0        0
  8  9  1  0        0
  9 10  4  0        0
 10 11  4  0        0
 11 12  1  0        0
 12 13  1  0        0
 11 14  4  0        0
 14 15  1  0        0
 15 16  1  0        0
 14 17  4  0        0
 17 18  4  0        0
  9 18  4  0        0
 18 19  1  0        0
  5 19  1  0        0
 19 20  1  0        0
 20 21  1  0        0
  3 21  1  0        0
 21 22  1  0        0
 22 23  1  0        0
 23 24  1  0        0
 24 25  1  0        0
 24 26  1  0        0
 24 27  1  0        0
 27 28  1  0        0
 28 29  1  0        0
 29 30  4  0        0
 30 31  4  0        0
 31 32  1  0        0
 32 33  1  0        0
 31 34  4  0        0
 34 35  1  0        0
 35 36  1  0        0
 34 37  4  0        0
 37 38  4  0        0
 23 38  1  0        0
 29 38  4  0        0
M  END
$$$$

CDXL12

 12 12  0  0  0  0  0  0  0  0999 V2000
    0.7145   -0.4125    0.0000 C   0  0  0  0  0  0  0  2  0  0  0  0
    0.0000   -0.8250    0.0000 C   0  0  0  0  0  0  0  2  0  0  0  0
   -0.7145   -0.4125    0.0000 C   0  0  0  0  0  0  0  2  0  0  0  0
   -0.7145    0.4125    0.0000 C   0  0  0  0  0  0  0  2  0  0  0  0
    0.0000    0.8250    0.0000 C   0  0  0  0  0  0  0  2  0  0  0  0
    0.0000    1.6500    0.0000 Cl  0  0  0  0  0  0  0  2  0  0  0  0
    0.7145    0.4125    0.0000 C   0  0  0  0  0  0  0  2  0  0  0  0
    1.4289    0.8250    0.0000 Cl  0  0  0  0  0  0  0  2  0  0  0  0
   -1.4289    0.8250    0.0000 Cl  0  0  0  0  0  0  0  2  0  0  0  0
   -1.4289   -0.8250    0.0000 Cl  0  0  0  0  0  0  0  2  0  0  0  0
    0.0000   -1.6500    0.0000 Cl  0  0  0  0  0  0  0  2  0  0  0  0
    1.4289   -0.8250    0.0000 Cl  0  0  0  0  0  0  0  2  0  0  0  0
  1  2  1  0        0
  2  3  1  0        0
  3  4  1  0        0
  4  5  1  0        0
  5  6  1  0        0
  5  7  1  0        0
  1  7  1  0        0
  7  8  1  0        0
  4  9  1  0        0
  3 10  1  0        0
  2 11  1  0        0
  1 12  1  0        0
M  END
$$$$

CDXL12

 12 12  0  0  0  0  0  0  0  0999 V2000
    0.7145   -0.4125    0.0000 C   0  0  0  0  0  0  0  2  0  0  0  0
    0.0000   -0.8250    0.0000 C   0  0  0  0  0  0  0  2  0  0  0  0
   -0.7145   -0.4125    0.0000 C   0  0  0  0  0  0  0  2  0  0  0  0
   -0.7145    0.4125    0.0000 C   0  0  0  0  0  0  0  2  0  0  0  0
    0.0000    0.8250    0.0000 C   0  0  0  0  0  0  0  2  0  0  0  0
    0.0000    1.6500    0.0000 Cl  0  0  0  0  0  0  0  2  0  0  0  0
    0.7145    0.4125    0.0000 C   0  0  0  0  0  0  0  2  0  0  0  0
    1.4289    0.8250    0.0000 Cl  0  0  0  0  0  0  0  2  0  0  0  0
   -1.4289    0.8250    0.0000 Cl  0  0  0  0  0  0  0  2  0  0  0  0
   -1.4289   -0.8250    0.0000 Cl  0  0  0  0  0  0  0  2  0  0  0  0
    0.0000   -1.6500    0.0000 Cl  0  0  0  0  0  0  0  2  0  0  0  0
    1.4289   -0.8250    0.0000 Cl  0  0  0  0  0  0  0  2  0  0  0  0
  1  2  1  0        0
  2  3  1  0        0
  3  4  1  0        0
  4  5  1  0        0
  5  6  1  0        0
  5  7  1  0        0
  1  7  1  0        0
  7  8  1  0        0
  4  9  1  0        0
  3 10  1  0        0
  2 11  1  0        0
  1 12  1  0        0
M  END
$$$$

CDXL12

 11 12  0  0  0  0  0  0  0  0999 V2000
    0.7145    1.2375    0.0000 F   0  0  0  0  0  0  0  2  0  0  0  0
    0.7145    0.4125    0.0000 C   0  0  0  0  0  0  0  2  0  0  0  0
    0.0000    0.0000    0.0000 C   0  0  0  0  0  0  0  2  0  0  0  0
    0.0000   -0.8250    0.0000 C   0  0  0  0  0  0  0  2  0  0  0  0
   -0.7145   -1.2375    0.0000 C   0  0  0  0  0  0  0  2  0  0  0  0
   -1.4289   -0.8250    0.0000 C   0  0  0  0  0  0  0  2  0  0  0  0
   -1.4289    0.0000    0.0000 C   0  0  0  0  0  0  0  2  0  0  0  0
   -0.7145    0.4125    0.0000 C   0  0  0  0  0  0  0  2  0  0  0  0
    0.7145   -1.2375    0.0000 C   0  0  0  0  0  0  0  2  0  0  0  0
    1.4289   -0.8250    0.0000 C   0  0  0  0  0  0  0  2  0  0  0  0
    1.4289   -0.0000    0.0000 C   0  0  0  0  0  0  0  2  0  0  0  0
  1  2  1  0        0
  2  3  4  0        0
  3  4  4  0        0
  4  5  4  0        0
  5  6  4  0        0
  6  7  4  0        0
  7  8  4  0        0
  3  8  4  0        0
  4  9  4  0        0
  9 10  4  0        0
 10 11  4  0        0
  2 11  4  0        0
M  END
$$$$

CDXL12

 10 10  0  0  0  0  0  0  0  0999 V2000
    1.4289   -0.8250    0.0000 F   0  0  0  0  0  0  0  2  0  0  0  0
    0.7145   -0.4125    0.0000 C   0  0  0  0  0  0  0  2  0  0  0  0
    0.0000   -0.8250    0.0000 C   0  0  0  0  0  0  0  2  0  0  0  0
   -0.7145   -0.4125    0.0000 C   0  0  0  0  0  0  0  2  0  0  0  0
   -1.4289   -0.8250    0.0000 F   0  0  0  0  0  0  0  2  0  0  0  0
   -0.7145    0.4125    0.0000 C   0  0  0  0  0  0  0  2  0  0  0  0
   -1.4289    0.8250    0.0000 F   0  0  0  0  0  0  0  2  0  0  0  0
    0.0000    0.8250    0.0000 C   0  0  0  0  0  0  0  2  0  0  0  0
    0.7145    0.4125    0.0000 C   0  0  0  0  0  0  0  2  0  0  0  0
    1.4289    0.8250    0.0000 F   0  0  0  0  0  0  0  2  0  0  0  0
  1  2  1  0        0
  2  3  4  0        0
  3  4  4  0        0
  4  5  1  0        0
  4  6  4  0        0
  6  7  1  0        0
  6  8  4  0        0
  8  9  4  0        0
  2  9  4  0        0
  9 10  1  0        0
M  END
$$$$

CDXL12

  9  8  0  0  0  0  0  0  0  0999 V2000
    1.4289    1.0313    0.0000 O   0  0  0  0  0  0  0  2  0  0  0  0
    1.4289    0.2062    0.0000 C   0  0  0  0  0  0  0  2  0  0  0  0
    2.1434   -0.2062    0.0000 O   0  0  0  0  0  0  0  2  0  0  0  0
    0.7145   -0.2062    0.0000 C   0  0  0  0  0  0  0  2  0  0  0  0
    0.7145   -1.0313    0.0000 N   0  0  0  0  0  0  0  2  0  0  0  0
    0.0000    0.2062    0.0000 C   0  0  0  0  0  0  0  2  0  0  0  0
   -0.7145   -0.2062    0.0000 C   0  0  0  0  0  0  0  2  0  0  0  0
   -1.4289    0.2062    0.0000 C   0  0  0  0  0  0  0  2  0  0  0  0
   -2.1434   -0.2062    0.0000 C   0  0  0  0  0  0  0  2  0  0  0  0
  1  2  2  0        0
  2  3  1  0        0
  2  4  1  0        0
  4  5  1  0        0
  4  6  1  0        0
  6  7  1  0        0
  7  8  1  0        0
  8  9  1  0        0
M  END
$$$$

CDXL12

  9  8  0  0  0  0  0  0  0  0999 V2000
    1.0717    1.0313    0.0000 O   0  0  0  0  0  0  0  2  0  0  0  0
    1.0717    0.2062    0.0000 C   0  0  0  0  0  0  0  2  0  0  0  0
    1.7862   -0.2062    0.0000 O   0  0  0  0  0  0  0  2  0  0  0  0
    0.3572   -0.2062    0.0000 C   0  0  0  0  0  0  0  2  0  0  0  0
    0.3572   -1.0313    0.0000 N   0  0  0  0  0  0  0  2  0  0  0  0
   -0.3572    0.2062    0.0000 C   0  0  0  0  0  0  0  2  0  0  0  0
   -1.0717   -0.2062    0.0000 C   0  0  0  0  0  0  0  2  0  0  0  0
   -1.0717   -1.0313    0.0000 C   0  0  0  0  0  0  0  2  0  0  0  0
   -1.7862    0.2062    0.0000 C   0  0  0  0  0  0  0  2  0  0  0  0
  1  2  2  0        0
  2  3  1  0        0
  2  4  1  0        0
  4  5  1  0        0
  4  6  1  0        0
  6  7  1  0        0
  7  8  1  0        0
  7  9  1  0        0
M  END
$$$$

CDXL12

 13 13  0  0  0  0  0  0  0  0999 V2000
   -1.4289   -0.8250    0.0000 O   0  0  0  0  0  0  0  2  0  0  0  0
   -0.7145   -0.4125    0.0000 C   0  0  0  0  0  0  0  2  0  0  0  0
    0.0000   -0.8250    0.0000 C   0  0  0  0  0  0  0  2  0  0  0  0
    0.7145   -0.4125    0.0000 C   0  0  0  0  0  0  0  2  0  0  0  0
    0.7145    0.4125    0.0000 C   0  0  0  0  0  0  0  2  0  0  0  0
    0.0000    0.8250    0.0000 C   0  0  0  0  0  0  0  2  0  0  0  0
   -0.7145    0.4125    0.0000 C   0  0  0  0  0  0  0  2  0  0  0  0
   -1.4289    0.8250    0.0000 N   0  0  0  0  0  0  0  2  0  0  0  0
   -1.4289    1.6500    0.0000 O   0  0  0  0  0  0  0  2  0  0  0  0
   -2.1434    0.4125    0.0000 O   0  0  0  0  0  0  0  2  0  0  0  0
    1.4289   -0.8250    0.0000 N   0  0  0  0  0  0  0  2  0  0  0  0
    1.4289   -1.6500    0.0000 O   0  0  0  0  0  0  0  2  0  0  0  0
    2.1434   -0.4125    0.0000 O   0  0  0  0  0  0  0  2  0  0  0  0
  1  2  1  0        0
  2  3  4  0        0
  3  4  4  0        0
  4  5  4  0        0
  5  6  4  0        0
  6  7  4  0        0
  2  7  4  0        0
  7  8  1  0        0
  8  9  2  0        0
  8 10  2  0        0
  4 11  1  0        0
 11 12  2  0        0
 11 13  2  0        0
M  END
$$$$

CDXL12

 14 14  0  0  0  0  0  0  0  0999 V2000
   -1.0717    0.8250    0.0000 O   0  0  0  0  0  0  0  2  0  0  0  0
   -1.0717    0.0000    0.0000 C   0  0  0  0  0  0  0  2  0  0  0  0
   -1.7862   -0.4125    0.0000 N   0  0  0  0  0  0  0  2  0  0  0  0
   -1.7862   -1.2375    0.0000 C   0  0  0  0  0  0  0  2  0  0  0  0
   -2.5006    0.0000    0.0000 C   0  0  0  0  0  0  0  2  0  0  0  0
   -0.3572   -0.4125    0.0000 N   0  0  0  0  0  0  0  2  0  0  0  0
    0.3572    0.0000    0.0000 C   0  0  0  0  0  0  0  2  0  0  0  0
    0.3572    0.8250    0.0000 C   0  0  0  0  0  0  0  2  0  0  0  0
    1.0717    1.2375    0.0000 C   0  0  0  0  0  0  0  2  0  0  0  0
    1.7862    0.8250    0.0000 C   0  0  0  0  0  0  0  2  0  0  0  0
    1.7862    0.0000    0.0000 C   0  0  0  0  0  0  0  2  0  0  0  0
    2.5006   -0.4125    0.0000 Cl  0  0  0  0  0  0  0  2  0  0  0  0
    1.0717   -0.4125    0.0000 C   0  0  0  0  0  0  0  2  0  0  0  0
    2.5006    1.2375    0.0000 Cl  0  0  0  0  0  0  0  2  0  0  0  0
  1  2  2  0        0
  2  3  1  0        0
  3  4  1  0        0
  3  5  1  0        0
  2  6  1  0        0
  6  7  1  0        0
  7  8  4  0        0
  8  9  4  0        0
  9 10  4  0        0
 10 11  4  0        0
 11 12  1  0        0
 11 13  4  0        0
  7 13  4  0        0
 10 14  1  0        0
M  END
$$$$

CDXL12

 15 15  0  0  0  0  0  0  0  0999 V2000
   -0.7145    0.8250    0.0000 O   0  0  0  0  0  0  0  2  0  0  0  0
   -0.7145    0.0000    0.0000 C   0  0  0  0  0  0  0  2  0  0  0  0
   -1.4289   -0.4125    0.0000 N   0  0  0  0  0  0  0  2  0  0  0  0
   -2.1434    0.0000    0.0000 O   0  0  0  0  0  0  0  2  0  0  0  0
   -2.8579   -0.4125    0.0000 C   0  0  0  0  0  0  0  2  0  0  0  0
   -1.4289   -1.2375    0.0000 C   0  0  0  0  0  0  0  2  0  0  0  0
    0.0000   -0.4125    0.0000 N   0  0  0  0  0  0  0  2  0  0  0  0
    0.7145    0.0000    0.0000 C   0  0  0  0  0  0  0  2  0  0  0  0
    0.7145    0.8250    0.0000 C   0  0  0  0  0  0  0  2  0  0  0  0
    1.4289    1.2375    0.0000 C   0  0  0  0  0  0  0  2  0  0  0  0
    2.1434    0.8250    0.0000 C   0  0  0  0  0  0  0  2  0  0  0  0
    2.1434    0.0000    0.0000 C   0  0  0  0  0  0  0  2  0  0  0  0
    2.8579   -0.4125    0.0000 Cl  0  0  0  0  0  0  0  2  0  0  0  0
    1.4289   -0.4125    0.0000 C   0  0  0  0  0  0  0  2  0  0  0  0
    2.8579    1.2375    0.0000 Cl  0  0  0  0  0  0  0  2  0  0  0  0
  1  2  2  0        0
  2  3  1  0        0
  3  4  1  0        0
  4  5  1  0        0
  3  6  1  0        0
  2  7  1  0        0
  7  8  1  0        0
  8  9  4  0        0
  9 10  4  0        0
 10 11  4  0        0
 11 12  4  0        0
 12 13  1  0        0
 12 14  4  0        0
  8 14  4  0        0
 11 15  1  0        0
M  END
$$$$

CDXL12

 19 19  0  0  0  0  0  0  0  0999 V2000
    0.0000   -0.8250    0.0000 O   0  0  0  0  0  0  0  2  0  0  0  0
    0.7145   -1.2375    0.0000 P   0  0  0  0  0  0  0  2  0  0  0  0
    1.4289   -0.8250    0.0000 O   0  0  0  0  0  0  0  2  0  0  0  0
    2.1434   -1.2375    0.0000 C   0  0  0  0  0  0  0  2  0  0  0  0
    2.8579   -0.8250    0.0000 C   0  0  0  0  0  0  0  2  0  0  0  0
    0.7145   -0.4125    0.0000 O   0  0  0  0  0  0  0  2  0  0  0  0
    0.0000    0.0000    0.0000 C   0  0  0  0  0  0  0  2  0  0  0  0
   -0.7145   -0.4125    0.0000 N   0  0  0  0  0  0  0  2  0  0  0  0
   -1.4289    0.0000    0.0000 C   0  0  0  0  0  0  0  2  0  0  0  0
   -1.4289    0.8250    0.0000 N   0  0  0  0  0  0  0  2  0  0  0  0
   -0.7145    1.2375    0.0000 C   0  0  0  0  0  0  0  2  0  0  0  0
   -0.7145    2.0625    0.0000 C   0  0  0  0  0  0  0  2  0  0  0  0
    0.0000    0.8250    0.0000 C   0  0  0  0  0  0  0  2  0  0  0  0
   -2.1434   -0.4125    0.0000 C   0  0  0  0  0  0  0  2  0  0  0  0
   -2.1434   -1.2375    0.0000 C   0  0  0  0  0  0  0  2  0  0  0  0
   -2.8579    0.0000    0.0000 C   0  0  0  0  0  0  0  2  0  0  0  0
    0.7145   -2.0625    0.0000 S   0  0  0  0  0  0  0  2  0  0  0  0
   -0.7145   -1.2375    0.0000 C   0  0  0  0  0  0  0  2  0  0  0  0
   -1.4289   -0.8250    0.0000 C   0  0  0  0  0  0  0  2  0  0  0  0
  1  2  1  0        0
  2  3  1  0        0
  3  4  1  0        0
  4  5  1  0        0
  2  6  1  0        0
  6  7  1  0        0
  7  8  4  0        0
  8  9  4  0        0
  9 10  4  0        0
 10 11  4  0        0
 11 12  1  0        0
 11 13  4  0        0
  7 13  4  0        0
  9 14  1  0        0
 14 15  1  0        0
 14 16  1  0        0
  2 17  2  0        0
  1 18  1  0        0
 18 19  1  0        0
M  END
$$$$

CDXL12

 12 11  0  0  0  0  0  0  0  0999 V2000
   -3.5724   -0.6187    0.0000 C   0  0  0  0  0  0  0  2  0  0  0  0
   -2.8579   -0.2062    0.0000 C   0  0  0  0  0  0  0  2  0  0  0  0
   -2.1434   -0.6187    0.0000 C   0  0  0  0  0  0  0  2  0  0  0  0
   -1.4289   -0.2062    0.0000 C   0  0  0  0  0  0  0  2  0  0  0  0
   -0.7145   -0.6187    0.0000 C   0  0  0  0  0  0  0  2  0  0  0  0
   -0.0000   -0.2062    0.0000 C   0  0  0  0  0  0  0  2  0  0  0  0
    0.7145   -0.6187    0.0000 C   0  0  0  0  0  0  0  2  0  0  0  0
    1.4289   -0.2062    0.0000 C   0  0  0  0  0  0  0  2  0  0  0  0
    2.1434   -0.6187    0.0000 C   0  0  0  0  0  0  0  2  0  0  0  0
    2.8579   -0.2062    0.0000 C   0  0  0  0  0  0  0  2  0  0  0  0
    2.8579    0.6187    0.0000 O   0  0  0  0  0  0  0  2  0  0  0  0
    3.5724   -0.6187    0.0000 O   0  0  0  0  0  0  0  2  0  0  0  0
  1  2  1  0        0
  2  3  1  0        0
  3  4  1  0        0
  4  5  1  0        0
  5  6  1  0        0
  6  7  1  0        0
  7  8  1  0        0
  8  9  1  0        0
  9 10  1  0        0
 10 11  2  0        0
 10 12  1  0        0
M  END
$$$$

CDXL12

 18 18  0  0  0  0  0  0  0  0999 V2000
    0.3572    0.3572    0.0000 O   0  0  0  0  0  0  0  2  0  0  0  0
    0.3572   -0.4678    0.0000 C   0  0  0  0  0  0  0  2  0  0  0  0
    1.0717   -0.8803    0.0000 N   0  0  0  0  0  0  0  2  0  0  0  0
    1.7862   -0.4678    0.0000 C   0  0  0  0  0  0  0  2  0  0  0  0
    2.5006   -0.8803    0.0000 C   0  0  0  0  0  0  0  2  0  0  0  0
    3.2151   -0.4678    0.0000 C   0  0  0  0  0  0  0  2  0  0  0  0
    3.9296   -0.8803    0.0000 C   0  0  0  0  0  0  0  2  0  0  0  0
   -0.3572   -0.8803    0.0000 N   0  0  0  0  0  0  0  2  0  0  0  0
   -1.0717   -0.4678    0.0000 S   0  0  0  0  0  0  0  2  0  0  0  0
   -1.4842   -1.1822    0.0000 O   0  0  0  0  0  0  0  2  0  0  0  0
   -0.6592    0.2467    0.0000 O   0  0  0  0  0  0  0  2  0  0  0  0
   -1.7862   -0.0553    0.0000 C   0  0  0  0  0  0  0  2  0  0  0  0
   -1.7862    0.7697    0.0000 C   0  0  0  0  0  0  0  2  0  0  0  0
   -2.5006    1.1822    0.0000 C   0  0  0  0  0  0  0  2  0  0  0  0
   -3.2151    0.7697    0.0000 C   0  0  0  0  0  0  0  2  0  0  0  0
   -3.9296    1.1822    0.0000 N   0  0  0  0  0  0  0  2  0  0  0  0
   -3.2151   -0.0553    0.0000 C   0  0  0  0  0  0  0  2  0  0  0  0
   -2.5006   -0.4678    0.0000 C   0  0  0  0  0  0  0  2  0  0  0  0
  1  2  2  0        0
  2  3  1  0        0
  3  4  1  0        0
  4  5  1  0        0
  5  6  1  0        0
  6  7  1  0        0
  2  8  1  0        0
  8  9  1  0        0
  9 10  2  0        0
  9 11  2  0        0
  9 12  1  0        0
 12 13  4  0        0
 13 14  4  0        0
 14 15  4  0        0
 15 16  1  0        0
 15 17  4  0        0
 17 18  4  0        0
 12 18  4  0        0
M  END
$$$$

CDXL12

  9  9  0  0  0  0  0  0  0  0999 V2000
    0.7145    0.8250    0.0000 F   0  0  0  0  0  0  0  2  0  0  0  0
    0.0000    0.4125    0.0000 C   0  0  0  0  0  0  0  2  0  0  0  0
    0.0000   -0.4125    0.0000 C   0  0  0  0  0  0  0  2  0  0  0  0
   -0.7145   -0.8250    0.0000 C   0  0  0  0  0  0  0  2  0  0  0  0
   -1.4289   -0.4125    0.0000 C   0  0  0  0  0  0  0  2  0  0  0  0
   -1.4289    0.4125    0.0000 C   0  0  0  0  0  0  0  2  0  0  0  0
   -0.7145    0.8250    0.0000 C   0  0  0  0  0  0  0  2  0  0  0  0
    0.7145   -0.8250    0.0000 C   0  0  0  0  0  0  0  2  0  0  0  0
    1.4289   -0.4125    0.0000 Cl  0  0  0  0  0  0  0  2  0  0  0  0
  1  2  1  0        0
  2  3  4  0        0
  3  4  4  0        0
  4  5  4  0        0
  5  6  4  0        0
  6  7  4  0        0
  2  7  4  0        0
  3  8  1  0        0
  8  9  1  0        0
M  END
$$$$

CDXL12

  8  8  0  0  0  0  0  0  0  0999 V2000
    1.0717    0.8250    0.0000 F   0  0  0  0  0  0  0  2  0  0  0  0
    0.3572    0.4125    0.0000 C   0  0  0  0  0  0  0  2  0  0  0  0
    0.3572   -0.4125    0.0000 C   0  0  0  0  0  0  0  2  0  0  0  0
   -0.3572   -0.8250    0.0000 C   0  0  0  0  0  0  0  2  0  0  0  0
   -1.0717   -0.4125    0.0000 C   0  0  0  0  0  0  0  2  0  0  0  0
   -1.0717    0.4125    0.0000 C   0  0  0  0  0  0  0  2  0  0  0  0
   -0.3572    0.8250    0.0000 C   0  0  0  0  0  0  0  2  0  0  0  0
    1.0717   -0.8250    0.0000 Cl  0  0  0  0  0  0  0  2  0  0  0  0
  1  2  1  0        0
  2  3  4  0        0
  3  4  4  0        0
  4  5  4  0        0
  5  6  4  0        0
  6  7  4  0        0
  2  7  4  0        0
  3  8  1  0        0
M  END
$$$$

CDXL12

 11 11  0  0  0  0  0  0  0  0999 V2000
   -2.1434   -0.8250    0.0000 C   0  0  0  0  0  0  0  2  0  0  0  0
   -1.4289   -0.4125    0.0000 C   0  0  0  0  0  0  0  2  0  0  0  0
   -1.4289    0.4125    0.0000 O   0  0  0  0  0  0  0  2  0  0  0  0
   -0.7145   -0.8250    0.0000 N   0  0  0  0  0  0  0  2  0  0  0  0
    0.0000   -0.4125    0.0000 C   0  0  0  0  0  0  0  2  0  0  0  0
    0.0000    0.4125    0.0000 C   0  0  0  0  0  0  0  2  0  0  0  0
    0.7145    0.8250    0.0000 C   0  0  0  0  0  0  0  2  0  0  0  0
    1.4289    0.4125    0.0000 C   0  0  0  0  0  0  0  2  0  0  0  0
    2.1434    0.8250    0.0000 F   0  0  0  0  0  0  0  2  0  0  0  0
    1.4289   -0.4125    0.0000 C   0  0  0  0  0  0  0  2  0  0  0  0
    0.7145   -0.8250    0.0000 C   0  0  0  0  0  0  0  2  0  0  0  0
  1  2  1  0        0
  2  3  2  0        0
  2  4  1  0        0
  4  5  1  0        0
  5  6  4  0        0
  6  7  4  0        0
  7  8  4  0        0
  8  9  1  0        0
  8 10  4  0        0
 10 11  4  0        0
  5 11  4  0        0
M  END
$$$$

CDXL12

  9  9  0  0  0  0  0  0  0  0999 V2000
   -1.7862    0.8250    0.0000 F   0  0  0  0  0  0  0  2  0  0  0  0
   -1.0717    0.4125    0.0000 C   0  0  0  0  0  0  0  2  0  0  0  0
   -0.3572    0.8250    0.0000 C   0  0  0  0  0  0  0  2  0  0  0  0
    0.3572    0.4125    0.0000 C   0  0  0  0  0  0  0  2  0  0  0  0
    0.3572   -0.4125    0.0000 C   0  0  0  0  0  0  0  2  0  0  0  0
   -0.3572   -0.8250    0.0000 C   0  0  0  0  0  0  0  2  0  0  0  0
   -1.0717   -0.4125    0.0000 C   0  0  0  0  0  0  0  2  0  0  0  0
    1.0717   -0.8250    0.0000 C   0  0  0  0  0  0  0  2  0  0  0  0
    1.7862   -0.4125    0.0000 Cl  0  0  0  0  0  0  0  2  0  0  0  0
  1  2  1  0        0
  2  3  4  0        0
  3  4  4  0        0
  4  5  4  0        0
  5  6  4  0        0
  6  7  4  0        0
  2  7  4  0        0
  5  8  1  0        0
  8  9  1  0        0
M  END
$$$$

CDXL12

  8  8  0  0  0  0  0  0  0  0999 V2000
    1.4289    0.8250    0.0000 F   0  0  0  0  0  0  0  2  0  0  0  0
    0.7145    0.4125    0.0000 C   0  0  0  0  0  0  0  2  0  0  0  0
    0.7145   -0.4125    0.0000 C   0  0  0  0  0  0  0  2  0  0  0  0
    0.0000   -0.8250    0.0000 C   0  0  0  0  0  0  0  2  0  0  0  0
   -0.7145   -0.4125    0.0000 C   0  0  0  0  0  0  0  2  0  0  0  0
   -0.7145    0.4125    0.0000 C   0  0  0  0  0  0  0  2  0  0  0  0
    0.0000    0.8250    0.0000 C   0  0  0  0  0  0  0  2  0  0  0  0
   -1.4289   -0.8250    0.0000 I   0  0  0  0  0  0  0  2  0  0  0  0
  1  2  1  0        0
  2  3  4  0        0
  3  4  4  0        0
  4  5  4  0        0
  5  6  4  0        0
  6  7  4  0        0
  2  7  4  0        0
  5  8  1  0        0
M  END
$$$$

CDXL12

  3  2  0  0  0  0  0  0  0  0999 V2000
    0.7145   -0.2062    0.0000 F   0  0  0  0  0  0  0  2  0  0  0  0
    0.0000    0.2062    0.0000 C   0  0  0  0  0  0  0  2  0  0  0  0
   -0.7145   -0.2062    0.0000 C   0  0  0  0  0  0  0  2  0  0  0  0
  1  2  1  0        0
  2  3  1  0        0
M  END
$$$$

CDXL12

 12 13  0  0  0  0  0  0  0  0999 V2000
   -1.0717    0.2062    0.0000 N   0  0  0  0  0  0  0  2  0  0  0  0
   -0.3572   -0.2063    0.0000 C   0  0  0  0  0  0  0  2  0  0  0  0
   -0.3572   -1.0313    0.0000 C   0  0  0  0  0  0  0  2  0  0  0  0
   -1.0717   -1.4437    0.0000 C   0  0  0  0  0  0  0  2  0  0  0  0
   -1.7862   -1.0313    0.0000 C   0  0  0  0  0  0  0  2  0  0  0  0
   -1.7862   -0.2063    0.0000 C   0  0  0  0  0  0  0  2  0  0  0  0
    0.3572    0.2062    0.0000 C   0  0  0  0  0  0  0  2  0  0  0  0
    0.3572    1.0312    0.0000 N   0  0  0  0  0  0  0  2  0  0  0  0
    1.0717    1.4437    0.0000 C   0  0  0  0  0  0  0  2  0  0  0  0
    1.7862    1.0312    0.0000 C   0  0  0  0  0  0  0  2  0  0  0  0
    1.7862    0.2062    0.0000 C   0  0  0  0  0  0  0  2  0  0  0  0
    1.0717   -0.2063    0.0000 C   0  0  0  0  0  0  0  2  0  0  0  0
  1  2  4  0        0
  2  3  4  0        0
  3  4  4  0        0
  4  5  4  0        0
  5  6  4  0        0
  1  6  4  0        0
  2  7  1  0        0
  7  8  4  0        0
  8  9  4  0        0
  9 10  4  0        0
 10 11  4  0        0
 11 12  4  0        0
  7 12  4  0        0
M  END
$$$$

CDXL12

  8  7  0  0  0  0  0  0  0  0999 V2000
    0.8250    0.7145    0.0000 F   0  0  0  0  0  0  0  2  0  0  0  0
    0.4125   -0.0000    0.0000 C   0  0  0  0  0  0  0  2  0  0  0  0
    0.8250   -0.7145    0.0000 F   0  0  0  0  0  0  0  2  0  0  0  0
    1.2375   -0.0000    0.0000 F   0  0  0  0  0  0  0  2  0  0  0  0
   -0.4125   -0.0000    0.0000 C   0  0  0  0  0  0  0  2  0  0  0  0
   -0.8250   -0.7145    0.0000 F   0  0  0  0  0  0  0  2  0  0  0  0
   -0.8250    0.7145    0.0000 Cl  0  0  0  0  0  0  0  2  0  0  0  0
   -1.2375   -0.0000    0.0000 Cl  0  0  0  0  0  0  0  2  0  0  0  0
  1  2  1  0        0
  2  3  1  0        0
  2  4  1  0        0
  2  5  1  0        0
  5  6  1  0        0
  5  7  1  0        0
  5  8  1  0        0
M  END
$$$$

CDXL12

  3  2  0  0  0  0  0  0  0  0999 V2000
   -0.8250    0.0000    0.0000 N   0  0  0  0  0  0  0  2  0  0  0  0
    0.0000    0.0000    0.0000 C   0  0  0  0  0  0  0  2  0  0  0  0
    0.8250    0.0000    0.0000 N   0  0  0  0  0  0  0  2  0  0  0  0
  1  2  3  0        0
  2  3  1  0        0
M  END
$$$$

CDXL12

 27 30  0  0  0  0  0  0  0  0999 V2000
   -0.3767   -2.4570    0.0000 C   0  0  0  0  0  0  0  2  0  0  0  0
   -0.3767   -1.6320    0.0000 C   0  0  0  0  0  0  0  2  0  0  0  0
    0.3378   -1.2195    0.0000 C   0  0  0  0  0  0  0  2  0  0  0  0
    0.3378   -0.3945    0.0000 C   0  0  0  0  0  0  0  2  0  0  0  0
    1.0522    0.0180    0.0000 C   0  0  0  0  0  0  0  2  0  0  0  0
    1.8369   -0.2369    0.0000 C   0  0  0  0  0  0  0  2  0  0  0  0
    2.3218    0.4305    0.0000 C   0  0  0  0  0  0  0  2  0  0  0  0
    1.8369    1.0980    0.0000 C   0  0  0  0  0  0  0  2  0  0  0  0
    1.6653    1.9049    0.0000 O   0  0  0  0  0  0  0  2  0  0  0  0
    2.4500    1.6500    0.0000 C   0  0  0  0  0  0  0  2  0  0  0  0
    2.2784    2.4570    0.0000 O   0  0  0  0  0  0  0  2  0  0  0  0
    3.2346    1.3951    0.0000 C   0  0  0  0  0  0  0  2  0  0  0  0
    1.0522    0.8430    0.0000 C   0  0  0  0  0  0  0  2  0  0  0  0
    1.1385    1.6635    0.0000 C   0  0  0  0  0  0  0  2  0  0  0  0
    0.3378    1.2555    0.0000 C   0  0  0  0  0  0  0  2  0  0  0  0
   -0.3767    0.8430    0.0000 C   0  0  0  0  0  0  0  2  0  0  0  0
   -1.0912    1.2555    0.0000 O   0  0  0  0  0  0  0  2  0  0  0  0
   -0.3767    0.0180    0.0000 C   0  0  0  0  0  0  0  2  0  0  0  0
   -0.3767   -0.8070    0.0000 F   0  0  0  0  0  0  0  2  0  0  0  0
   -1.0912   -0.3945    0.0000 C   0  0  0  0  0  0  0  2  0  0  0  0
   -1.0912    0.4305    0.0000 C   0  0  0  0  0  0  0  2  0  0  0  0
   -1.8056    0.0180    0.0000 C   0  0  0  0  0  0  0  2  0  0  0  0
   -2.5201   -0.3945    0.0000 C   0  0  0  0  0  0  0  2  0  0  0  0
   -2.5201   -1.2195    0.0000 C   0  0  0  0  0  0  0  2  0  0  0  0
   -3.2346   -1.6320    0.0000 O   0  0  0  0  0  0  0  2  0  0  0  0
   -1.8056   -1.6320    0.0000 C   0  0  0  0  0  0  0  2  0  0  0  0
   -1.0912   -1.2195    0.0000 C   0  0  0  0  0  0  0  2  0  0  0  0
  1  2  1  0        0
  2  3  1  0        0
  3  4  1  0        0
  4  5  1  0        0
  5  6  1  0        0
  6  7  1  0        0
  7  8  1  0        0
  8  9  1  0        0
  8 10  1  0        0
 10 11  2  0        0
 10 12  1  0        0
  8 13  1  0        0
  5 13  1  0        0
 13 14  1  0        0
 13 15  1  0        0
 15 16  1  0        0
 16 17  1  0        0
 16 18  1  0        0
  4 18  1  0        0
 18 19  1  0        0
 18 20  1  0        0
 20 21  1  0        0
 20 22  1  0        0
 22 23  2  0        0
 23 24  1  0        0
 24 25  2  0        0
 24 26  1  0        0
 26 27  2  0        0
  2 27  1  0        0
 20 27  1  0        0
M  END
$$$$

CDXL12

  6  5  0  0  0  0  0  0  0  0999 V2000
   -0.3572   -1.0313    0.0000 O   0  0  0  0  0  0  0  2  0  0  0  0
   -0.3572   -0.2062    0.0000 C   0  0  0  0  0  0  0  2  0  0  0  0
    0.3572    0.2062    0.0000 C   0  0  0  0  0  0  0  2  0  0  0  0
    0.3572    1.0313    0.0000 O   0  0  0  0  0  0  0  2  0  0  0  0
    1.0717   -0.2062    0.0000 C   0  0  0  0  0  0  0  2  0  0  0  0
   -1.0717    0.2062    0.0000 C   0  0  0  0  0  0  0  2  0  0  0  0
  1  2  2  0        0
  2  3  1  0        0
  3  4  2  0        0
  3  5  1  0        0
  2  6  1  0        0
M  END
$$$$

CDXL12

 20 22  0  0  0  0  0  0  0  0999 V2000
    2.0536    2.1926    0.0000 O   0  0  0  0  0  0  0  2  0  0  0  0
    1.5392    1.5476    0.0000 C   0  0  0  0  0  0  0  2  0  0  0  0
    0.7349    1.7312    0.0000 N   0  0  0  0  0  0  0  2  0  0  0  0
    0.0899    1.2168    0.0000 C   0  0  0  0  0  0  0  2  0  0  0  0
    0.0899    0.3918    0.0000 C   0  0  0  0  0  0  0  2  0  0  0  0
   -0.6246   -0.0207    0.0000 C   0  0  0  0  0  0  0  2  0  0  0  0
   -1.3391    0.3918    0.0000 C   0  0  0  0  0  0  0  2  0  0  0  0
   -1.3391    1.2168    0.0000 C   0  0  0  0  0  0  0  2  0  0  0  0
   -0.6246    1.6293    0.0000 C   0  0  0  0  0  0  0  2  0  0  0  0
   -2.0536   -0.0207    0.0000 Cl  0  0  0  0  0  0  0  2  0  0  0  0
    0.7349   -0.1226    0.0000 C   0  0  0  0  0  0  0  2  0  0  0  0
    1.5392    0.0610    0.0000 N   0  0  0  0  0  0  0  2  0  0  0  0
    1.8971    0.8043    0.0000 C   0  0  0  0  0  0  0  2  0  0  0  0
    0.5513   -0.9269    0.0000 C   0  0  0  0  0  0  0  2  0  0  0  0
    1.1561   -1.4880    0.0000 C   0  0  0  0  0  0  0  2  0  0  0  0
    0.9725   -2.2923    0.0000 C   0  0  0  0  0  0  0  2  0  0  0  0
    0.1841   -2.5355    0.0000 C   0  0  0  0  0  0  0  2  0  0  0  0
   -0.4206   -1.9744    0.0000 C   0  0  0  0  0  0  0  2  0  0  0  0
   -0.2371   -1.1701    0.0000 C   0  0  0  0  0  0  0  2  0  0  0  0
    0.5513    2.5355    0.0000 C   0  0  0  0  0  0  0  2  0  0  0  0
  1  2  2  0        0
  2  3  1  0        0
  3  4  1  0        0
  4  5  4  0        0
  5  6  4  0        0
  6  7  4  0        0
  7  8  4  0        0
  8  9  4  0        0
  4  9  4  0        0
  7 10  1  0        0
  5 11  1  0        0
 11 12  2  0        0
 12 13  1  0        0
  2 13  1  0        0
 11 14  1  0        0
 14 15  4  0        0
 15 16  4  0        0
 16 17  4  0        0
 17 18  4  0        0
 18 19  4  0        0
 14 19  4  0        0
  3 20  1  0        0
M  END
$$$$

CDXL12

 12 12  0  0  0  0  0  0  0  0999 V2000
   -1.3441   -1.6610    0.0000 C   0  0  0  0  0  0  0  2  0  0  0  0
   -1.1725   -0.8540    0.0000 C   0  0  0  0  0  0  0  2  0  0  0  0
   -1.7246   -0.2409    0.0000 N   0  0  0  0  0  0  0  2  0  0  0  0
   -1.3121    0.4735    0.0000 C   0  0  0  0  0  0  0  2  0  0  0  0
   -0.5051    0.3020    0.0000 C   0  0  0  0  0  0  0  2  0  0  0  0
    0.1080    0.8540    0.0000 N   0  0  0  0  0  0  0  2  0  0  0  0
   -0.0635    1.6610    0.0000 O   0  0  0  0  0  0  0  2  0  0  0  0
    0.8926    0.5991    0.0000 O   0  0  0  0  0  0  0  2  0  0  0  0
   -0.4189   -0.5185    0.0000 N   0  0  0  0  0  0  0  2  0  0  0  0
    0.2956   -0.9310    0.0000 C   0  0  0  0  0  0  0  2  0  0  0  0
    1.0101   -0.5185    0.0000 C   0  0  0  0  0  0  0  2  0  0  0  0
    1.7246   -0.9310    0.0000 O   0  0  0  0  0  0  0  2  0  0  0  0
  1  2  1  0        0
  2  3  4  0        0
  3  4  4  0        0
  4  5  4  0        0
  5  6  1  0        0
  6  7  2  0        0
  6  8  2  0        0
  5  9  4  0        0
  2  9  4  0        0
  9 10  1  0        0
 10 11  1  0        0
 11 12  1  0        0
M  END
$$$$

CDXL12

 10 10  0  0  0  0  0  0  0  0999 V2000
    0.7145    1.2375    0.0000 O   0  0  0  0  0  0  0  2  0  0  0  0
    0.7145    0.4125    0.0000 C   0  0  0  0  0  0  0  2  0  0  0  0
    1.4289   -0.0000    0.0000 O   0  0  0  0  0  0  0  2  0  0  0  0
    0.0000   -0.0000    0.0000 C   0  0  0  0  0  0  0  2  0  0  0  0
    0.0000   -0.8250    0.0000 C   0  0  0  0  0  0  0  2  0  0  0  0
    0.7145   -1.2375    0.0000 F   0  0  0  0  0  0  0  2  0  0  0  0
   -0.7145   -1.2375    0.0000 C   0  0  0  0  0  0  0  2  0  0  0  0
   -1.4289   -0.8250    0.0000 C   0  0  0  0  0  0  0  2  0  0  0  0
   -1.4289    0.0000    0.0000 C   0  0  0  0  0  0  0  2  0  0  0  0
   -0.7145    0.4125    0.0000 C   0  0  0  0  0  0  0  2  0  0  0  0
  1  2  2  0        0
  2  3  1  0        0
  2  4  1  0        0
  4  5  4  0        0
  5  6  1  0        0
  5  7  4  0        0
  7  8  4  0        0
  8  9  4  0        0
  9 10  4  0        0
  4 10  4  0        0
M  END
$$$$

CDXL12

 16 17  0  0  0  0  0  0  0  0999 V2000
   -3.2459    0.8250    0.0000 C   0  0  0  0  0  0  0  2  0  0  0  0
   -2.5315    0.4125    0.0000 C   0  0  0  0  0  0  0  2  0  0  0  0
   -1.8170    0.8250    0.0000 O   0  0  0  0  0  0  0  2  0  0  0  0
   -1.1025    0.4125    0.0000 C   0  0  0  0  0  0  0  2  0  0  0  0
   -1.1025   -0.4125    0.0000 C   0  0  0  0  0  0  0  2  0  0  0  0
   -0.3881   -0.8250    0.0000 C   0  0  0  0  0  0  0  2  0  0  0  0
    0.3264   -0.4125    0.0000 C   0  0  0  0  0  0  0  2  0  0  0  0
    1.1110   -0.6674    0.0000 N   0  0  0  0  0  0  0  2  0  0  0  0
    1.5959   -0.0000    0.0000 C   0  0  0  0  0  0  0  2  0  0  0  0
    1.1110    0.6674    0.0000 S   0  0  0  0  0  0  0  2  0  0  0  0
    0.3264    0.4125    0.0000 C   0  0  0  0  0  0  0  2  0  0  0  0
   -0.3881    0.8250    0.0000 C   0  0  0  0  0  0  0  2  0  0  0  0
    2.4209   -0.0000    0.0000 S   0  0  0  0  0  0  0  2  0  0  0  0
    3.2459   -0.0000    0.0000 N   0  0  0  0  0  0  0  2  0  0  0  0
    2.4209   -0.8250    0.0000 O   0  0  0  0  0  0  0  2  0  0  0  0
    2.4209    0.8250    0.0000 O   0  0  0  0  0  0  0  2  0  0  0  0
  1  2  1  0        0
  2  3  1  0        0
  3  4  1  0        0
  4  5  4  0        0
  5  6  4  0        0
  6  7  4  0        0
  7  8  4  0        0
  8  9  4  0        0
  9 10  4  0        0
 10 11  4  0        0
  7 11  4  0        0
 11 12  4  0        0
  4 12  4  0        0
  9 13  1  0        0
 13 14  1  0        0
 13 15  2  0        0
 13 16  2  0        0
M  END
$$$$

CDXL12

 10 10  0  0  0  0  0  0  0  0999 V2000
    1.0717    1.2375    0.0000 O   0  0  0  0  0  0  0  2  0  0  0  0
    1.0717    0.4125    0.0000 C   0  0  0  0  0  0  0  2  0  0  0  0
    1.7862   -0.0000    0.0000 O   0  0  0  0  0  0  0  2  0  0  0  0
    0.3572   -0.0000    0.0000 C   0  0  0  0  0  0  0  2  0  0  0  0
    0.3572   -0.8250    0.0000 C   0  0  0  0  0  0  0  2  0  0  0  0
   -0.3572   -1.2375    0.0000 C   0  0  0  0  0  0  0  2  0  0  0  0
   -1.0717   -0.8250    0.0000 C   0  0  0  0  0  0  0  2  0  0  0  0
   -1.0717    0.0000    0.0000 C   0  0  0  0  0  0  0  2  0  0  0  0
   -1.7862    0.4125    0.0000 F   0  0  0  0  0  0  0  2  0  0  0  0
   -0.3572    0.4125    0.0000 C   0  0  0  0  0  0  0  2  0  0  0  0
  1  2  2  0        0
  2  3  1  0        0
  2  4  1  0        0
  4  5  4  0        0
  5  6  4  0        0
  6  7  4  0        0
  7  8  4  0        0
  8  9  1  0        0
  8 10  4  0        0
  4 10  4  0        0
M  END
$$$$

CDXL12

 10 10  0  0  0  0  0  0  0  0999 V2000
    1.0717    1.2375    0.0000 O   0  0  0  0  0  0  0  2  0  0  0  0
    1.0717    0.4125    0.0000 C   0  0  0  0  0  0  0  2  0  0  0  0
    1.7862   -0.0000    0.0000 O   0  0  0  0  0  0  0  2  0  0  0  0
    0.3572   -0.0000    0.0000 C   0  0  0  0  0  0  0  2  0  0  0  0
   -0.3572    0.4125    0.0000 C   0  0  0  0  0  0  0  2  0  0  0  0
   -1.0717   -0.0000    0.0000 C   0  0  0  0  0  0  0  2  0  0  0  0
   -1.0717   -0.8250    0.0000 C   0  0  0  0  0  0  0  2  0  0  0  0
   -1.7862   -1.2375    0.0000 F   0  0  0  0  0  0  0  2  0  0  0  0
   -0.3572   -1.2375    0.0000 C   0  0  0  0  0  0  0  2  0  0  0  0
    0.3572   -0.8250    0.0000 C   0  0  0  0  0  0  0  2  0  0  0  0
  1  2  2  0        0
  2  3  1  0        0
  2  4  1  0        0
  4  5  4  0        0
  5  6  4  0        0
  6  7  4  0        0
  7  8  1  0        0
  7  9  4  0        0
  9 10  4  0        0
  4 10  4  0        0
M  END
$$$$

CDXL12

  9  9  0  0  0  0  0  0  0  0999 V2000
    1.7862   -0.8250    0.0000 C   0  0  0  0  0  0  0  2  0  0  0  0
    1.0717   -0.4125    0.0000 C   0  0  0  0  0  0  0  2  0  0  0  0
    0.3572   -0.8250    0.0000 C   0  0  0  0  0  0  0  2  0  0  0  0
   -0.3572   -0.4125    0.0000 C   0  0  0  0  0  0  0  2  0  0  0  0
   -1.0717   -0.8250    0.0000 C   0  0  0  0  0  0  0  2  0  0  0  0
   -1.7862   -0.4125    0.0000 C   0  0  0  0  0  0  0  2  0  0  0  0
   -1.7862    0.4125    0.0000 C   0  0  0  0  0  0  0  2  0  0  0  0
   -1.0717    0.8250    0.0000 C   0  0  0  0  0  0  0  2  0  0  0  0
   -0.3572    0.4125    0.0000 N   0  0  0  0  0  0  0  2  0  0  0  0
  1  2  1  0        0
  2  3  1  0        0
  3  4  1  0        0
  4  5  1  0        0
  5  6  1  0        0
  6  7  1  0        0
  7  8  1  0        0
  8  9  1  0        0
  4  9  1  0        0
M  END
$$$$

CDXL12

  6  5  0  0  0  0  0  0  0  0999 V2000
    0.7145    0.6187    0.0000 N   0  0  0  0  0  0  0  2  0  0  0  0
    0.7145   -0.2062    0.0000 C   0  0  0  0  0  0  0  2  0  0  0  0
    0.0000   -0.6187    0.0000 N   0  0  0  0  0  0  0  2  0  0  0  0
   -0.7145   -0.2062    0.0000 C   0  0  0  0  0  0  0  2  0  0  0  0
   -1.4289    0.2063    0.0000 N   0  0  0  0  0  0  0  2  0  0  0  0
    1.4289   -0.6187    0.0000 N   0  0  0  0  0  0  0  2  0  0  0  0
  1  2  1  0        0
  2  3  2  0        0
  3  4  1  0        0
  4  5  3  0        0
  2  6  1  0        0
M  END
$$$$

CDXL12

  8  8  0  0  0  0  0  0  0  0999 V2000
   -0.7145   -0.4125    0.0000 N   0  0  0  0  0  0  0  2  0  0  0  0
   -0.7145    0.4125    0.0000 C   0  0  0  0  0  0  0  2  0  0  0  0
   -1.4289    0.8250    0.0000 O   0  0  0  0  0  0  0  2  0  0  0  0
    0.0000    0.8250    0.0000 N   0  0  0  0  0  0  0  2  0  0  0  0
    0.7145    0.4125    0.0000 C   0  0  0  0  0  0  0  2  0  0  0  0
    1.4289    0.8250    0.0000 O   0  0  0  0  0  0  0  2  0  0  0  0
    0.7145   -0.4125    0.0000 C   0  0  0  0  0  0  0  2  0  0  0  0
    0.0000   -0.8250    0.0000 N   0  0  0  0  0  0  0  2  0  0  0  0
  1  2  4  0        0
  2  3  1  0        0
  2  4  4  0        0
  4  5  4  0        0
  5  6  1  0        0
  5  7  4  0        0
  7  8  4  0        0
  1  8  4  0        0
M  END
$$$$

CDXL12

  9  9  0  0  0  0  0  0  0  0999 V2000
    0.7145   -0.0000    0.0000 N   0  0  0  0  0  0  0  2  0  0  0  0
    0.0000   -0.4125    0.0000 C   0  0  0  0  0  0  0  2  0  0  0  0
    0.0000   -1.2375    0.0000 C   0  0  0  0  0  0  0  2  0  0  0  0
   -0.7145   -0.0000    0.0000 N   0  0  0  0  0  0  0  2  0  0  0  0
   -0.7145    0.8250    0.0000 C   0  0  0  0  0  0  0  2  0  0  0  0
   -1.4289    1.2375    0.0000 N   0  0  0  0  0  0  0  2  0  0  0  0
    0.0000    1.2375    0.0000 C   0  0  0  0  0  0  0  2  0  0  0  0
    0.7145    0.8250    0.0000 C   0  0  0  0  0  0  0  2  0  0  0  0
    1.4289    1.2375    0.0000 C   0  0  0  0  0  0  0  2  0  0  0  0
  1  2  4  0        0
  2  3  1  0        0
  2  4  4  0        0
  4  5  4  0        0
  5  6  1  0        0
  5  7  4  0        0
  7  8  4  0        0
  1  8  4  0        0
  8  9  1  0        0
M  END
$$$$

CDXL12

  7  7  0  0  0  0  0  0  0  0999 V2000
    1.0717    0.8250    0.0000 F   0  0  0  0  0  0  0  2  0  0  0  0
    0.3572    0.4125    0.0000 C   0  0  0  0  0  0  0  2  0  0  0  0
    0.3572   -0.4125    0.0000 C   0  0  0  0  0  0  0  2  0  0  0  0
   -0.3572   -0.8250    0.0000 C   0  0  0  0  0  0  0  2  0  0  0  0
   -1.0717   -0.4125    0.0000 C   0  0  0  0  0  0  0  2  0  0  0  0
   -1.0717    0.4125    0.0000 C   0  0  0  0  0  0  0  2  0  0  0  0
   -0.3572    0.8250    0.0000 C   0  0  0  0  0  0  0  2  0  0  0  0
  1  2  1  0        0
  2  3  4  0        0
  3  4  4  0        0
  4  5  4  0        0
  5  6  4  0        0
  6  7  4  0        0
  2  7  4  0        0
M  END
$$$$

CDXL12

  7  6  0  0  0  0  0  0  0  0999 V2000
   -0.7145   -0.2062    0.0000 O   0  0  0  0  0  0  0  2  0  0  0  0
   -1.4289    0.2062    0.0000 C   0  0  0  0  0  0  0  2  0  0  0  0
   -2.1434   -0.2062    0.0000 C   0  0  0  0  0  0  0  2  0  0  0  0
    0.0000    0.2062    0.0000 C   0  0  0  0  0  0  0  2  0  0  0  0
    0.7145   -0.2062    0.0000 O   0  0  0  0  0  0  0  2  0  0  0  0
    1.4289    0.2062    0.0000 C   0  0  0  0  0  0  0  2  0  0  0  0
    2.1434   -0.2062    0.0000 C   0  0  0  0  0  0  0  2  0  0  0  0
  1  2  1  0        0
  2  3  1  0        0
  1  4  1  0        0
  4  5  1  0        0
  5  6  1  0        0
  6  7  1  0        0
M  END
$$$$

CDXL12

  5  4  0  0  0  0  0  0  0  0999 V2000
    0.0000   -0.0000    0.0000 C   0  0  0  0  0  0  0  2  0  0  0  0
    0.0000    0.8250    0.0000 C   0  0  0  0  0  0  0  2  0  0  0  0
    0.8250   -0.0000    0.0000 C   0  0  0  0  0  0  0  2  0  0  0  0
    0.0000   -0.8250    0.0000 C   0  0  0  0  0  0  0  2  0  0  0  0
   -0.8250   -0.0000    0.0000 C   0  0  0  0  0  0  0  2  0  0  0  0
  1  2  1  0        0
  1  3  1  0        0
  1  4  1  0        0
  1  5  1  0        0
M  END
$$$$

CDXL12

  7  6  0  0  0  0  0  0  0  0999 V2000
    0.3572    1.0313    0.0000 O   0  0  0  0  0  0  0  2  0  0  0  0
    0.3572    0.2062    0.0000 C   0  0  0  0  0  0  0  2  0  0  0  0
   -0.3572   -0.2062    0.0000 C   0  0  0  0  0  0  0  2  0  0  0  0
   -0.3572   -1.0313    0.0000 C   0  0  0  0  0  0  0  2  0  0  0  0
   -1.0717   -0.6187    0.0000 C   0  0  0  0  0  0  0  2  0  0  0  0
   -1.0717    0.2062    0.0000 C   0  0  0  0  0  0  0  2  0  0  0  0
    1.0717   -0.2062    0.0000 C   0  0  0  0  0  0  0  2  0  0  0  0
  1  2  1  0        0
  2  3  1  0        0
  3  4  1  0        0
  3  5  1  0        0
  3  6  1  0        0
  2  7  1  0        0
M  END
$$$$

CDXL12

 11 12  0  0  0  0  0  0  0  0999 V2000
    1.2400    0.4125    0.0000 O   0  0  0  0  0  0  0  2  0  0  0  0
    0.5255   -0.0000    0.0000 C   0  0  0  0  0  0  0  2  0  0  0  0
   -0.1890    0.4125    0.0000 C   0  0  0  0  0  0  0  2  0  0  0  0
   -0.5255   -0.4125    0.0000 C   0  0  0  0  0  0  0  2  0  0  0  0
   -0.1890   -1.2375    0.0000 C   0  0  0  0  0  0  0  2  0  0  0  0
   -0.9034   -0.8250    0.0000 C   0  0  0  0  0  0  0  2  0  0  0  0
   -0.9034   -0.0000    0.0000 C   0  0  0  0  0  0  0  2  0  0  0  0
    0.5255   -0.8250    0.0000 C   0  0  0  0  0  0  0  2  0  0  0  0
   -1.2400   -0.8250    0.0000 C   0  0  0  0  0  0  0  2  0  0  0  0
   -1.2400    0.0000    0.0000 C   0  0  0  0  0  0  0  2  0  0  0  0
   -0.1890    1.2375    0.0000 C   0  0  0  0  0  0  0  2  0  0  0  0
  1  2  1  0        0
  2  3  1  0        0
  3  4  1  0        0
  4  5  1  0        0
  5  6  1  0        0
  6  7  1  0        0
  3  7  1  0        0
  5  8  1  0        0
  2  8  1  0        0
  4  9  1  0        0
  4 10  1  0        0
  3 11  1  0        0
M  END
$$$$

CDXL12

 17 19  0  0  0  0  0  0  0  0999 V2000
   -2.0264   -0.6996    0.0000 C   0  0  0  0  0  0  0  2  0  0  0  0
   -1.7715   -1.4843    0.0000 C   0  0  0  0  0  0  0  2  0  0  0  0
   -0.9645   -1.6558    0.0000 C   0  0  0  0  0  0  0  2  0  0  0  0
   -0.4125   -1.0427    0.0000 C   0  0  0  0  0  0  0  2  0  0  0  0
    0.4125   -1.0427    0.0000 C   0  0  0  0  0  0  0  2  0  0  0  0
    0.9645   -1.6558    0.0000 C   0  0  0  0  0  0  0  2  0  0  0  0
    1.7715   -1.4843    0.0000 C   0  0  0  0  0  0  0  2  0  0  0  0
    2.0264   -0.6996    0.0000 C   0  0  0  0  0  0  0  2  0  0  0  0
    1.4744   -0.0865    0.0000 C   0  0  0  0  0  0  0  2  0  0  0  0
    0.6674   -0.2581    0.0000 C   0  0  0  0  0  0  0  2  0  0  0  0
    0.0000    0.2268    0.0000 C   0  0  0  0  0  0  0  2  0  0  0  0
    0.4125    0.9413    0.0000 O   0  0  0  0  0  0  0  2  0  0  0  0
   -0.4125    0.9413    0.0000 C   0  0  0  0  0  0  0  2  0  0  0  0
    0.0000    1.6558    0.0000 O   0  0  0  0  0  0  0  2  0  0  0  0
   -1.2375    0.9413    0.0000 O   0  0  0  0  0  0  0  2  0  0  0  0
   -0.6674   -0.2581    0.0000 C   0  0  0  0  0  0  0  2  0  0  0  0
   -1.4744   -0.0865    0.0000 C   0  0  0  0  0  0  0  2  0  0  0  0
  1  2  4  0        0
  2  3  4  0        0
  3  4  4  0        0
  4  5  1  0        0
  5  6  4  0        0
  6  7  4  0        0
  7  8  4  0        0
  8  9  4  0        0
  9 10  4  0        0
  5 10  4  0        0
 10 11  1  0        0
 11 12  1  0        0
 11 13  1  0        0
 13 14  2  0        0
 13 15  1  0        0
 11 16  1  0        0
  4 16  4  0        0
 16 17  4  0        0
  1 17  4  0        0
M  END
$$$$

CDXL12

  9  8  0  0  0  0  0  0  0  0999 V2000
   -2.1434   -0.4125    0.0000 Cl  0  0  0  0  0  0  0  2  0  0  0  0
   -1.4289   -0.0000    0.0000 C   0  0  0  0  0  0  0  2  0  0  0  0
   -0.7145   -0.4125    0.0000 C   0  0  0  0  0  0  0  2  0  0  0  0
    0.0000    0.0000    0.0000 S   0  0  0  0  0  0  0  2  0  0  0  0
    0.4125   -0.7145    0.0000 O   0  0  0  0  0  0  0  2  0  0  0  0
   -0.4125    0.7145    0.0000 O   0  0  0  0  0  0  0  2  0  0  0  0
    0.7145    0.4125    0.0000 C   0  0  0  0  0  0  0  2  0  0  0  0
    1.4289   -0.0000    0.0000 C   0  0  0  0  0  0  0  2  0  0  0  0
    2.1434    0.4125    0.0000 Cl  0  0  0  0  0  0  0  2  0  0  0  0
  1  2  1  0        0
  2  3  1  0        0
  3  4  1  0        0
  4  5  2  0        0
  4  6  2  0        0
  4  7  1  0        0
  7  8  1  0        0
  8  9  1  0        0
M  END
$$$$

CDXL12

  5  4  0  0  0  0  0  0  0  0999 V2000
    0.3572    0.6187    0.0000 N   0  0  0  0  0  0  0  2  0  0  0  0
    0.3572   -0.2062    0.0000 C   0  0  0  0  0  0  0  2  0  0  0  0
   -0.3572   -0.6187    0.0000 N   0  0  0  0  0  0  0  2  0  0  0  0
   -1.0717   -0.2062    0.0000 C   0  0  0  0  0  0  0  2  0  0  0  0
    1.0717   -0.6187    0.0000 N   0  0  0  0  0  0  0  2  0  0  0  0
  1  2  2  0        0
  2  3  1  0        0
  3  4  1  0        0
  2  5  1  0        0
M  END
$$$$

CDXL12

  6  5  0  0  0  0  0  0  0  0999 V2000
   -0.3572   -1.0313    0.0000 O   0  0  0  0  0  0  0  2  0  0  0  0
   -0.3572   -0.2062    0.0000 C   0  0  0  0  0  0  0  2  0  0  0  0
   -1.0717    0.2062    0.0000 N   0  0  0  0  0  0  0  2  0  0  0  0
    0.3572    0.2062    0.0000 C   0  0  0  0  0  0  0  2  0  0  0  0
    0.3572    1.0313    0.0000 O   0  0  0  0  0  0  0  2  0  0  0  0
    1.0717   -0.2062    0.0000 N   0  0  0  0  0  0  0  2  0  0  0  0
  1  2  2  0        0
  2  3  1  0        0
  2  4  1  0        0
  4  5  2  0        0
  4  6  1  0        0
M  END
$$$$

CDXL12

 28 31  0  0  0  0  0  0  0  0999 V2000
    0.8537    1.3784    0.0000 C   0  0  0  0  0  0  0  2  0  0  0  0
    1.4371    0.7950    0.0000 C   0  0  0  0  0  0  0  2  0  0  0  0
    2.2440    0.9665    0.0000 C   0  0  0  0  0  0  0  2  0  0  0  0
    2.4990    1.7511    0.0000 C   0  0  0  0  0  0  0  2  0  0  0  0
    3.3060    1.9227    0.0000 C   0  0  0  0  0  0  0  2  0  0  0  0
    3.8893    1.3393    0.0000 O   0  0  0  0  0  0  0  2  0  0  0  0
    3.5195    2.7196    0.0000 O   0  0  0  0  0  0  0  2  0  0  0  0
    1.1821    0.0104    0.0000 C   0  0  0  0  0  0  0  2  0  0  0  0
    1.6671   -0.6571    0.0000 C   0  0  0  0  0  0  0  2  0  0  0  0
    1.1821   -1.3245    0.0000 C   0  0  0  0  0  0  0  2  0  0  0  0
    0.3975   -1.0696    0.0000 C   0  0  0  0  0  0  0  2  0  0  0  0
   -0.3170   -1.4821    0.0000 C   0  0  0  0  0  0  0  2  0  0  0  0
   -0.3170   -2.3071    0.0000 C   0  0  0  0  0  0  0  2  0  0  0  0
    0.3975   -2.7196    0.0000 O   0  0  0  0  0  0  0  2  0  0  0  0
   -1.0314   -2.7196    0.0000 C   0  0  0  0  0  0  0  2  0  0  0  0
   -1.7459   -2.3071    0.0000 C   0  0  0  0  0  0  0  2  0  0  0  0
   -2.4604   -2.7196    0.0000 C   0  0  0  0  0  0  0  2  0  0  0  0
   -3.1748   -2.3071    0.0000 C   0  0  0  0  0  0  0  2  0  0  0  0
   -3.8893   -2.7196    0.0000 O   0  0  0  0  0  0  0  2  0  0  0  0
   -3.1748   -1.4821    0.0000 C   0  0  0  0  0  0  0  2  0  0  0  0
   -2.4604   -1.0696    0.0000 C   0  0  0  0  0  0  0  2  0  0  0  0
   -1.7459   -1.4821    0.0000 C   0  0  0  0  0  0  0  2  0  0  0  0
   -1.7459   -0.6571    0.0000 C   0  0  0  0  0  0  0  2  0  0  0  0
   -1.0314   -1.0696    0.0000 C   0  0  0  0  0  0  0  2  0  0  0  0
   -1.0314   -0.2446    0.0000 C   0  0  0  0  0  0  0  2  0  0  0  0
   -0.3170    0.1679    0.0000 C   0  0  0  0  0  0  0  2  0  0  0  0
    0.3975   -0.2446    0.0000 C   0  0  0  0  0  0  0  2  0  0  0  0
    0.4837    0.5759    0.0000 C   0  0  0  0  0  0  0  2  0  0  0  0
  1  2  1  0        0
  2  3  1  0        0
  3  4  1  0        0
  4  5  1  0        0
  5  6  1  0        0
  5  7  2  0        0
  2  8  1  0        0
  8  9  1  0        0
  9 10  1  0        0
 10 11  1  0        0
 11 12  1  0        0
 12 13  1  0        0
 13 14  1  0        0
 13 15  1  0        0
 15 16  1  0        0
 16 17  1  0        0
 17 18  1  0        0
 18 19  1  0        0
 18 20  1  0        0
 20 21  1  0        0
 21 22  1  0        0
 16 22  1  0        0
 22 23  1  0        0
 22 24  1  0        0
 12 24  1  0        0
 24 25  1  0        0
 25 26  1  0        0
 26 27  1  0        0
  8 27  1  0        0
 11 27  1  0        0
 27 28  1  0        0
M  END
$$$$

CDXL12

 20 24  0  0  0  0  0  0  0  0999 V2000
   -2.5006   -1.4151    0.0000 C   0  0  0  0  0  0  0  2  0  0  0  0
   -1.7862   -1.8276    0.0000 C   0  0  0  0  0  0  0  2  0  0  0  0
   -1.0717   -1.4151    0.0000 C   0  0  0  0  0  0  0  2  0  0  0  0
   -1.0717   -0.5901    0.0000 C   0  0  0  0  0  0  0  2  0  0  0  0
   -0.3572   -0.1776    0.0000 C   0  0  0  0  0  0  0  2  0  0  0  0
    0.3572   -0.5901    0.0000 C   0  0  0  0  0  0  0  2  0  0  0  0
    1.0717   -0.1776    0.0000 C   0  0  0  0  0  0  0  2  0  0  0  0
    1.7862   -0.5901    0.0000 C   0  0  0  0  0  0  0  2  0  0  0  0
    2.5006   -0.1776    0.0000 C   0  0  0  0  0  0  0  2  0  0  0  0
    2.5006    0.6474    0.0000 C   0  0  0  0  0  0  0  2  0  0  0  0
    1.7862    1.0599    0.0000 C   0  0  0  0  0  0  0  2  0  0  0  0
    1.4842    1.8276    0.0000 C   0  0  0  0  0  0  0  2  0  0  0  0
    0.6592    1.8276    0.0000 C   0  0  0  0  0  0  0  2  0  0  0  0
    0.3572    1.0599    0.0000 C   0  0  0  0  0  0  0  2  0  0  0  0
    1.0717    0.6474    0.0000 C   0  0  0  0  0  0  0  2  0  0  0  0
   -0.3572    0.6474    0.0000 C   0  0  0  0  0  0  0  2  0  0  0  0
   -1.0717    1.0599    0.0000 C   0  0  0  0  0  0  0  2  0  0  0  0
   -1.7862    0.6474    0.0000 C   0  0  0  0  0  0  0  2  0  0  0  0
   -1.7862   -0.1776    0.0000 C   0  0  0  0  0  0  0  2  0  0  0  0
   -2.5006   -0.5901    0.0000 C   0  0  0  0  0  0  0  2  0  0  0  0
  1  2  4  0        0
  2  3  4  0        0
  3  4  4  0        0
  4  5  4  0        0
  5  6  4  0        0
  6  7  4  0        0
  7  8  4  0        0
  8  9  4  0        0
  9 10  4  0        0
 10 11  4  0        0
 11 12  1  0        0
 12 13  1  0        0
 13 14  1  0        0
 14 15  4  0        0
  7 15  4  0        0
 11 15  4  0        0
 14 16  4  0        0
  5 16  4  0        0
 16 17  4  0        0
 17 18  4  0        0
 18 19  4  0        0
  4 19  4  0        0
 19 20  4  0        0
  1 20  4  0        0
M  END
$$$$

CDXL12

 12 13  0  0  0  0  0  0  0  0999 V2000
    0.0000   -0.8250    0.0000 C   0  0  0  0  0  0  0  2  0  0  0  0
    0.0000    0.0000    0.0000 C   0  0  0  0  0  0  0  2  0  0  0  0
    0.7145    0.4125    0.0000 C   0  0  0  0  0  0  0  2  0  0  0  0
    0.7145    1.2375    0.0000 N   0  0  0  0  0  0  0  2  0  0  0  0
    1.4289    0.0000    0.0000 C   0  0  0  0  0  0  0  2  0  0  0  0
    1.4289   -0.8250    0.0000 C   0  0  0  0  0  0  0  2  0  0  0  0
    0.7145   -1.2375    0.0000 C   0  0  0  0  0  0  0  2  0  0  0  0
   -0.7145    0.4125    0.0000 C   0  0  0  0  0  0  0  2  0  0  0  0
   -0.7145    1.2375    0.0000 N   0  0  0  0  0  0  0  2  0  0  0  0
   -1.4289   -0.0000    0.0000 C   0  0  0  0  0  0  0  2  0  0  0  0
   -1.4289   -0.8250    0.0000 C   0  0  0  0  0  0  0  2  0  0  0  0
   -0.7145   -1.2375    0.0000 C   0  0  0  0  0  0  0  2  0  0  0  0
  1  2  4  0        0
  2  3  4  0        0
  3  4  1  0        0
  3  5  4  0        0
  5  6  4  0        0
  6  7  4  0        0
  1  7  4  0        0
  2  8  4  0        0
  8  9  1  0        0
  8 10  4  0        0
 10 11  4  0        0
 11 12  4  0        0
  1 12  4  0        0
M  END
$$$$

CDXL12

 20 20  0  0  0  0  0  0  0  0999 V2000
   -0.5716   -1.4437    0.0000 N   0  0  0  0  0  0  0  2  0  0  0  0
    0.1429   -1.8562    0.0000 O   0  0  0  0  0  0  0  2  0  0  0  0
   -1.2860   -1.8562    0.0000 O   0  0  0  0  0  0  0  2  0  0  0  0
   -0.5716   -0.6187    0.0000 C   0  0  0  0  0  0  0  2  0  0  0  0
   -1.2860   -0.2063    0.0000 C   0  0  0  0  0  0  0  2  0  0  0  0
   -1.2860    0.6187    0.0000 C   0  0  0  0  0  0  0  2  0  0  0  0
   -2.0005    1.0312    0.0000 N   0  0  0  0  0  0  0  2  0  0  0  0
   -2.0005    1.8562    0.0000 O   0  0  0  0  0  0  0  2  0  0  0  0
   -2.7150    0.6187    0.0000 O   0  0  0  0  0  0  0  2  0  0  0  0
   -0.5716    1.0312    0.0000 C   0  0  0  0  0  0  0  2  0  0  0  0
    0.1429    0.6187    0.0000 C   0  0  0  0  0  0  0  2  0  0  0  0
    0.8574    1.0312    0.0000 N   0  0  0  0  0  0  0  2  0  0  0  0
    0.8574    1.8562    0.0000 O   0  0  0  0  0  0  0  2  0  0  0  0
    1.5718    0.6187    0.0000 O   0  0  0  0  0  0  0  2  0  0  0  0
    0.1429   -0.2063    0.0000 C   0  0  0  0  0  0  0  2  0  0  0  0
    1.2860   -0.8662    0.0000 N   0  0  0  0  0  0  0  2  0  0  0  0
    1.2860   -1.6912    0.0000 C   0  0  0  0  0  0  0  2  0  0  0  0
    2.0005   -0.4537    0.0000 N   0  0  0  0  0  0  0  2  0  0  0  0
    2.0005    0.3713    0.0000 O   0  0  0  0  0  0  0  2  0  0  0  0
    2.7150   -0.8662    0.0000 O   0  0  0  0  0  0  0  2  0  0  0  0
  1  2  2  0        0
  1  3  2  0        0
  1  4  1  0        0
  4  5  4  0        0
  5  6  4  0        0
  6  7  1  0        0
  7  8  2  0        0
  7  9  2  0        0
  6 10  4  0        0
 10 11  4  0        0
 11 12  1  0        0
 12 13  2  0        0
 12 14  2  0        0
 11 15  4  0        0
  4 15  4  0        0
 15 16  1  0        0
 16 17  1  0        0
 16 18  1  0        0
 18 19  2  0        0
 18 20  2  0        0
M  END
$$$$

CDXL12

 22 24  0  0  0  0  0  0  0  0999 V2000
   -3.2151    0.6188    0.0000 O   0  0  0  0  0  0  0  2  0  0  0  0
   -2.5006    0.2062    0.0000 C   0  0  0  0  0  0  0  2  0  0  0  0
   -2.5006   -0.6187    0.0000 C   0  0  0  0  0  0  0  2  0  0  0  0
   -1.7862   -1.0313    0.0000 C   0  0  0  0  0  0  0  2  0  0  0  0
   -1.7862   -1.8563    0.0000 O   0  0  0  0  0  0  0  2  0  0  0  0
   -1.0717   -0.6188    0.0000 C   0  0  0  0  0  0  0  2  0  0  0  0
   -0.3572   -1.0312    0.0000 C   0  0  0  0  0  0  0  2  0  0  0  0
   -0.3572   -1.8562    0.0000 O   0  0  0  0  0  0  0  2  0  0  0  0
    0.3572   -0.6187    0.0000 C   0  0  0  0  0  0  0  2  0  0  0  0
    1.0717   -1.0312    0.0000 O   0  0  0  0  0  0  0  2  0  0  0  0
    0.3572    0.2062    0.0000 C   0  0  0  0  0  0  0  2  0  0  0  0
    1.0717    0.6188    0.0000 C   0  0  0  0  0  0  0  2  0  0  0  0
    1.7862    0.2062    0.0000 C   0  0  0  0  0  0  0  2  0  0  0  0
    2.5006    0.6188    0.0000 C   0  0  0  0  0  0  0  2  0  0  0  0
    2.5006    1.4438    0.0000 C   0  0  0  0  0  0  0  2  0  0  0  0
    3.2151    1.8563    0.0000 O   0  0  0  0  0  0  0  2  0  0  0  0
    1.7862    1.8563    0.0000 C   0  0  0  0  0  0  0  2  0  0  0  0
    1.0717    1.4438    0.0000 C   0  0  0  0  0  0  0  2  0  0  0  0
    0.3572    1.8563    0.0000 O   0  0  0  0  0  0  0  2  0  0  0  0
   -0.3572    0.6188    0.0000 O   0  0  0  0  0  0  0  2  0  0  0  0
   -1.0717    0.2062    0.0000 C   0  0  0  0  0  0  0  2  0  0  0  0
   -1.7862    0.6188    0.0000 C   0  0  0  0  0  0  0  2  0  0  0  0
  1  2  1  0        0
  2  3  4  0        0
  3  4  4  0        0
  4  5  1  0        0
  4  6  4  0        0
  6  7  1  0        0
  7  8  2  0        0
  7  9  1  0        0
  9 10  1  0        0
  9 11  2  0        0
 11 12  1  0        0
 12 13  4  0        0
 13 14  4  0        0
 14 15  4  0        0
 15 16  1  0        0
 15 17  4  0        0
 17 18  4  0        0
 12 18  4  0        0
 18 19  1  0        0
 11 20  1  0        0
 20 21  1  0        0
  6 21  4  0        0
 21 22  4  0        0
  2 22  4  0        0
M  END
$$$$

CDXL12

 18 19  0  0  0  0  0  0  0  0999 V2000
    0.3572    2.2687    0.0000 O   0  0  0  0  0  0  0  2  0  0  0  0
    0.3572    1.4438    0.0000 C   0  0  0  0  0  0  0  2  0  0  0  0
    1.0717    1.0312    0.0000 O   0  0  0  0  0  0  0  2  0  0  0  0
   -0.3572    1.0313    0.0000 C   0  0  0  0  0  0  0  2  0  0  0  0
   -0.3572    0.2062    0.0000 C   0  0  0  0  0  0  0  2  0  0  0  0
    0.3572   -0.2062    0.0000 C   0  0  0  0  0  0  0  2  0  0  0  0
    0.3572   -1.0313    0.0000 C   0  0  0  0  0  0  0  2  0  0  0  0
    1.0717   -1.4438    0.0000 C   0  0  0  0  0  0  0  2  0  0  0  0
    1.7862   -1.0313    0.0000 C   0  0  0  0  0  0  0  2  0  0  0  0
    1.7862   -0.2062    0.0000 C   0  0  0  0  0  0  0  2  0  0  0  0
    1.0717    0.2062    0.0000 C   0  0  0  0  0  0  0  2  0  0  0  0
   -0.3572   -1.4438    0.0000 C   0  0  0  0  0  0  0  2  0  0  0  0
   -0.3572   -2.2687    0.0000 O   0  0  0  0  0  0  0  2  0  0  0  0
   -1.0717   -1.0313    0.0000 O   0  0  0  0  0  0  0  2  0  0  0  0
   -1.0717   -0.2062    0.0000 C   0  0  0  0  0  0  0  2  0  0  0  0
   -1.7862    0.2062    0.0000 C   0  0  0  0  0  0  0  2  0  0  0  0
   -1.7862    1.0313    0.0000 C   0  0  0  0  0  0  0  2  0  0  0  0
   -1.0717    1.4438    0.0000 C   0  0  0  0  0  0  0  2  0  0  0  0
  1  2  2  0        0
  2  3  1  0        0
  2  4  1  0        0
  4  5  4  0        0
  5  6  1  0        0
  6  7  4  0        0
  7  8  4  0        0
  8  9  4  0        0
  9 10  4  0        0
 10 11  4  0        0
  6 11  4  0        0
  7 12  1  0        0
 12 13  2  0        0
 12 14  1  0        0
  5 15  4  0        0
 15 16  4  0        0
 16 17  4  0        0
 17 18  4  0        0
  4 18  4  0        0
M  END
$$$$

CDXL12

 18 20  0  0  0  0  0  0  0  0999 V2000
   -2.5006   -1.0312    0.0000 C   0  0  0  0  0  0  0  2  0  0  0  0
   -2.5006   -0.2062    0.0000 C   0  0  0  0  0  0  0  2  0  0  0  0
   -1.7862    0.2062    0.0000 C   0  0  0  0  0  0  0  2  0  0  0  0
   -1.0717   -0.2063    0.0000 C   0  0  0  0  0  0  0  2  0  0  0  0
   -0.3572    0.2062    0.0000 C   0  0  0  0  0  0  0  2  0  0  0  0
   -0.3572    1.0313    0.0000 C   0  0  0  0  0  0  0  2  0  0  0  0
    0.3572    1.4438    0.0000 C   0  0  0  0  0  0  0  2  0  0  0  0
    1.0717    1.0313    0.0000 C   0  0  0  0  0  0  0  2  0  0  0  0
    1.7862    1.4438    0.0000 C   0  0  0  0  0  0  0  2  0  0  0  0
    1.7862    2.2687    0.0000 C   0  0  0  0  0  0  0  2  0  0  0  0
    2.5006    1.0313    0.0000 C   0  0  0  0  0  0  0  2  0  0  0  0
    1.0717    0.2062    0.0000 C   0  0  0  0  0  0  0  2  0  0  0  0
    0.3572   -0.2062    0.0000 C   0  0  0  0  0  0  0  2  0  0  0  0
    0.3572   -1.0313    0.0000 C   0  0  0  0  0  0  0  2  0  0  0  0
   -0.3572   -1.4438    0.0000 C   0  0  0  0  0  0  0  2  0  0  0  0
   -1.0717   -1.0313    0.0000 C   0  0  0  0  0  0  0  2  0  0  0  0
   -1.7862   -1.4438    0.0000 C   0  0  0  0  0  0  0  2  0  0  0  0
   -1.7862   -2.2687    0.0000 C   0  0  0  0  0  0  0  2  0  0  0  0
  1  2  4  0        0
  2  3  4  0        0
  3  4  4  0        0
  4  5  4  0        0
  5  6  4  0        0
  6  7  4  0        0
  7  8  4  0        0
  8  9  1  0        0
  9 10  1  0        0
  9 11  1  0        0
  8 12  4  0        0
 12 13  4  0        0
  5 13  4  0        0
 13 14  4  0        0
 14 15  4  0        0
 15 16  4  0        0
  4 16  4  0        0
 16 17  4  0        0
  1 17  4  0        0
 17 18  1  0        0
M  END
$$$$

CDXL12

 23 23  0  0  0  0  0  0  0  0999 V2000
   -0.8574    2.0625    0.0000 C   0  0  0  0  0  0  0  2  0  0  0  0
   -0.1429    1.6500    0.0000 C   0  0  0  0  0  0  0  2  0  0  0  0
   -0.1429    0.8250    0.0000 C   0  0  0  0  0  0  0  2  0  0  0  0
   -0.8574    0.4125    0.0000 C   0  0  0  0  0  0  0  2  0  0  0  0
    0.5716    0.4125    0.0000 C   0  0  0  0  0  0  0  2  0  0  0  0
    1.2860    0.8250    0.0000 C   0  0  0  0  0  0  0  2  0  0  0  0
    2.0005    0.4125    0.0000 C   0  0  0  0  0  0  0  2  0  0  0  0
    2.0005   -0.4125    0.0000 C   0  0  0  0  0  0  0  2  0  0  0  0
    1.2860   -0.8250    0.0000 C   0  0  0  0  0  0  0  2  0  0  0  0
    1.2860   -1.6500    0.0000 N   0  0  0  0  0  0  0  2  0  0  0  0
    0.5716   -2.0625    0.0000 O   0  0  0  0  0  0  0  2  0  0  0  0
    2.0005   -2.0625    0.0000 O   0  0  0  0  0  0  0  2  0  0  0  0
    0.5716   -0.4125    0.0000 C   0  0  0  0  0  0  0  2  0  0  0  0
   -0.5716   -1.0725    0.0000 O   0  0  0  0  0  0  0  2  0  0  0  0
   -1.2860   -0.6600    0.0000 C   0  0  0  0  0  0  0  2  0  0  0  0
   -1.2860    0.1650    0.0000 O   0  0  0  0  0  0  0  2  0  0  0  0
   -2.0005   -1.0725    0.0000 C   0  0  0  0  0  0  0  2  0  0  0  0
   -2.7150   -0.6600    0.0000 C   0  0  0  0  0  0  0  2  0  0  0  0
   -3.4295   -1.0725    0.0000 C   0  0  0  0  0  0  0  2  0  0  0  0
   -2.7150    0.1650    0.0000 C   0  0  0  0  0  0  0  2  0  0  0  0
    2.7150    0.8250    0.0000 N   0  0  0  0  0  0  0  2  0  0  0  0
    2.7150    1.6500    0.0000 O   0  0  0  0  0  0  0  2  0  0  0  0
    3.4295    0.4125    0.0000 O   0  0  0  0  0  0  0  2  0  0  0  0
  1  2  1  0        0
  2  3  1  0        0
  3  4  1  0        0
  3  5  1  0        0
  5  6  4  0        0
  6  7  4  0        0
  7  8  4  0        0
  8  9  4  0        0
  9 10  1  0        0
 10 11  2  0        0
 10 12  2  0        0
  9 13  4  0        0
  5 13  4  0        0
 13 14  1  0        0
 14 15  1  0        0
 15 16  2  0        0
 15 17  1  0        0
 17 18  2  0        0
 18 19  1  0        0
 18 20  1  0        0
  7 21  1  0        0
 21 22  2  0        0
 21 23  2  0        0
M  END
$$$$

CDXL12

 14 16  0  0  0  0  0  0  0  0999 V2000
   -1.7734   -0.6306    0.0000 C   0  0  0  0  0  0  0  2  0  0  0  0
   -1.7734    0.1944    0.0000 C   0  0  0  0  0  0  0  2  0  0  0  0
   -1.0589    0.6069    0.0000 C   0  0  0  0  0  0  0  2  0  0  0  0
   -1.0589    1.4319    0.0000 O   0  0  0  0  0  0  0  2  0  0  0  0
   -0.3444    0.1944    0.0000 N   0  0  0  0  0  0  0  2  0  0  0  0
    0.3701    0.6069    0.0000 C   0  0  0  0  0  0  0  2  0  0  0  0
    1.0845    0.1944    0.0000 C   0  0  0  0  0  0  0  2  0  0  0  0
    1.0845   -0.6306    0.0000 C   0  0  0  0  0  0  0  2  0  0  0  0
    0.3701   -1.0431    0.0000 C   0  0  0  0  0  0  0  2  0  0  0  0
    1.0742   -1.4319    0.0000 C   0  0  0  0  0  0  0  2  0  0  0  0
    1.7682   -1.0253    0.0000 N   0  0  0  0  0  0  0  2  0  0  0  0
    1.7734   -0.2210    0.0000 C   0  0  0  0  0  0  0  2  0  0  0  0
   -0.3444   -0.6306    0.0000 C   0  0  0  0  0  0  0  2  0  0  0  0
   -1.0589   -1.0431    0.0000 C   0  0  0  0  0  0  0  2  0  0  0  0
  1  2  2  0        0
  2  3  1  0        0
  3  4  2  0        0
  3  5  1  0        0
  5  6  1  0        0
  6  7  1  0        0
  7  8  1  0        0
  8  9  1  0        0
  9 10  1  0        0
 10 11  1  0        0
 11 12  1  0        0
  7 12  1  0        0
  9 13  1  0        0
  5 13  1  0        0
 13 14  2  0        0
  1 14  1  0        0
M  END
$$$$

CDXL12

 22 25  0  0  0  0  0  0  0  0999 V2000
   -1.4289   -0.8250    0.0000 O   0  0  0  0  0  0  0  2  0  0  0  0
   -0.7145   -0.4125    0.0000 C   0  0  0  0  0  0  0  2  0  0  0  0
   -0.7145    0.4125    0.0000 C   0  0  0  0  0  0  0  2  0  0  0  0
   -1.4289    0.8250    0.0000 C   0  0  0  0  0  0  0  2  0  0  0  0
   -1.4289    1.6500    0.0000 C   0  0  0  0  0  0  0  2  0  0  0  0
   -0.7145    2.0625    0.0000 N   0  0  0  0  0  0  0  2  0  0  0  0
   -0.0000    1.6500    0.0000 C   0  0  0  0  0  0  0  2  0  0  0  0
   -0.0000    0.8250    0.0000 C   0  0  0  0  0  0  0  2  0  0  0  0
   -2.1434    2.0625    0.0000 C   0  0  0  0  0  0  0  2  0  0  0  0
   -2.8579    1.6500    0.0000 C   0  0  0  0  0  0  0  2  0  0  0  0
   -2.8579    0.8250    0.0000 C   0  0  0  0  0  0  0  2  0  0  0  0
   -2.1434    0.4125    0.0000 C   0  0  0  0  0  0  0  2  0  0  0  0
   -0.0000   -0.8250    0.0000 C   0  0  0  0  0  0  0  2  0  0  0  0
    0.7145   -0.4125    0.0000 N   0  0  0  0  0  0  0  2  0  0  0  0
    1.0565   -0.9281    0.0000 C   0  0  0  0  0  0  0  2  0  0  0  0
    1.0565   -1.5469    0.0000 C   0  0  0  0  0  0  0  2  0  0  0  0
    0.7145   -2.0625    0.0000 C   0  0  0  0  0  0  0  2  0  0  0  0
    1.4289   -1.6500    0.0000 C   0  0  0  0  0  0  0  2  0  0  0  0
    2.1434   -2.0625    0.0000 C   0  0  0  0  0  0  0  2  0  0  0  0
    2.8579   -1.6500    0.0000 C   0  0  0  0  0  0  0  2  0  0  0  0
    1.4289   -0.8250    0.0000 C   0  0  0  0  0  0  0  2  0  0  0  0
   -0.0000   -1.6500    0.0000 C   0  0  0  0  0  0  0  2  0  0  0  0
  1  2  1  0        0
  2  3  1  0        0
  3  4  4  0        0
  4  5  4  0        0
  5  6  4  0        0
  6  7  4  0        0
  7  8  4  0        0
  3  8  4  0        0
  5  9  4  0        0
  9 10  4  0        0
 10 11  4  0        0
 11 12  4  0        0
  4 12  4  0        0
  2 13  1  0        0
 13 14  1  0        0
 14 15  1  0        0
 15 16  1  0        0
 16 17  1  0        0
 17 18  1  0        0
 18 19  1  0        0
 19 20  2  0        0
 18 21  1  0        0
 14 21  1  0        0
 17 22  1  0        0
 13 22  1  0        0
M  END
$$$$

CDXL12

 12 12  0  0  0  0  0  0  0  0999 V2000
    1.4289   -0.4125    0.0000 O   0  0  0  0  0  0  0  2  0  0  0  0
    0.7145   -0.8250    0.0000 C   0  0  0  0  0  0  0  2  0  0  0  0
    0.7145   -1.6500    0.0000 O   0  0  0  0  0  0  0  2  0  0  0  0
    0.0000   -0.4125    0.0000 C   0  0  0  0  0  0  0  2  0  0  0  0
   -0.7145   -0.8250    0.0000 C   0  0  0  0  0  0  0  2  0  0  0  0
   -1.4289   -0.4125    0.0000 C   0  0  0  0  0  0  0  2  0  0  0  0
   -1.4289    0.4125    0.0000 N   0  0  0  0  0  0  0  2  0  0  0  0
   -0.7145    0.8250    0.0000 C   0  0  0  0  0  0  0  2  0  0  0  0
    0.0000    0.4125    0.0000 C   0  0  0  0  0  0  0  2  0  0  0  0
    0.7145    0.8250    0.0000 C   0  0  0  0  0  0  0  2  0  0  0  0
    1.4289    0.4125    0.0000 O   0  0  0  0  0  0  0  2  0  0  0  0
    0.7145    1.6500    0.0000 O   0  0  0  0  0  0  0  2  0  0  0  0
  1  2  1  0        0
  2  3  2  0        0
  2  4  1  0        0
  4  5  4  0        0
  5  6  4  0        0
  6  7  4  0        0
  7  8  4  0        0
  8  9  4  0        0
  4  9  4  0        0
  9 10  1  0        0
 10 11  1  0        0
 10 12  2  0        0
M  END
$$$$

CDXL12

 13 13  0  0  0  0  0  0  0  0999 V2000
   -0.3572   -1.2375    0.0000 O   0  0  0  0  0  0  0  2  0  0  0  0
   -0.3572   -0.4125    0.0000 C   0  0  0  0  0  0  0  2  0  0  0  0
    0.3572    0.0000    0.0000 N   0  0  0  0  0  0  0  2  0  0  0  0
    1.0717   -0.4125    0.0000 C   0  0  0  0  0  0  0  2  0  0  0  0
    1.7862   -0.0000    0.0000 C   0  0  0  0  0  0  0  2  0  0  0  0
    1.7862    0.8250    0.0000 O   0  0  0  0  0  0  0  2  0  0  0  0
    2.5006   -0.4125    0.0000 O   0  0  0  0  0  0  0  2  0  0  0  0
   -1.0717   -0.0000    0.0000 C   0  0  0  0  0  0  0  2  0  0  0  0
   -1.7862   -0.4125    0.0000 C   0  0  0  0  0  0  0  2  0  0  0  0
   -2.5006    0.0000    0.0000 C   0  0  0  0  0  0  0  2  0  0  0  0
   -2.5006    0.8250    0.0000 C   0  0  0  0  0  0  0  2  0  0  0  0
   -1.7862    1.2375    0.0000 C   0  0  0  0  0  0  0  2  0  0  0  0
   -1.0717    0.8250    0.0000 C   0  0  0  0  0  0  0  2  0  0  0  0
  1  2  2  0        0
  2  3  1  0        0
  3  4  1  0        0
  4  5  1  0        0
  5  6  2  0        0
  5  7  1  0        0
  2  8  1  0        0
  8  9  4  0        0
  9 10  4  0        0
 10 11  4  0        0
 11 12  4  0        0
 12 13  4  0        0
  8 13  4  0        0
M  END
$$$$

CDXL12

 18 19  0  0  0  0  0  0  0  0999 V2000
    3.5724   -0.8250    0.0000 O   0  0  0  0  0  0  0  2  0  0  0  0
    2.8579   -1.2375    0.0000 N   0  0  0  0  0  0  0  2  0  0  0  0
    2.1434   -0.8250    0.0000 C   0  0  0  0  0  0  0  2  0  0  0  0
    2.1434    0.0000    0.0000 C   0  0  0  0  0  0  0  2  0  0  0  0
    1.4289    0.4125    0.0000 C   0  0  0  0  0  0  0  2  0  0  0  0
    0.7145    0.0000    0.0000 C   0  0  0  0  0  0  0  2  0  0  0  0
    0.7145   -0.8250    0.0000 C   0  0  0  0  0  0  0  2  0  0  0  0
    1.4289   -1.2375    0.0000 C   0  0  0  0  0  0  0  2  0  0  0  0
    0.0000    0.4125    0.0000 N   0  0  0  0  0  0  0  2  0  0  0  0
   -0.7145    0.0000    0.0000 N   0  0  0  0  0  0  0  2  0  0  0  0
   -1.4289    0.4125    0.0000 C   0  0  0  0  0  0  0  2  0  0  0  0
   -1.4289    1.2375    0.0000 O   0  0  0  0  0  0  0  2  0  0  0  0
   -2.1434    0.0000    0.0000 C   0  0  0  0  0  0  0  2  0  0  0  0
   -2.8579    0.4125    0.0000 C   0  0  0  0  0  0  0  2  0  0  0  0
   -3.5724   -0.0000    0.0000 C   0  0  0  0  0  0  0  2  0  0  0  0
   -3.5724   -0.8250    0.0000 C   0  0  0  0  0  0  0  2  0  0  0  0
   -2.8579   -1.2375    0.0000 C   0  0  0  0  0  0  0  2  0  0  0  0
   -2.1434   -0.8250    0.0000 C   0  0  0  0  0  0  0  2  0  0  0  0
  1  2  1  0        0
  2  3  2  0        0
  3  4  1  0        0
  4  5  2  0        0
  5  6  1  0        0
  6  7  1  0        0
  7  8  2  0        0
  3  8  1  0        0
  6  9  2  0        0
  9 10  1  0        0
 10 11  1  0        0
 11 12  2  0        0
 11 13  1  0        0
 13 14  4  0        0
 14 15  4  0        0
 15 16  4  0        0
 16 17  4  0        0
 17 18  4  0        0
 13 18  4  0        0
M  END
$$$$

CDXL12

  9 10  0  0  0  0  0  0  0  0999 V2000
    0.0797   -0.4125    0.0000 C   0  0  0  0  0  0  0  2  0  0  0  0
    0.0797    0.4125    0.0000 C   0  0  0  0  0  0  0  2  0  0  0  0
   -0.6348    0.8250    0.0000 C   0  0  0  0  0  0  0  2  0  0  0  0
   -1.3492    0.4125    0.0000 C   0  0  0  0  0  0  0  2  0  0  0  0
   -1.3492   -0.4125    0.0000 C   0  0  0  0  0  0  0  2  0  0  0  0
   -0.6348   -0.8250    0.0000 C   0  0  0  0  0  0  0  2  0  0  0  0
    0.8643    0.6674    0.0000 C   0  0  0  0  0  0  0  2  0  0  0  0
    1.3492   -0.0000    0.0000 C   0  0  0  0  0  0  0  2  0  0  0  0
    0.8643   -0.6674    0.0000 C   0  0  0  0  0  0  0  2  0  0  0  0
  1  2  4  0        0
  2  3  4  0        0
  3  4  4  0        0
  4  5  4  0        0
  5  6  4  0        0
  1  6  4  0        0
  2  7  1  0        0
  7  8  1  0        0
  8  9  1  0        0
  1  9  1  0        0
M  END
$$$$

CDXL12

  8  9  0  0  0  0  0  0  0  0999 V2000
    1.0717    0.8250    0.0000 O   0  0  0  0  0  0  0  2  0  0  0  0
    0.3572    0.4125    0.0000 C   0  0  0  0  0  0  0  2  0  0  0  0
   -0.3572    0.8250    0.0000 C   0  0  0  0  0  0  0  2  0  0  0  0
   -0.6938    0.0000    0.0000 C   0  0  0  0  0  0  0  2  0  0  0  0
   -0.3572   -0.8250    0.0000 C   0  0  0  0  0  0  0  2  0  0  0  0
   -1.0717   -0.4125    0.0000 C   0  0  0  0  0  0  0  2  0  0  0  0
   -1.0717    0.4125    0.0000 C   0  0  0  0  0  0  0  2  0  0  0  0
    0.3572   -0.4125    0.0000 C   0  0  0  0  0  0  0  2  0  0  0  0
  1  2  2  0        0
  2  3  1  0        0
  3  4  1  0        0
  4  5  1  0        0
  5  6  1  0        0
  6  7  1  0        0
  3  7  1  0        0
  5  8  1  0        0
  2  8  1  0        0
M  END
$$$$

CDXL12

  9  8  0  0  0  0  0  0  0  0999 V2000
    1.0717    1.0313    0.0000 O   0  0  0  0  0  0  0  2  0  0  0  0
    1.0717    0.2062    0.0000 C   0  0  0  0  0  0  0  2  0  0  0  0
    1.7862   -0.2062    0.0000 O   0  0  0  0  0  0  0  2  0  0  0  0
    0.3572   -0.2062    0.0000 C   0  0  0  0  0  0  0  2  0  0  0  0
   -0.3572    0.2062    0.0000 C   0  0  0  0  0  0  0  2  0  0  0  0
   -1.0717   -0.2062    0.0000 C   0  0  0  0  0  0  0  2  0  0  0  0
   -1.0717   -1.0313    0.0000 O   0  0  0  0  0  0  0  2  0  0  0  0
   -1.7862    0.2062    0.0000 O   0  0  0  0  0  0  0  2  0  0  0  0
    0.3572   -1.0313    0.0000 C   0  0  0  0  0  0  0  2  0  0  0  0
  1  2  2  0        0
  2  3  1  0        0
  2  4  1  0        0
  4  5  1  0        0
  5  6  1  0        0
  6  7  2  0        0
  6  8  1  0        0
  4  9  1  0        0
M  END
$$$$

CDXL12

 12 12  0  0  0  0  0  0  0  0999 V2000
   -1.4289    1.2375    0.0000 O   0  0  0  0  0  0  0  2  0  0  0  0
   -1.4289    0.4125    0.0000 C   0  0  0  0  0  0  0  2  0  0  0  0
   -2.1434   -0.0000    0.0000 O   0  0  0  0  0  0  0  2  0  0  0  0
   -0.7145   -0.0000    0.0000 C   0  0  0  0  0  0  0  2  0  0  0  0
   -0.7145   -0.8250    0.0000 C   0  0  0  0  0  0  0  2  0  0  0  0
    0.0000   -1.2375    0.0000 C   0  0  0  0  0  0  0  2  0  0  0  0
    0.7145   -0.8250    0.0000 N   0  0  0  0  0  0  0  2  0  0  0  0
    0.7145   -0.0000    0.0000 C   0  0  0  0  0  0  0  2  0  0  0  0
    1.4289    0.4125    0.0000 C   0  0  0  0  0  0  0  2  0  0  0  0
    1.4289    1.2375    0.0000 O   0  0  0  0  0  0  0  2  0  0  0  0
    2.1434   -0.0000    0.0000 O   0  0  0  0  0  0  0  2  0  0  0  0
    0.0000    0.4125    0.0000 C   0  0  0  0  0  0  0  2  0  0  0  0
  1  2  2  0        0
  2  3  1  0        0
  2  4  1  0        0
  4  5  4  0        0
  5  6  4  0        0
  6  7  4  0        0
  7  8  4  0        0
  8  9  1  0        0
  9 10  2  0        0
  9 11  1  0        0
  8 12  4  0        0
  4 12  4  0        0
M  END
$$$$

CDXL12

 12 12  0  0  0  0  0  0  0  0999 V2000
    0.0000   -1.2375    0.0000 N   0  0  0  0  0  0  0  2  0  0  0  0
   -0.7145   -0.8250    0.0000 C   0  0  0  0  0  0  0  2  0  0  0  0
   -0.7145    0.0000    0.0000 C   0  0  0  0  0  0  0  2  0  0  0  0
   -1.4289    0.4125    0.0000 C   0  0  0  0  0  0  0  2  0  0  0  0
   -1.4289    1.2375    0.0000 O   0  0  0  0  0  0  0  2  0  0  0  0
   -2.1434    0.0000    0.0000 O   0  0  0  0  0  0  0  2  0  0  0  0
    0.0000    0.4125    0.0000 C   0  0  0  0  0  0  0  2  0  0  0  0
    0.7145   -0.0000    0.0000 C   0  0  0  0  0  0  0  2  0  0  0  0
    1.4289    0.4125    0.0000 C   0  0  0  0  0  0  0  2  0  0  0  0
    1.4289    1.2375    0.0000 O   0  0  0  0  0  0  0  2  0  0  0  0
    2.1434   -0.0000    0.0000 O   0  0  0  0  0  0  0  2  0  0  0  0
    0.7145   -0.8250    0.0000 C   0  0  0  0  0  0  0  2  0  0  0  0
  1  2  4  0        0
  2  3  4  0        0
  3  4  1  0        0
  4  5  2  0        0
  4  6  1  0        0
  3  7  4  0        0
  7  8  4  0        0
  8  9  1  0        0
  9 10  2  0        0
  9 11  1  0        0
  8 12  4  0        0
  1 12  4  0        0
M  END
$$$$

CDXL12

 12 12  0  0  0  0  0  0  0  0999 V2000
   -1.4289    1.2375    0.0000 O   0  0  0  0  0  0  0  2  0  0  0  0
   -1.4289    0.4125    0.0000 C   0  0  0  0  0  0  0  2  0  0  0  0
   -2.1434    0.0000    0.0000 O   0  0  0  0  0  0  0  2  0  0  0  0
   -0.7145    0.0000    0.0000 C   0  0  0  0  0  0  0  2  0  0  0  0
    0.0000    0.4125    0.0000 N   0  0  0  0  0  0  0  2  0  0  0  0
    0.7145   -0.0000    0.0000 C   0  0  0  0  0  0  0  2  0  0  0  0
    0.7145   -0.8250    0.0000 C   0  0  0  0  0  0  0  2  0  0  0  0
    0.0000   -1.2375    0.0000 C   0  0  0  0  0  0  0  2  0  0  0  0
   -0.7145   -0.8250    0.0000 C   0  0  0  0  0  0  0  2  0  0  0  0
    1.4289    0.4125    0.0000 C   0  0  0  0  0  0  0  2  0  0  0  0
    1.4289    1.2375    0.0000 O   0  0  0  0  0  0  0  2  0  0  0  0
    2.1434   -0.0000    0.0000 O   0  0  0  0  0  0  0  2  0  0  0  0
  1  2  2  0        0
  2  3  1  0        0
  2  4  1  0        0
  4  5  4  0        0
  5  6  4  0        0
  6  7  4  0        0
  7  8  4  0        0
  8  9  4  0        0
  4  9  4  0        0
  6 10  1  0        0
 10 11  2  0        0
 10 12  1  0        0
M  END
$$$$

CDXL12

 17 17  0  0  0  0  0  0  0  0999 V2000
    2.8579   -0.4125    0.0000 C   0  0  0  0  0  0  0  2  0  0  0  0
    2.1434   -0.8250    0.0000 O   0  0  0  0  0  0  0  2  0  0  0  0
    1.4289   -0.4125    0.0000 P   0  0  0  0  0  0  0  2  0  0  0  0
    1.4289    0.4125    0.0000 S   0  0  0  0  0  0  0  2  0  0  0  0
    1.4289   -1.2375    0.0000 O   0  0  0  0  0  0  0  2  0  0  0  0
    2.1434   -1.6500    0.0000 C   0  0  0  0  0  0  0  2  0  0  0  0
    0.7145   -0.8250    0.0000 O   0  0  0  0  0  0  0  2  0  0  0  0
    0.0000   -0.4125    0.0000 C   0  0  0  0  0  0  0  2  0  0  0  0
    0.0000    0.4125    0.0000 C   0  0  0  0  0  0  0  2  0  0  0  0
   -0.7145    0.8250    0.0000 C   0  0  0  0  0  0  0  2  0  0  0  0
   -1.4289    0.4125    0.0000 C   0  0  0  0  0  0  0  2  0  0  0  0
   -2.1434    0.8250    0.0000 N   0  0  0  0  0  0  0  2  0  0  0  0
   -2.1434    1.6500    0.0000 O   0  0  0  0  0  0  0  2  0  0  0  0
   -2.8579    0.4125    0.0000 O   0  0  0  0  0  0  0  2  0  0  0  0
   -1.4289   -0.4125    0.0000 C   0  0  0  0  0  0  0  2  0  0  0  0
   -2.1434   -0.8250    0.0000 Cl  0  0  0  0  0  0  0  2  0  0  0  0
   -0.7145   -0.8250    0.0000 C   0  0  0  0  0  0  0  2  0  0  0  0
  1  2  1  0        0
  2  3  1  0        0
  3  4  2  0        0
  3  5  1  0        0
  5  6  1  0        0
  3  7  1  0        0
  7  8  1  0        0
  8  9  4  0        0
  9 10  4  0        0
 10 11  4  0        0
 11 12  1  0        0
 12 13  2  0        0
 12 14  2  0        0
 11 15  4  0        0
 15 16  1  0        0
 15 17  4  0        0
  8 17  4  0        0
M  END
$$$$

CDXL12

 18 19  0  0  0  0  0  0  0  0999 V2000
    0.6592   -0.6188    0.0000 C   0  0  0  0  0  0  0  2  0  0  0  0
    1.3737   -1.0312    0.0000 C   0  0  0  0  0  0  0  2  0  0  0  0
    1.3737   -1.8562    0.0000 C   0  0  0  0  0  0  0  2  0  0  0  0
    2.0881   -0.6188    0.0000 N   0  0  0  0  0  0  0  2  0  0  0  0
    2.0881    0.2062    0.0000 C   0  0  0  0  0  0  0  2  0  0  0  0
    2.5006    0.9207    0.0000 C   0  0  0  0  0  0  0  2  0  0  0  0
    2.9131    0.2062    0.0000 C   0  0  0  0  0  0  0  2  0  0  0  0
    1.3737    0.6187    0.0000 C   0  0  0  0  0  0  0  2  0  0  0  0
    0.6592    0.2062    0.0000 C   0  0  0  0  0  0  0  2  0  0  0  0
   -0.0553    0.6187    0.0000 O   0  0  0  0  0  0  0  2  0  0  0  0
   -0.7697    0.2062    0.0000 C   0  0  0  0  0  0  0  2  0  0  0  0
   -0.7697   -0.6188    0.0000 O   0  0  0  0  0  0  0  2  0  0  0  0
   -1.4842    0.6187    0.0000 C   0  0  0  0  0  0  0  2  0  0  0  0
   -2.1987    0.2062    0.0000 C   0  0  0  0  0  0  0  2  0  0  0  0
   -2.9131    0.6187    0.0000 C   0  0  0  0  0  0  0  2  0  0  0  0
   -2.9131    1.4437    0.0000 C   0  0  0  0  0  0  0  2  0  0  0  0
   -2.1987    1.8562    0.0000 C   0  0  0  0  0  0  0  2  0  0  0  0
   -1.4842    1.4437    0.0000 C   0  0  0  0  0  0  0  2  0  0  0  0
  1  2  1  0        0
  2  3  1  0        0
  2  4  1  0        0
  4  5  1  0        0
  5  6  1  0        0
  5  7  1  0        0
  5  8  1  0        0
  8  9  1  0        0
  1  9  1  0        0
  9 10  1  0        0
 10 11  1  0        0
 11 12  2  0        0
 11 13  1  0        0
 13 14  4  0        0
 14 15  4  0        0
 15 16  4  0        0
 16 17  4  0        0
 17 18  4  0        0
 13 18  4  0        0
M  END
$$$$

CDXL12

 11 11  0  0  0  0  0  0  0  0999 V2000
    1.4289    1.2375    0.0000 O   0  0  0  0  0  0  0  2  0  0  0  0
    1.4289    0.4125    0.0000 C   0  0  0  0  0  0  0  2  0  0  0  0
    2.1434    0.0000    0.0000 O   0  0  0  0  0  0  0  2  0  0  0  0
    0.7145    0.0000    0.0000 C   0  0  0  0  0  0  0  2  0  0  0  0
    0.0000    0.4125    0.0000 C   0  0  0  0  0  0  0  2  0  0  0  0
   -0.7145    0.0000    0.0000 C   0  0  0  0  0  0  0  2  0  0  0  0
   -0.7145   -0.8250    0.0000 C   0  0  0  0  0  0  0  2  0  0  0  0
   -1.4289   -1.2375    0.0000 C   0  0  0  0  0  0  0  2  0  0  0  0
   -2.1434   -0.8250    0.0000 C   0  0  0  0  0  0  0  2  0  0  0  0
   -2.1434   -0.0000    0.0000 C   0  0  0  0  0  0  0  2  0  0  0  0
   -1.4289    0.4125    0.0000 C   0  0  0  0  0  0  0  2  0  0  0  0
  1  2  2  0        0
  2  3  1  0        0
  2  4  1  0        0
  4  5  1  0        0
  5  6  1  0        0
  6  7  4  0        0
  7  8  4  0        0
  8  9  4  0        0
  9 10  4  0        0
 10 11  4  0        0
  6 11  4  0        0
M  END
$$$$

CDXL12

 12 11  0  0  0  0  0  0  0  0999 V2000
    3.2151    0.2062    0.0000 C   0  0  0  0  0  0  0  2  0  0  0  0
    2.5006   -0.2062    0.0000 C   0  0  0  0  0  0  0  2  0  0  0  0
    1.7862    0.2063    0.0000 O   0  0  0  0  0  0  0  2  0  0  0  0
    1.0717   -0.2062    0.0000 C   0  0  0  0  0  0  0  2  0  0  0  0
    1.0717   -1.0312    0.0000 S   0  0  0  0  0  0  0  2  0  0  0  0
    0.3572    0.2062    0.0000 S   0  0  0  0  0  0  0  2  0  0  0  0
   -0.3572   -0.2062    0.0000 S   0  0  0  0  0  0  0  2  0  0  0  0
   -1.0717    0.2062    0.0000 C   0  0  0  0  0  0  0  2  0  0  0  0
   -1.0717    1.0312    0.0000 S   0  0  0  0  0  0  0  2  0  0  0  0
   -1.7862   -0.2062    0.0000 O   0  0  0  0  0  0  0  2  0  0  0  0
   -2.5006    0.2062    0.0000 C   0  0  0  0  0  0  0  2  0  0  0  0
   -3.2151   -0.2062    0.0000 C   0  0  0  0  0  0  0  2  0  0  0  0
  1  2  1  0        0
  2  3  1  0        0
  3  4  1  0        0
  4  5  2  0        0
  4  6  1  0        0
  6  7  1  0        0
  7  8  1  0        0
  8  9  2  0        0
  8 10  1  0        0
 10 11  1  0        0
 11 12  1  0        0
M  END
$$$$

CDXL12

 10  9  0  0  0  0  0  0  0  0999 V2000
    0.0000    0.6188    0.0000 O   0  0  0  0  0  0  0  2  0  0  0  0
    0.0000   -0.2062    0.0000 C   0  0  0  0  0  0  0  2  0  0  0  0
    0.7145   -0.6188    0.0000 C   0  0  0  0  0  0  0  2  0  0  0  0
    1.4289   -0.2062    0.0000 C   0  0  0  0  0  0  0  2  0  0  0  0
    2.1434   -0.6188    0.0000 C   0  0  0  0  0  0  0  2  0  0  0  0
    2.8579   -0.2062    0.0000 C   0  0  0  0  0  0  0  2  0  0  0  0
   -0.7145   -0.6187    0.0000 C   0  0  0  0  0  0  0  2  0  0  0  0
   -1.4289   -0.2062    0.0000 C   0  0  0  0  0  0  0  2  0  0  0  0
   -2.1434   -0.6187    0.0000 C   0  0  0  0  0  0  0  2  0  0  0  0
   -2.8579   -0.2062    0.0000 C   0  0  0  0  0  0  0  2  0  0  0  0
  1  2  2  0        0
  2  3  1  0        0
  3  4  1  0        0
  4  5  1  0        0
  5  6  1  0        0
  2  7  1  0        0
  7  8  1  0        0
  8  9  1  0        0
  9 10  1  0        0
M  END
$$$$

CDXL12

  4  4  0  0  0  0  0  0  0  0999 V2000
    0.4125   -0.4125    0.0000 O   0  0  0  0  0  0  0  2  0  0  0  0
   -0.4125   -0.4125    0.0000 C   0  0  0  0  0  0  0  2  0  0  0  0
   -0.4125    0.4125    0.0000 C   0  0  0  0  0  0  0  2  0  0  0  0
    0.4125    0.4125    0.0000 C   0  0  0  0  0  0  0  2  0  0  0  0
  1  2  1  0        0
  2  3  1  0        0
  3  4  1  0        0
  1  4  1  0        0
M  END
$$$$

CDXL12

  7  6  0  0  0  0  0  0  0  0999 V2000
    0.7145    0.6187    0.0000 O   0  0  0  0  0  0  0  2  0  0  0  0
    0.7145   -0.2062    0.0000 C   0  0  0  0  0  0  0  2  0  0  0  0
    1.4289   -0.6188    0.0000 O   0  0  0  0  0  0  0  2  0  0  0  0
    0.0000   -0.6188    0.0000 C   0  0  0  0  0  0  0  2  0  0  0  0
   -0.7145   -0.2062    0.0000 C   0  0  0  0  0  0  0  2  0  0  0  0
   -1.4289   -0.6187    0.0000 C   0  0  0  0  0  0  0  2  0  0  0  0
   -0.7145    0.6188    0.0000 C   0  0  0  0  0  0  0  2  0  0  0  0
  1  2  2  0        0
  2  3  1  0        0
  2  4  1  0        0
  4  5  1  0        0
  5  6  1  0        0
  5  7  1  0        0
M  END
$$$$

CDXL12

 12 11  0  0  0  0  0  0  0  0999 V2000
   -2.5006   -1.0312    0.0000 O   0  0  0  0  0  0  0  2  0  0  0  0
   -2.5006   -0.2062    0.0000 C   0  0  0  0  0  0  0  2  0  0  0  0
   -3.2151    0.2062    0.0000 O   0  0  0  0  0  0  0  2  0  0  0  0
   -1.7862    0.2063    0.0000 C   0  0  0  0  0  0  0  2  0  0  0  0
   -1.0717   -0.2062    0.0000 C   0  0  0  0  0  0  0  2  0  0  0  0
   -0.3572    0.2062    0.0000 C   0  0  0  0  0  0  0  2  0  0  0  0
    0.3572   -0.2062    0.0000 C   0  0  0  0  0  0  0  2  0  0  0  0
    1.0717    0.2062    0.0000 C   0  0  0  0  0  0  0  2  0  0  0  0
    1.7862   -0.2062    0.0000 C   0  0  0  0  0  0  0  2  0  0  0  0
    2.5006    0.2062    0.0000 C   0  0  0  0  0  0  0  2  0  0  0  0
    2.5006    1.0312    0.0000 O   0  0  0  0  0  0  0  2  0  0  0  0
    3.2151   -0.2062    0.0000 O   0  0  0  0  0  0  0  2  0  0  0  0
  1  2  2  0        0
  2  3  1  0        0
  2  4  1  0        0
  4  5  1  0        0
  5  6  1  0        0
  6  7  1  0        0
  7  8  1  0        0
  8  9  1  0        0
  9 10  1  0        0
 10 11  2  0        0
 10 12  1  0        0
M  END
$$$$

CDXL12

  7  6  0  0  0  0  0  0  0  0999 V2000
   -2.1434   -0.2062    0.0000 Cl  0  0  0  0  0  0  0  2  0  0  0  0
   -1.4289    0.2062    0.0000 C   0  0  0  0  0  0  0  2  0  0  0  0
   -0.7145   -0.2062    0.0000 C   0  0  0  0  0  0  0  2  0  0  0  0
    0.0000    0.2062    0.0000 S   0  0  0  0  0  0  0  2  0  0  0  0
    0.7145   -0.2062    0.0000 C   0  0  0  0  0  0  0  2  0  0  0  0
    1.4289    0.2062    0.0000 C   0  0  0  0  0  0  0  2  0  0  0  0
    2.1434   -0.2062    0.0000 Cl  0  0  0  0  0  0  0  2  0  0  0  0
  1  2  1  0        0
  2  3  1  0        0
  3  4  1  0        0
  4  5  1  0        0
  5  6  1  0        0
  6  7  1  0        0
M  END
$$$$

CDXL12

 19 18  0  0  0  0  0  0  0  0999 V2000
    5.3585    0.6187    0.0000 O   0  0  0  0  0  0  0  2  0  0  0  0
    5.3585   -0.2062    0.0000 C   0  0  0  0  0  0  0  2  0  0  0  0
    6.0730   -0.6187    0.0000 O   0  0  0  0  0  0  0  2  0  0  0  0
    4.6441   -0.6187    0.0000 C   0  0  0  0  0  0  0  2  0  0  0  0
    3.9296   -0.2062    0.0000 C   0  0  0  0  0  0  0  2  0  0  0  0
    3.2151   -0.6187    0.0000 C   0  0  0  0  0  0  0  2  0  0  0  0
    2.5006   -0.2062    0.0000 C   0  0  0  0  0  0  0  2  0  0  0  0
    1.7862   -0.6187    0.0000 C   0  0  0  0  0  0  0  2  0  0  0  0
    1.0717   -0.2062    0.0000 C   0  0  0  0  0  0  0  2  0  0  0  0
    0.3572   -0.6187    0.0000 C   0  0  0  0  0  0  0  2  0  0  0  0
   -0.3572   -0.2062    0.0000 C   0  0  0  0  0  0  0  2  0  0  0  0
   -1.0717   -0.6187    0.0000 C   0  0  0  0  0  0  0  2  0  0  0  0
   -1.7862   -0.2062    0.0000 C   0  0  0  0  0  0  0  2  0  0  0  0
   -2.5006   -0.6187    0.0000 C   0  0  0  0  0  0  0  2  0  0  0  0
   -3.2151   -0.2062    0.0000 C   0  0  0  0  0  0  0  2  0  0  0  0
   -3.9296   -0.6187    0.0000 C   0  0  0  0  0  0  0  2  0  0  0  0
   -4.6441   -0.2062    0.0000 C   0  0  0  0  0  0  0  2  0  0  0  0
   -5.3585   -0.6187    0.0000 C   0  0  0  0  0  0  0  2  0  0  0  0
   -6.0730   -0.2062    0.0000 C   0  0  0  0  0  0  0  2  0  0  0  0
  1  2  2  0        0
  2  3  1  0        0
  2  4  1  0        0
  4  5  1  0        0
  5  6  1  0        0
  6  7  1  0        0
  7  8  1  0        0
  8  9  1  0        0
  9 10  1  0        0
 10 11  1  0        0
 11 12  1  0        0
 12 13  1  0        0
 13 14  1  0        0
 14 15  1  0        0
 15 16  1  0        0
 16 17  1  0        0
 17 18  1  0        0
 18 19  1  0        0
M  END
$$$$

CDXL12

  5  4  0  0  0  0  0  0  0  0999 V2000
    0.0000    0.8250    0.0000 Br  0  0  0  0  0  0  0  2  0  0  0  0
    0.0000   -0.0000    0.0000 C   0  0  0  0  0  0  0  2  0  0  0  0
    0.8250   -0.0000    0.0000 C   0  0  0  0  0  0  0  2  0  0  0  0
    0.0000   -0.8250    0.0000 C   0  0  0  0  0  0  0  2  0  0  0  0
   -0.8250   -0.0000    0.0000 C   0  0  0  0  0  0  0  2  0  0  0  0
  1  2  1  0        0
  2  3  1  0        0
  2  4  1  0        0
  2  5  1  0        0
M  END
$$$$

CDXL12

  5  4  0  0  0  0  0  0  0  0999 V2000
    0.0000   -0.0000    0.0000 C   0  0  0  0  0  0  0  2  0  0  0  0
    0.0000    0.8250    0.0000 Cl  0  0  0  0  0  0  0  2  0  0  0  0
    0.8250   -0.0000    0.0000 C   0  0  0  0  0  0  0  2  0  0  0  0
    0.0000   -0.8250    0.0000 C   0  0  0  0  0  0  0  2  0  0  0  0
   -0.8250   -0.0000    0.0000 C   0  0  0  0  0  0  0  2  0  0  0  0
  1  2  1  0        0
  1  3  1  0        0
  1  4  1  0        0
  1  5  1  0        0
M  END
$$$$

CDXL12

 11 12  0  0  0  0  0  0  0  0999 V2000
    1.2400    0.4125    0.0000 O   0  0  0  0  0  0  0  2  0  0  0  0
    0.5255   -0.0000    0.0000 C   0  0  0  0  0  0  0  2  0  0  0  0
   -0.1890    0.4125    0.0000 C   0  0  0  0  0  0  0  2  0  0  0  0
   -0.5255   -0.4125    0.0000 C   0  0  0  0  0  0  0  2  0  0  0  0
   -0.1890   -1.2375    0.0000 C   0  0  0  0  0  0  0  2  0  0  0  0
   -0.9034   -0.8250    0.0000 C   0  0  0  0  0  0  0  2  0  0  0  0
   -0.9034   -0.0000    0.0000 C   0  0  0  0  0  0  0  2  0  0  0  0
    0.5255   -0.8250    0.0000 C   0  0  0  0  0  0  0  2  0  0  0  0
   -1.2400   -0.8250    0.0000 C   0  0  0  0  0  0  0  2  0  0  0  0
   -1.2400    0.0000    0.0000 C   0  0  0  0  0  0  0  2  0  0  0  0
   -0.1890    1.2375    0.0000 C   0  0  0  0  0  0  0  2  0  0  0  0
  1  2  1  0        0
  2  3  1  0        0
  3  4  1  0        0
  4  5  1  0        0
  5  6  1  0        0
  6  7  1  0        0
  3  7  1  0        0
  5  8  1  0        0
  2  8  1  0        0
  4  9  1  0        0
  4 10  1  0        0
  3 11  1  0        0
M  END
$$$$

CDXL12

 18 19  0  0  0  0  0  0  0  0999 V2000
    1.4110   -1.3387    0.0000 C   0  0  0  0  0  0  0  2  0  0  0  0
    0.9985   -0.6242    0.0000 C   0  0  0  0  0  0  0  2  0  0  0  0
    0.1735   -0.6242    0.0000 C   0  0  0  0  0  0  0  2  0  0  0  0
    0.1735   -1.4492    0.0000 C   0  0  0  0  0  0  0  2  0  0  0  0
    0.8880   -1.8617    0.0000 O   0  0  0  0  0  0  0  2  0  0  0  0
   -0.5409   -1.8617    0.0000 N   0  0  0  0  0  0  0  2  0  0  0  0
   -1.2554   -1.4492    0.0000 C   0  0  0  0  0  0  0  2  0  0  0  0
   -1.9699   -1.8617    0.0000 O   0  0  0  0  0  0  0  2  0  0  0  0
   -1.2554   -0.6242    0.0000 N   0  0  0  0  0  0  0  2  0  0  0  0
   -0.5409   -0.2117    0.0000 C   0  0  0  0  0  0  0  2  0  0  0  0
   -0.5409    0.6133    0.0000 O   0  0  0  0  0  0  0  2  0  0  0  0
    0.5860    0.0903    0.0000 C   0  0  0  0  0  0  0  2  0  0  0  0
    0.1213    0.7719    0.0000 C   0  0  0  0  0  0  0  2  0  0  0  0
    0.3645    1.5603    0.0000 C   0  0  0  0  0  0  0  2  0  0  0  0
    1.1324    1.8617    0.0000 C   0  0  0  0  0  0  0  2  0  0  0  0
    1.8469    1.4492    0.0000 C   0  0  0  0  0  0  0  2  0  0  0  0
    1.9699    0.6334    0.0000 C   0  0  0  0  0  0  0  2  0  0  0  0
    1.4087    0.0286    0.0000 C   0  0  0  0  0  0  0  2  0  0  0  0
  1  2  1  0        0
  2  3  1  0        0
  3  4  1  0        0
  4  5  2  0        0
  4  6  1  0        0
  6  7  1  0        0
  7  8  2  0        0
  7  9  1  0        0
  9 10  1  0        0
  3 10  1  0        0
 10 11  2  0        0
  3 12  1  0        0
 12 13  2  0        0
 13 14  1  0        0
 14 15  1  0        0
 15 16  1  0        0
 16 17  1  0        0
 17 18  1  0        0
 12 18  1  0        0
M  END
$$$$

CDXL12

 21 22  0  0  0  0  0  0  0  0999 V2000
    0.7145   -2.0625    0.0000 O   0  0  0  0  0  0  0  2  0  0  0  0
    0.7145   -1.2375    0.0000 C   0  0  0  0  0  0  0  2  0  0  0  0
    1.4289   -0.8250    0.0000 O   0  0  0  0  0  0  0  2  0  0  0  0
    2.1434   -1.2375    0.0000 C   0  0  0  0  0  0  0  2  0  0  0  0
    2.8579   -0.8250    0.0000 C   0  0  0  0  0  0  0  2  0  0  0  0
    0.0000   -0.8250    0.0000 C   0  0  0  0  0  0  0  2  0  0  0  0
    0.0000   -1.6500    0.0000 O   0  0  0  0  0  0  0  2  0  0  0  0
   -0.7145   -1.2375    0.0000 C   0  0  0  0  0  0  0  2  0  0  0  0
   -0.7145   -2.0625    0.0000 C   0  0  0  0  0  0  0  2  0  0  0  0
   -1.4289   -2.4750    0.0000 C   0  0  0  0  0  0  0  2  0  0  0  0
   -2.1434   -2.0625    0.0000 C   0  0  0  0  0  0  0  2  0  0  0  0
   -2.1434   -1.2375    0.0000 C   0  0  0  0  0  0  0  2  0  0  0  0
   -1.4289   -0.8250    0.0000 C   0  0  0  0  0  0  0  2  0  0  0  0
   -2.8579   -2.4750    0.0000 Cl  0  0  0  0  0  0  0  2  0  0  0  0
    0.0000    0.0000    0.0000 C   0  0  0  0  0  0  0  2  0  0  0  0
   -0.7145    0.4125    0.0000 C   0  0  0  0  0  0  0  2  0  0  0  0
   -0.7145    1.2375    0.0000 C   0  0  0  0  0  0  0  2  0  0  0  0
    0.0000    1.6500    0.0000 C   0  0  0  0  0  0  0  2  0  0  0  0
    0.7145    1.2375    0.0000 C   0  0  0  0  0  0  0  2  0  0  0  0
    0.7145    0.4125    0.0000 C   0  0  0  0  0  0  0  2  0  0  0  0
    0.0000    2.4750    0.0000 Cl  0  0  0  0  0  0  0  2  0  0  0  0
  1  2  2  0        0
  2  3  1  0        0
  3  4  1  0        0
  4  5  1  0        0
  2  6  1  0        0
  6  7  1  0        0
  6  8  1  0        0
  8  9  4  0        0
  9 10  4  0        0
 10 11  4  0        0
 11 12  4  0        0
 12 13  4  0        0
  8 13  4  0        0
 11 14  1  0        0
  6 15  1  0        0
 15 16  4  0        0
 16 17  4  0        0
 17 18  4  0        0
 18 19  4  0        0
 19 20  4  0        0
 15 20  4  0        0
 18 21  1  0        0
M  END
$$$$

CDXL12

  8  7  0  0  0  0  0  0  0  0999 V2000
    0.0000    1.0313    0.0000 O   0  0  0  0  0  0  0  2  0  0  0  0
    0.0000    0.2062    0.0000 P   0  0  0  0  0  0  0  2  0  0  0  0
    0.7145   -0.2062    0.0000 O   0  0  0  0  0  0  0  2  0  0  0  0
    1.4289    0.2062    0.0000 C   0  0  0  0  0  0  0  2  0  0  0  0
   -0.7145   -0.2062    0.0000 O   0  0  0  0  0  0  0  2  0  0  0  0
   -1.4289    0.2062    0.0000 C   0  0  0  0  0  0  0  2  0  0  0  0
    0.0000   -0.6188    0.0000 O   0  0  0  0  0  0  0  2  0  0  0  0
    0.7145   -1.0313    0.0000 C   0  0  0  0  0  0  0  2  0  0  0  0
  1  2  2  0        0
  2  3  1  0        0
  3  4  1  0        0
  2  5  1  0        0
  5  6  1  0        0
  2  7  1  0        0
  7  8  1  0        0
M  END
$$$$

CDXL12

 34 36  0  0  0  0  0  0  0  0999 V2000
    2.6590    0.0066    0.0000 O   0  0  0  0  0  0  0  2  0  0  0  0
    3.3735   -0.4059    0.0000 C   0  0  0  0  0  0  0  2  0  0  0  0
    3.3735   -1.2309    0.0000 C   0  0  0  0  0  0  0  2  0  0  0  0
    4.0880   -1.6434    0.0000 O   0  0  0  0  0  0  0  2  0  0  0  0
    2.6590   -1.6434    0.0000 C   0  0  0  0  0  0  0  2  0  0  0  0
    2.6590   -2.4684    0.0000 O   0  0  0  0  0  0  0  2  0  0  0  0
    1.9445   -1.2309    0.0000 C   0  0  0  0  0  0  0  2  0  0  0  0
    1.2301   -1.6434    0.0000 O   0  0  0  0  0  0  0  2  0  0  0  0
    1.9445   -0.4059    0.0000 C   0  0  0  0  0  0  0  2  0  0  0  0
    1.2301    0.0066    0.0000 O   0  0  0  0  0  0  0  2  0  0  0  0
    0.5156   -0.4059    0.0000 C   0  0  0  0  0  0  0  2  0  0  0  0
   -0.1989    0.0066    0.0000 C   0  0  0  0  0  0  0  2  0  0  0  0
   -0.9133   -0.4059    0.0000 O   0  0  0  0  0  0  0  2  0  0  0  0
   -1.6278    0.0066    0.0000 C   0  0  0  0  0  0  0  2  0  0  0  0
   -2.3423   -0.4059    0.0000 O   0  0  0  0  0  0  0  2  0  0  0  0
   -3.0567    0.0066    0.0000 C   0  0  0  0  0  0  0  2  0  0  0  0
   -2.7212    0.7603    0.0000 O   0  0  0  0  0  0  0  2  0  0  0  0
   -3.3343    1.3123    0.0000 C   0  0  0  0  0  0  0  2  0  0  0  0
   -4.0488    0.8998    0.0000 C   0  0  0  0  0  0  0  2  0  0  0  0
   -4.8024    1.2354    0.0000 O   0  0  0  0  0  0  0  2  0  0  0  0
   -3.8772    0.0929    0.0000 C   0  0  0  0  0  0  0  2  0  0  0  0
   -4.4293   -0.5202    0.0000 O   0  0  0  0  0  0  0  2  0  0  0  0
   -3.2480    2.1328    0.0000 C   0  0  0  0  0  0  0  2  0  0  0  0
   -2.4944    2.4684    0.0000 O   0  0  0  0  0  0  0  2  0  0  0  0
   -3.0567   -0.8184    0.0000 C   0  0  0  0  0  0  0  2  0  0  0  0
   -3.7712   -1.2309    0.0000 O   0  0  0  0  0  0  0  2  0  0  0  0
   -1.6278    0.8316    0.0000 C   0  0  0  0  0  0  0  2  0  0  0  0
   -2.3423    1.2441    0.0000 O   0  0  0  0  0  0  0  2  0  0  0  0
   -0.9133    1.2441    0.0000 C   0  0  0  0  0  0  0  2  0  0  0  0
   -0.9133    2.0691    0.0000 O   0  0  0  0  0  0  0  2  0  0  0  0
   -0.1989    0.8316    0.0000 C   0  0  0  0  0  0  0  2  0  0  0  0
    0.5156    1.2441    0.0000 O   0  0  0  0  0  0  0  2  0  0  0  0
    4.0880    0.0066    0.0000 C   0  0  0  0  0  0  0  2  0  0  0  0
    4.8024   -0.4059    0.0000 O   0  0  0  0  0  0  0  2  0  0  0  0
  1  2  1  0        0
  2  3  1  0        0
  3  4  1  0        0
  3  5  1  0        0
  5  6  1  0        0
  5  7  1  0        0
  7  8  1  0        0
  7  9  1  0        0
  1  9  1  0        0
  9 10  1  0        0
 10 11  1  0        0
 11 12  1  0        0
 12 13  1  0        0
 13 14  1  0        0
 14 15  1  0        0
 15 16  1  0        0
 16 17  1  0        0
 17 18  1  0        0
 18 19  1  0        0
 19 20  1  0        0
 19 21  1  0        0
 16 21  1  0        0
 21 22  1  0        0
 18 23  1  0        0
 23 24  1  0        0
 16 25  1  0        0
 25 26  1  0        0
 14 27  1  0        0
 27 28  1  0        0
 27 29  1  0        0
 29 30  1  0        0
 29 31  1  0        0
 12 31  1  0        0
 31 32  1  0        0
  2 33  1  0        0
 33 34  1  0        0
M  END
$$$$

CDXL12

  5  4  0  0  0  0  0  0  0  0999 V2000
   -0.3572   -0.2062    0.0000 C   0  0  0  0  0  0  0  2  0  0  0  0
    0.3572   -0.6188    0.0000 C   0  0  0  0  0  0  0  2  0  0  0  0
    1.0717   -0.2062    0.0000 C   0  0  0  0  0  0  0  2  0  0  0  0
   -1.0717   -0.6187    0.0000 C   0  0  0  0  0  0  0  2  0  0  0  0
   -0.3572    0.6188    0.0000 C   0  0  0  0  0  0  0  2  0  0  0  0
  1  2  2  0        0
  2  3  1  0        0
  1  4  1  0        0
  1  5  1  0        0
M  END
$$$$

CDXL12

  5  4  0  0  0  0  0  0  0  0999 V2000
   -1.0717   -0.2062    0.0000 Cl  0  0  0  0  0  0  0  2  0  0  0  0
   -0.3572   -0.6187    0.0000 C   0  0  0  0  0  0  0  2  0  0  0  0
    0.3572   -0.2062    0.0000 C   0  0  0  0  0  0  0  2  0  0  0  0
    0.3572    0.6187    0.0000 C   0  0  0  0  0  0  0  2  0  0  0  0
    1.0717   -0.6187    0.0000 C   0  0  0  0  0  0  0  2  0  0  0  0
  1  2  1  0        0
  2  3  1  0        0
  3  4  1  0        0
  3  5  1  0        0
M  END
$$$$

CDXL12

  5  4  0  0  0  0  0  0  0  0999 V2000
   -1.0717   -0.6187    0.0000 C   0  0  0  0  0  0  0  2  0  0  0  0
   -0.3572   -0.2062    0.0000 C   0  0  0  0  0  0  0  2  0  0  0  0
   -0.3572    0.6188    0.0000 C   0  0  0  0  0  0  0  2  0  0  0  0
    0.3572   -0.6188    0.0000 C   0  0  0  0  0  0  0  2  0  0  0  0
    1.0717   -0.2062    0.0000 Cl  0  0  0  0  0  0  0  2  0  0  0  0
  1  2  1  0        0
  2  3  1  0        0
  2  4  2  0        0
  4  5  1  0        0
M  END
$$$$

CDXL12

  5  4  0  0  0  0  0  0  0  0999 V2000
   -0.3572   -0.2062    0.0000 C   0  0  0  0  0  0  0  2  0  0  0  0
    0.3572   -0.6188    0.0000 C   0  0  0  0  0  0  0  2  0  0  0  0
    1.0717   -0.2062    0.0000 C   0  0  0  0  0  0  0  2  0  0  0  0
   -1.0717   -0.6187    0.0000 C   0  0  0  0  0  0  0  2  0  0  0  0
   -0.3572    0.6188    0.0000 I   0  0  0  0  0  0  0  2  0  0  0  0
  1  2  1  0        0
  2  3  1  0        0
  1  4  1  0        0
  1  5  1  0        0
M  END
$$$$

CDXL12

  6  5  0  0  0  0  0  0  0  0999 V2000
    0.3572   -0.2062    0.0000 C   0  0  0  0  0  0  0  2  0  0  0  0
   -0.3572    0.2062    0.0000 C   0  0  0  0  0  0  0  2  0  0  0  0
   -1.0717   -0.2062    0.0000 C   0  0  0  0  0  0  0  2  0  0  0  0
   -0.3572    1.0313    0.0000 C   0  0  0  0  0  0  0  2  0  0  0  0
    1.0717    0.2062    0.0000 C   0  0  0  0  0  0  0  2  0  0  0  0
    0.3572   -1.0313    0.0000 C   0  0  0  0  0  0  0  2  0  0  0  0
  1  2  1  0        0
  2  3  2  0        0
  2  4  1  0        0
  1  5  2  0        0
  1  6  1  0        0
M  END
$$$$

CDXL12

  6  5  0  0  0  0  0  0  0  0999 V2000
    0.3572    1.0313    0.0000 O   0  0  0  0  0  0  0  2  0  0  0  0
    0.3572    0.2062    0.0000 C   0  0  0  0  0  0  0  2  0  0  0  0
   -0.3572   -0.2062    0.0000 C   0  0  0  0  0  0  0  2  0  0  0  0
   -0.3572   -1.0313    0.0000 O   0  0  0  0  0  0  0  2  0  0  0  0
   -1.0717    0.2062    0.0000 C   0  0  0  0  0  0  0  2  0  0  0  0
    1.0717   -0.2062    0.0000 C   0  0  0  0  0  0  0  2  0  0  0  0
  1  2  2  0        0
  2  3  1  0        0
  3  4  1  0        0
  3  5  1  0        0
  2  6  1  0        0
M  END
$$$$

CDXL12

 12 12  0  0  0  0  0  0  0  0999 V2000
    0.0000   -0.4678    0.0000 S   0  0  0  0  0  0  0  2  0  0  0  0
    0.4125    0.2467    0.0000 O   0  0  0  0  0  0  0  2  0  0  0  0
   -0.4125   -1.1822    0.0000 O   0  0  0  0  0  0  0  2  0  0  0  0
    0.7145   -0.8803    0.0000 O   0  0  0  0  0  0  0  2  0  0  0  0
    1.4289   -0.4678    0.0000 C   0  0  0  0  0  0  0  2  0  0  0  0
    2.1434   -0.8803    0.0000 C   0  0  0  0  0  0  0  2  0  0  0  0
   -0.7145   -0.0553    0.0000 C   0  0  0  0  0  0  0  2  0  0  0  0
   -1.4289   -0.4678    0.0000 C   0  0  0  0  0  0  0  2  0  0  0  0
   -2.1434   -0.0553    0.0000 C   0  0  0  0  0  0  0  2  0  0  0  0
   -2.1434    0.7697    0.0000 C   0  0  0  0  0  0  0  2  0  0  0  0
   -1.4289    1.1822    0.0000 C   0  0  0  0  0  0  0  2  0  0  0  0
   -0.7145    0.7697    0.0000 C   0  0  0  0  0  0  0  2  0  0  0  0
  1  2  2  0        0
  1  3  2  0        0
  1  4  1  0        0
  4  5  1  0        0
  5  6  1  0        0
  1  7  1  0        0
  7  8  4  0        0
  8  9  4  0        0
  9 10  4  0        0
 10 11  4  0        0
 11 12  4  0        0
  7 12  4  0        0
M  END
$$$$

CDXL12

 19 20  0  0  0  0  0  0  0  0999 V2000
    1.7862    0.6740    0.0000 C   0  0  0  0  0  0  0  2  0  0  0  0
    2.5006    0.2615    0.0000 C   0  0  0  0  0  0  0  2  0  0  0  0
    2.5006   -0.5635    0.0000 C   0  0  0  0  0  0  0  2  0  0  0  0
    3.2151   -0.9760    0.0000 N   0  0  0  0  0  0  0  2  0  0  0  0
    1.7862   -0.9760    0.0000 C   0  0  0  0  0  0  0  2  0  0  0  0
    1.0717   -0.5635    0.0000 C   0  0  0  0  0  0  0  2  0  0  0  0
    1.0717    0.2615    0.0000 C   0  0  0  0  0  0  0  2  0  0  0  0
    0.3572    0.6740    0.0000 S   0  0  0  0  0  0  0  2  0  0  0  0
   -0.0553   -0.0405    0.0000 O   0  0  0  0  0  0  0  2  0  0  0  0
    0.7697    1.3885    0.0000 O   0  0  0  0  0  0  0  2  0  0  0  0
   -0.3572    1.0865    0.0000 N   0  0  0  0  0  0  0  2  0  0  0  0
   -1.0717    0.6740    0.0000 C   0  0  0  0  0  0  0  2  0  0  0  0
   -1.0717   -0.1510    0.0000 N   0  0  0  0  0  0  0  2  0  0  0  0
   -1.7862   -0.5635    0.0000 C   0  0  0  0  0  0  0  2  0  0  0  0
   -1.7862   -1.3885    0.0000 C   0  0  0  0  0  0  0  2  0  0  0  0
   -2.5006   -0.1510    0.0000 N   0  0  0  0  0  0  0  2  0  0  0  0
   -2.5006    0.6740    0.0000 C   0  0  0  0  0  0  0  2  0  0  0  0
   -3.2151    1.0865    0.0000 C   0  0  0  0  0  0  0  2  0  0  0  0
   -1.7862    1.0865    0.0000 C   0  0  0  0  0  0  0  2  0  0  0  0
  1  2  4  0        0
  2  3  4  0        0
  3  4  1  0        0
  3  5  4  0        0
  5  6  4  0        0
  6  7  4  0        0
  1  7  4  0        0
  7  8  1  0        0
  8  9  2  0        0
  8 10  2  0        0
  8 11  1  0        0
 11 12  1  0        0
 12 13  4  0        0
 13 14  4  0        0
 14 15  1  0        0
 14 16  4  0        0
 16 17  4  0        0
 17 18  1  0        0
 17 19  4  0        0
 12 19  4  0        0
M  END
$$$$

CDXL12

  9  8  0  0  0  0  0  0  0  0999 V2000
   -1.0717    0.2062    0.0000 C   0  0  0  0  0  0  0  2  0  0  0  0
   -1.7862   -0.2062    0.0000 O   0  0  0  0  0  0  0  2  0  0  0  0
   -0.3572   -0.2062    0.0000 N   0  0  0  0  0  0  0  2  0  0  0  0
    0.3572    0.2062    0.0000 C   0  0  0  0  0  0  0  2  0  0  0  0
    0.3572    1.0313    0.0000 O   0  0  0  0  0  0  0  2  0  0  0  0
    1.0717   -0.2062    0.0000 C   0  0  0  0  0  0  0  2  0  0  0  0
    1.7862    0.2062    0.0000 Cl  0  0  0  0  0  0  0  2  0  0  0  0
    1.0717   -1.0313    0.0000 Cl  0  0  0  0  0  0  0  2  0  0  0  0
    1.7862   -0.6188    0.0000 Cl  0  0  0  0  0  0  0  2  0  0  0  0
  1  2  2  0        0
  1  3  1  0        0
  3  4  1  0        0
  4  5  1  0        0
  4  6  1  0        0
  6  7  1  0        0
  6  8  1  0        0
  6  9  1  0        0
M  END
$$$$

CDXL12

  8  7  0  0  0  0  0  0  0  0999 V2000
    0.0000   -1.0313    0.0000 C   0  0  0  0  0  0  0  2  0  0  0  0
    0.0000   -0.2062    0.0000 C   0  0  0  0  0  0  0  2  0  0  0  0
   -0.7145    0.2062    0.0000 C   0  0  0  0  0  0  0  2  0  0  0  0
   -1.4289   -0.2062    0.0000 O   0  0  0  0  0  0  0  2  0  0  0  0
   -0.7145    1.0313    0.0000 O   0  0  0  0  0  0  0  2  0  0  0  0
    0.7145    0.2062    0.0000 C   0  0  0  0  0  0  0  2  0  0  0  0
    1.4289   -0.2062    0.0000 O   0  0  0  0  0  0  0  2  0  0  0  0
    0.7145    1.0313    0.0000 O   0  0  0  0  0  0  0  2  0  0  0  0
  1  2  1  0        0
  2  3  1  0        0
  3  4  1  0        0
  3  5  2  0        0
  2  6  1  0        0
  6  7  1  0        0
  6  8  2  0        0
M  END
$$$$

CDXL12

 12 12  0  0  0  0  0  0  0  0999 V2000
   -0.3572    1.2375    0.0000 O   0  0  0  0  0  0  0  2  0  0  0  0
   -0.3572    0.4125    0.0000 C   0  0  0  0  0  0  0  2  0  0  0  0
   -1.0717    0.0000    0.0000 O   0  0  0  0  0  0  0  2  0  0  0  0
   -1.0717   -0.8250    0.0000 C   0  0  0  0  0  0  0  2  0  0  0  0
   -0.3572   -1.2375    0.0000 C   0  0  0  0  0  0  0  2  0  0  0  0
    0.3572   -0.8250    0.0000 C   0  0  0  0  0  0  0  2  0  0  0  0
    1.0717   -1.2375    0.0000 O   0  0  0  0  0  0  0  2  0  0  0  0
    0.3572   -0.0000    0.0000 C   0  0  0  0  0  0  0  2  0  0  0  0
    1.0717    0.4125    0.0000 C   0  0  0  0  0  0  0  2  0  0  0  0
    1.0717    1.2375    0.0000 O   0  0  0  0  0  0  0  2  0  0  0  0
    1.7862   -0.0000    0.0000 C   0  0  0  0  0  0  0  2  0  0  0  0
   -1.7862   -1.2375    0.0000 C   0  0  0  0  0  0  0  2  0  0  0  0
  1  2  2  0        0
  2  3  1  0        0
  3  4  1  0        0
  4  5  2  0        0
  5  6  1  0        0
  6  7  2  0        0
  6  8  1  0        0
  2  8  1  0        0
  8  9  1  0        0
  9 10  2  0        0
  9 11  1  0        0
  4 12  1  0        0
M  END
$$$$

CDXL12

 32 35  0  0  0  0  0  0  0  0999 V2000
   -0.3572   -0.6187    0.0000 O   0  0  0  0  0  0  0  2  0  0  0  0
   -0.3572    0.2063    0.0000 C   0  0  0  0  0  0  0  2  0  0  0  0
   -1.0717    0.6188    0.0000 C   0  0  0  0  0  0  0  2  0  0  0  0
   -1.7862    0.2063    0.0000 C   0  0  0  0  0  0  0  2  0  0  0  0
   -1.7862   -0.6187    0.0000 O   0  0  0  0  0  0  0  2  0  0  0  0
   -2.5006    0.6188    0.0000 C   0  0  0  0  0  0  0  2  0  0  0  0
   -2.5006    1.4438    0.0000 C   0  0  0  0  0  0  0  2  0  0  0  0
   -3.2151    1.8563    0.0000 O   0  0  0  0  0  0  0  2  0  0  0  0
   -1.7862    1.8563    0.0000 C   0  0  0  0  0  0  0  2  0  0  0  0
   -1.0717    1.4438    0.0000 C   0  0  0  0  0  0  0  2  0  0  0  0
   -0.3572    1.8562    0.0000 O   0  0  0  0  0  0  0  2  0  0  0  0
    0.3572    1.4437    0.0000 C   0  0  0  0  0  0  0  2  0  0  0  0
    1.0717    1.8562    0.0000 C   0  0  0  0  0  0  0  2  0  0  0  0
    1.7862    1.4437    0.0000 C   0  0  0  0  0  0  0  2  0  0  0  0
    2.5006    1.8562    0.0000 C   0  0  0  0  0  0  0  2  0  0  0  0
    3.2151    1.4437    0.0000 O   0  0  0  0  0  0  0  2  0  0  0  0
    2.5006    2.6812    0.0000 C   0  0  0  0  0  0  0  2  0  0  0  0
    3.2151    3.0937    0.0000 O   0  0  0  0  0  0  0  2  0  0  0  0
    1.7862    3.0937    0.0000 C   0  0  0  0  0  0  0  2  0  0  0  0
    1.0717    2.6812    0.0000 C   0  0  0  0  0  0  0  2  0  0  0  0
    0.3572    0.6188    0.0000 C   0  0  0  0  0  0  0  2  0  0  0  0
    1.0717    0.2063    0.0000 O   0  0  0  0  0  0  0  2  0  0  0  0
    1.0717   -0.6187    0.0000 C   0  0  0  0  0  0  0  2  0  0  0  0
    1.7862   -1.0312    0.0000 C   0  0  0  0  0  0  0  2  0  0  0  0
    2.5006   -0.6187    0.0000 O   0  0  0  0  0  0  0  2  0  0  0  0
    1.7862   -1.8562    0.0000 C   0  0  0  0  0  0  0  2  0  0  0  0
    2.5006   -2.2687    0.0000 O   0  0  0  0  0  0  0  2  0  0  0  0
    1.0717   -2.2687    0.0000 C   0  0  0  0  0  0  0  2  0  0  0  0
    1.0717   -3.0937    0.0000 O   0  0  0  0  0  0  0  2  0  0  0  0
    0.3572   -1.8562    0.0000 C   0  0  0  0  0  0  0  2  0  0  0  0
   -0.3572   -2.2687    0.0000 C   0  0  0  0  0  0  0  2  0  0  0  0
    0.3572   -1.0312    0.0000 O   0  0  0  0  0  0  0  2  0  0  0  0
  1  2  2  0        0
  2  3  1  0        0
  3  4  4  0        0
  4  5  1  0        0
  4  6  4  0        0
  6  7  4  0        0
  7  8  1  0        0
  7  9  4  0        0
  9 10  4  0        0
  3 10  4  0        0
 10 11  1  0        0
 11 12  1  0        0
 12 13  1  0        0
 13 14  4  0        0
 14 15  4  0        0
 15 16  1  0        0
 15 17  4  0        0
 17 18  1  0        0
 17 19  4  0        0
 19 20  4  0        0
 13 20  4  0        0
 12 21  2  0        0
  2 21  1  0        0
 21 22  1  0        0
 22 23  1  0        0
 23 24  1  0        0
 24 25  1  0        0
 24 26  1  0        0
 26 27  1  0        0
 26 28  1  0        0
 28 29  1  0        0
 28 30  1  0        0
 30 31  1  0        0
 30 32  1  0        0
 23 32  1  0        0
M  END
$$$$

CDXL12

 24 27  0  0  0  0  0  0  0  0999 V2000
    2.8579    0.2062    0.0000 C   0  0  0  0  0  0  0  2  0  0  0  0
    2.1434    0.6187    0.0000 C   0  0  0  0  0  0  0  2  0  0  0  0
    1.4289    0.2062    0.0000 C   0  0  0  0  0  0  0  2  0  0  0  0
    1.4289   -0.6188    0.0000 C   0  0  0  0  0  0  0  2  0  0  0  0
    0.7145   -1.0312    0.0000 N   0  0  0  0  0  0  0  2  0  0  0  0
    1.0565   -0.5156    0.0000 C   0  0  0  0  0  0  0  2  0  0  0  0
    1.0565    0.1031    0.0000 C   0  0  0  0  0  0  0  2  0  0  0  0
    0.7145    0.6187    0.0000 C   0  0  0  0  0  0  0  2  0  0  0  0
    0.0000    0.2062    0.0000 C   0  0  0  0  0  0  0  2  0  0  0  0
    0.0000   -0.6188    0.0000 C   0  0  0  0  0  0  0  2  0  0  0  0
   -0.7145   -1.0312    0.0000 C   0  0  0  0  0  0  0  2  0  0  0  0
   -0.7145   -1.8562    0.0000 O   0  0  0  0  0  0  0  2  0  0  0  0
   -1.4289   -0.6188    0.0000 C   0  0  0  0  0  0  0  2  0  0  0  0
   -2.1434   -1.0312    0.0000 C   0  0  0  0  0  0  0  2  0  0  0  0
   -2.8579   -0.6188    0.0000 C   0  0  0  0  0  0  0  2  0  0  0  0
   -2.8579    0.2062    0.0000 N   0  0  0  0  0  0  0  2  0  0  0  0
   -2.1434    0.6187    0.0000 C   0  0  0  0  0  0  0  2  0  0  0  0
   -2.1434    1.4437    0.0000 C   0  0  0  0  0  0  0  2  0  0  0  0
   -1.4289    1.8562    0.0000 C   0  0  0  0  0  0  0  2  0  0  0  0
   -0.7145    1.4437    0.0000 C   0  0  0  0  0  0  0  2  0  0  0  0
    0.0000    1.8562    0.0000 O   0  0  0  0  0  0  0  2  0  0  0  0
    0.7145    1.4437    0.0000 C   0  0  0  0  0  0  0  2  0  0  0  0
   -0.7145    0.6187    0.0000 C   0  0  0  0  0  0  0  2  0  0  0  0
   -1.4289    0.2062    0.0000 C   0  0  0  0  0  0  0  2  0  0  0  0
  1  2  1  0        0
  2  3  1  0        0
  3  4  1  0        0
  4  5  1  0        0
  5  6  1  0        0
  6  7  1  0        0
  7  8  1  0        0
  3  8  1  0        0
  8  9  1  0        0
  9 10  1  0        0
  5 10  1  0        0
 10 11  1  0        0
 11 12  1  0        0
 11 13  1  0        0
 13 14  4  0        0
 14 15  4  0        0
 15 16  4  0        0
 16 17  4  0        0
 17 18  4  0        0
 18 19  4  0        0
 19 20  4  0        0
 20 21  1  0        0
 21 22  1  0        0
 20 23  4  0        0
 23 24  4  0        0
 13 24  4  0        0
 17 24  4  0        0
M  END
$$$$

CDXL12

 26 28  0  0  0  0  0  0  0  0999 V2000
   -2.1434   -0.6188    0.0000 C   0  0  0  0  0  0  0  2  0  0  0  0
   -2.8579   -1.0313    0.0000 C   0  0  0  0  0  0  0  2  0  0  0  0
   -2.8579   -1.8563    0.0000 C   0  0  0  0  0  0  0  2  0  0  0  0
   -2.1434   -2.2687    0.0000 C   0  0  0  0  0  0  0  2  0  0  0  0
   -1.4289   -1.8563    0.0000 C   0  0  0  0  0  0  0  2  0  0  0  0
   -0.7145   -2.2687    0.0000 C   0  0  0  0  0  0  0  2  0  0  0  0
   -0.7145   -3.0938    0.0000 O   0  0  0  0  0  0  0  2  0  0  0  0
    0.0000   -1.8563    0.0000 O   0  0  0  0  0  0  0  2  0  0  0  0
    0.7145   -2.2687    0.0000 C   0  0  0  0  0  0  0  2  0  0  0  0
    1.4289   -1.8563    0.0000 C   0  0  0  0  0  0  0  2  0  0  0  0
    2.1434   -2.2687    0.0000 C   0  0  0  0  0  0  0  2  0  0  0  0
    2.8579   -1.8563    0.0000 C   0  0  0  0  0  0  0  2  0  0  0  0
    2.8579   -1.0313    0.0000 C   0  0  0  0  0  0  0  2  0  0  0  0
    2.1434   -0.6188    0.0000 C   0  0  0  0  0  0  0  2  0  0  0  0
    1.4289   -1.0313    0.0000 C   0  0  0  0  0  0  0  2  0  0  0  0
   -1.4289   -1.0313    0.0000 C   0  0  0  0  0  0  0  2  0  0  0  0
   -0.7145   -0.6188    0.0000 C   0  0  0  0  0  0  0  2  0  0  0  0
    0.0000   -1.0313    0.0000 O   0  0  0  0  0  0  0  2  0  0  0  0
   -0.7145    0.2062    0.0000 O   0  0  0  0  0  0  0  2  0  0  0  0
    0.0000    0.6188    0.0000 C   0  0  0  0  0  0  0  2  0  0  0  0
    0.0000    1.4438    0.0000 C   0  0  0  0  0  0  0  2  0  0  0  0
    0.7145    1.8563    0.0000 C   0  0  0  0  0  0  0  2  0  0  0  0
    0.7145    2.6812    0.0000 C   0  0  0  0  0  0  0  2  0  0  0  0
    0.0000    3.0938    0.0000 C   0  0  0  0  0  0  0  2  0  0  0  0
   -0.7145    2.6812    0.0000 C   0  0  0  0  0  0  0  2  0  0  0  0
   -0.7145    1.8563    0.0000 C   0  0  0  0  0  0  0  2  0  0  0  0
  1  2  4  0        0
  2  3  4  0        0
  3  4  4  0        0
  4  5  4  0        0
  5  6  1  0        0
  6  7  2  0        0
  6  8  1  0        0
  8  9  1  0        0
  9 10  1  0        0
 10 11  4  0        0
 11 12  4  0        0
 12 13  4  0        0
 13 14  4  0        0
 14 15  4  0        0
 10 15  4  0        0
  5 16  4  0        0
  1 16  4  0        0
 16 17  1  0        0
 17 18  2  0        0
 17 19  1  0        0
 19 20  1  0        0
 20 21  1  0        0
 21 22  4  0        0
 22 23  4  0        0
 23 24  4  0        0
 24 25  4  0        0
 25 26  4  0        0
 21 26  4  0        0
M  END
$$$$

CDXL12

 17 17  0  0  0  0  0  0  0  0999 V2000
    2.0881    0.8250    0.0000 C   0  0  0  0  0  0  0  2  0  0  0  0
    1.3737    0.4125    0.0000 C   0  0  0  0  0  0  0  2  0  0  0  0
    1.3737   -0.4125    0.0000 N   0  0  0  0  0  0  0  2  0  0  0  0
    1.7862   -1.1270    0.0000 H   0  0  0  0  0  0  0  2  0  0  0  0
    2.1987   -0.4125    0.0000 Cl  0  0  0  0  0  0  0  2  0  0  0  0
    0.6592   -0.8250    0.0000 C   0  0  0  0  0  0  0  2  0  0  0  0
   -0.0553   -0.4125    0.0000 C   0  0  0  0  0  0  0  2  0  0  0  0
   -0.7697   -0.8250    0.0000 C   0  0  0  0  0  0  0  2  0  0  0  0
   -0.7697   -1.6500    0.0000 O   0  0  0  0  0  0  0  2  0  0  0  0
   -0.0553    0.4125    0.0000 C   0  0  0  0  0  0  0  2  0  0  0  0
   -0.7697    0.8250    0.0000 C   0  0  0  0  0  0  0  2  0  0  0  0
   -1.4842    0.4125    0.0000 N   0  0  0  0  0  0  0  2  0  0  0  0
   -1.8967   -0.3020    0.0000 H   0  0  0  0  0  0  0  2  0  0  0  0
   -1.0717   -0.3020    0.0000 H   0  0  0  0  0  0  0  2  0  0  0  0
   -2.1987    0.8250    0.0000 Cl  0  0  0  0  0  0  0  2  0  0  0  0
    0.6592    0.8250    0.0000 C   0  0  0  0  0  0  0  2  0  0  0  0
    0.6592    1.6500    0.0000 O   0  0  0  0  0  0  0  2  0  0  0  0
  1  2  1  0        0
  2  3  1  0        0
  3  4  1  0        0
  3  5  1  0        0
  3  6  1  0        0
  6  7  1  0        0
  7  8  1  0        0
  8  9  1  0        0
  7 10  1  0        0
 10 11  1  0        0
 11 12  1  0        0
 12 13  1  0        0
 12 14  1  0        0
 12 15  1  0        0
 10 16  1  0        0
  2 16  1  0        0
 16 17  1  0        0
M  END
$$$$

CDXL12

 12 12  0  0  0  0  0  0  0  0999 V2000
   -1.0717   -0.8250    0.0000 C   0  0  0  0  0  0  0  2  0  0  0  0
   -0.3572   -1.2375    0.0000 C   0  0  0  0  0  0  0  2  0  0  0  0
    0.3572   -0.8250    0.0000 C   0  0  0  0  0  0  0  2  0  0  0  0
    1.0717   -1.2375    0.0000 O   0  0  0  0  0  0  0  2  0  0  0  0
    1.7862   -0.8250    0.0000 C   0  0  0  0  0  0  0  2  0  0  0  0
    0.3572    0.0000    0.0000 C   0  0  0  0  0  0  0  2  0  0  0  0
    1.0717    0.4125    0.0000 C   0  0  0  0  0  0  0  2  0  0  0  0
    1.7862    0.8250    0.0000 N   0  0  0  0  0  0  0  2  0  0  0  0
   -0.3572    0.4125    0.0000 C   0  0  0  0  0  0  0  2  0  0  0  0
   -0.3572    1.2375    0.0000 O   0  0  0  0  0  0  0  2  0  0  0  0
   -1.0717   -0.0000    0.0000 N   0  0  0  0  0  0  0  2  0  0  0  0
   -1.7862    0.4125    0.0000 C   0  0  0  0  0  0  0  2  0  0  0  0
  1  2  2  0        0
  2  3  1  0        0
  3  4  1  0        0
  4  5  1  0        0
  3  6  2  0        0
  6  7  1  0        0
  7  8  3  0        0
  6  9  1  0        0
  9 10  2  0        0
  9 11  1  0        0
  1 11  1  0        0
 11 12  1  0        0
M  END
$$$$

CDXL12

  9  9  0  0  0  0  0  0  0  0999 V2000
   -0.3572    0.4125    0.0000 C   0  0  0  0  0  0  0  2  0  0  0  0
    0.3572    0.0000    0.0000 C   0  0  0  0  0  0  0  2  0  0  0  0
    0.3572   -0.8250    0.0000 C   0  0  0  0  0  0  0  2  0  0  0  0
   -0.3572   -1.2375    0.0000 C   0  0  0  0  0  0  0  2  0  0  0  0
   -1.0717   -0.8250    0.0000 C   0  0  0  0  0  0  0  2  0  0  0  0
   -1.0717    0.0000    0.0000 C   0  0  0  0  0  0  0  2  0  0  0  0
    1.0717   -1.2375    0.0000 C   0  0  0  0  0  0  0  2  0  0  0  0
    1.0717    0.4125    0.0000 C   0  0  0  0  0  0  0  2  0  0  0  0
   -0.3572    1.2375    0.0000 C   0  0  0  0  0  0  0  2  0  0  0  0
  1  2  4  0        0
  2  3  4  0        0
  3  4  4  0        0
  4  5  4  0        0
  5  6  4  0        0
  1  6  4  0        0
  3  7  1  0        0
  2  8  1  0        0
  1  9  1  0        0
M  END
$$$$

CDXL12

  9  9  0  0  0  0  0  0  0  0999 V2000
   -0.3572    1.2375    0.0000 O   0  0  0  0  0  0  0  2  0  0  0  0
   -0.3572    0.4125    0.0000 C   0  0  0  0  0  0  0  2  0  0  0  0
    0.3572    0.0000    0.0000 C   0  0  0  0  0  0  0  2  0  0  0  0
    0.3572   -0.8250    0.0000 C   0  0  0  0  0  0  0  2  0  0  0  0
   -0.3572   -1.2375    0.0000 C   0  0  0  0  0  0  0  2  0  0  0  0
   -1.0717   -0.8250    0.0000 C   0  0  0  0  0  0  0  2  0  0  0  0
   -1.0717    0.0000    0.0000 C   0  0  0  0  0  0  0  2  0  0  0  0
    1.0717   -1.2375    0.0000 C   0  0  0  0  0  0  0  2  0  0  0  0
    1.0717    0.4125    0.0000 C   0  0  0  0  0  0  0  2  0  0  0  0
  1  2  1  0        0
  2  3  4  0        0
  3  4  4  0        0
  4  5  4  0        0
  5  6  4  0        0
  6  7  4  0        0
  2  7  4  0        0
  4  8  1  0        0
  3  9  1  0        0
M  END
$$$$

CDXL12

 10 10  0  0  0  0  0  0  0  0999 V2000
    1.4289    0.4125    0.0000 O   0  0  0  0  0  0  0  2  0  0  0  0
    0.7145    0.0000    0.0000 C   0  0  0  0  0  0  0  2  0  0  0  0
    0.7145   -0.8250    0.0000 C   0  0  0  0  0  0  0  2  0  0  0  0
    0.0000   -1.2375    0.0000 C   0  0  0  0  0  0  0  2  0  0  0  0
   -0.7145   -0.8250    0.0000 C   0  0  0  0  0  0  0  2  0  0  0  0
   -0.7145    0.0000    0.0000 C   0  0  0  0  0  0  0  2  0  0  0  0
    0.0000    0.4125    0.0000 C   0  0  0  0  0  0  0  2  0  0  0  0
    0.0000    1.2375    0.0000 C   0  0  0  0  0  0  0  2  0  0  0  0
   -1.4289   -1.2375    0.0000 C   0  0  0  0  0  0  0  2  0  0  0  0
    1.4289   -1.2375    0.0000 C   0  0  0  0  0  0  0  2  0  0  0  0
  1  2  1  0        0
  2  3  4  0        0
  3  4  4  0        0
  4  5  4  0        0
  5  6  4  0        0
  6  7  4  0        0
  2  7  4  0        0
  7  8  1  0        0
  5  9  1  0        0
  3 10  1  0        0
M  END
$$$$

CDXL12

 10 10  0  0  0  0  0  0  0  0999 V2000
    0.0000   -0.0000    0.0000 C   0  0  0  0  0  0  0  2  0  0  0  0
    0.0000    0.8250    0.0000 C   0  0  0  0  0  0  0  2  0  0  0  0
   -0.7145    1.2375    0.0000 C   0  0  0  0  0  0  0  2  0  0  0  0
   -1.4289    0.8250    0.0000 C   0  0  0  0  0  0  0  2  0  0  0  0
   -1.4289   -0.0000    0.0000 C   0  0  0  0  0  0  0  2  0  0  0  0
   -0.7145   -0.4125    0.0000 C   0  0  0  0  0  0  0  2  0  0  0  0
    0.7145    1.2375    0.0000 C   0  0  0  0  0  0  0  2  0  0  0  0
    0.7145   -0.4125    0.0000 C   0  0  0  0  0  0  0  2  0  0  0  0
    0.7145   -1.2375    0.0000 C   0  0  0  0  0  0  0  2  0  0  0  0
    1.4289    0.0000    0.0000 C   0  0  0  0  0  0  0  2  0  0  0  0
  1  2  4  0        0
  2  3  4  0        0
  3  4  4  0        0
  4  5  4  0        0
  5  6  4  0        0
  1  6  4  0        0
  2  7  1  0        0
  1  8  1  0        0
  8  9  1  0        0
  8 10  1  0        0
M  END
$$$$

CDXL12

 12 12  0  0  0  0  0  0  0  0999 V2000
    0.7145   -1.6500    0.0000 O   0  0  0  0  0  0  0  2  0  0  0  0
    0.7145   -0.8250    0.0000 N   0  0  0  0  0  0  0  2  0  0  0  0
    1.4289   -0.4125    0.0000 O   0  0  0  0  0  0  0  2  0  0  0  0
    0.0000   -0.4125    0.0000 C   0  0  0  0  0  0  0  2  0  0  0  0
   -0.7145   -0.8250    0.0000 C   0  0  0  0  0  0  0  2  0  0  0  0
   -1.4289   -0.4125    0.0000 C   0  0  0  0  0  0  0  2  0  0  0  0
   -1.4289    0.4125    0.0000 C   0  0  0  0  0  0  0  2  0  0  0  0
   -0.7145    0.8250    0.0000 C   0  0  0  0  0  0  0  2  0  0  0  0
    0.0000    0.4125    0.0000 C   0  0  0  0  0  0  0  2  0  0  0  0
    0.7145    0.8250    0.0000 N   0  0  0  0  0  0  0  2  0  0  0  0
    0.7145    1.6500    0.0000 O   0  0  0  0  0  0  0  2  0  0  0  0
    1.4289    0.4125    0.0000 O   0  0  0  0  0  0  0  2  0  0  0  0
  1  2  2  0        0
  2  3  2  0        0
  2  4  1  0        0
  4  5  4  0        0
  5  6  4  0        0
  6  7  4  0        0
  7  8  4  0        0
  8  9  4  0        0
  4  9  4  0        0
  9 10  1  0        0
 10 11  2  0        0
 10 12  2  0        0
M  END
$$$$

CDXL12

 15 15  0  0  0  0  0  0  0  0999 V2000
   -1.4289    1.6500    0.0000 O   0  0  0  0  0  0  0  2  0  0  0  0
   -1.4289    0.8250    0.0000 C   0  0  0  0  0  0  0  2  0  0  0  0
   -2.1434    0.4125    0.0000 O   0  0  0  0  0  0  0  2  0  0  0  0
   -0.7145    0.4125    0.0000 C   0  0  0  0  0  0  0  2  0  0  0  0
   -0.7145   -0.4125    0.0000 C   0  0  0  0  0  0  0  2  0  0  0  0
    0.0000   -0.8250    0.0000 C   0  0  0  0  0  0  0  2  0  0  0  0
    0.7145   -0.4125    0.0000 C   0  0  0  0  0  0  0  2  0  0  0  0
    0.7145    0.4125    0.0000 C   0  0  0  0  0  0  0  2  0  0  0  0
    1.4289    0.8250    0.0000 C   0  0  0  0  0  0  0  2  0  0  0  0
    1.4289    1.6500    0.0000 O   0  0  0  0  0  0  0  2  0  0  0  0
    2.1434    0.4125    0.0000 O   0  0  0  0  0  0  0  2  0  0  0  0
    0.0000    0.8250    0.0000 C   0  0  0  0  0  0  0  2  0  0  0  0
    1.4289   -0.8250    0.0000 C   0  0  0  0  0  0  0  2  0  0  0  0
    1.4289   -1.6500    0.0000 O   0  0  0  0  0  0  0  2  0  0  0  0
    2.1434   -0.4125    0.0000 O   0  0  0  0  0  0  0  2  0  0  0  0
  1  2  2  0        0
  2  3  1  0        0
  2  4  1  0        0
  4  5  4  0        0
  5  6  4  0        0
  6  7  4  0        0
  7  8  4  0        0
  8  9  1  0        0
  9 10  2  0        0
  9 11  1  0        0
  8 12  4  0        0
  4 12  4  0        0
  7 13  1  0        0
 13 14  2  0        0
 13 15  1  0        0
M  END
$$$$

CDXL12

 15 15  0  0  0  0  0  0  0  0999 V2000
    1.4289    1.6500    0.0000 O   0  0  0  0  0  0  0  2  0  0  0  0
    1.4289    0.8250    0.0000 C   0  0  0  0  0  0  0  2  0  0  0  0
    2.1434    0.4125    0.0000 O   0  0  0  0  0  0  0  2  0  0  0  0
    0.7145    0.4125    0.0000 C   0  0  0  0  0  0  0  2  0  0  0  0
    0.7145   -0.4125    0.0000 C   0  0  0  0  0  0  0  2  0  0  0  0
    0.0000   -0.8250    0.0000 C   0  0  0  0  0  0  0  2  0  0  0  0
   -0.7145   -0.4125    0.0000 C   0  0  0  0  0  0  0  2  0  0  0  0
   -1.4289   -0.8250    0.0000 N   0  0  0  0  0  0  0  2  0  0  0  0
   -1.4289   -1.6500    0.0000 O   0  0  0  0  0  0  0  2  0  0  0  0
   -2.1434   -0.4125    0.0000 O   0  0  0  0  0  0  0  2  0  0  0  0
   -0.7145    0.4125    0.0000 C   0  0  0  0  0  0  0  2  0  0  0  0
   -1.4289    0.8250    0.0000 N   0  0  0  0  0  0  0  2  0  0  0  0
   -1.4289    1.6500    0.0000 O   0  0  0  0  0  0  0  2  0  0  0  0
   -2.1434    0.4125    0.0000 O   0  0  0  0  0  0  0  2  0  0  0  0
    0.0000    0.8250    0.0000 C   0  0  0  0  0  0  0  2  0  0  0  0
  1  2  2  0        0
  2  3  1  0        0
  2  4  1  0        0
  4  5  4  0        0
  5  6  4  0        0
  6  7  4  0        0
  7  8  1  0        0
  8  9  2  0        0
  8 10  2  0        0
  7 11  4  0        0
 11 12  1  0        0
 12 13  2  0        0
 12 14  2  0        0
 11 15  4  0        0
  4 15  4  0        0
M  END
$$$$

CDXL12

 12 12  0  0  0  0  0  0  0  0999 V2000
   -1.4289    0.6188    0.0000 O   0  0  0  0  0  0  0  2  0  0  0  0
   -0.7145    1.0312    0.0000 C   0  0  0  0  0  0  0  2  0  0  0  0
    0.0000    0.6188    0.0000 C   0  0  0  0  0  0  0  2  0  0  0  0
    0.7145    1.0313    0.0000 C   0  0  0  0  0  0  0  2  0  0  0  0
    1.4289    0.6188    0.0000 O   0  0  0  0  0  0  0  2  0  0  0  0
    0.7145    1.8563    0.0000 O   0  0  0  0  0  0  0  2  0  0  0  0
    0.0000   -0.2062    0.0000 C   0  0  0  0  0  0  0  2  0  0  0  0
    0.7145   -0.6188    0.0000 C   0  0  0  0  0  0  0  2  0  0  0  0
    0.7145   -1.4438    0.0000 C   0  0  0  0  0  0  0  2  0  0  0  0
    0.0000   -1.8563    0.0000 C   0  0  0  0  0  0  0  2  0  0  0  0
   -0.7145   -1.4438    0.0000 C   0  0  0  0  0  0  0  2  0  0  0  0
   -0.7145   -0.6188    0.0000 C   0  0  0  0  0  0  0  2  0  0  0  0
  1  2  1  0        0
  2  3  1  0        0
  3  4  1  0        0
  4  5  1  0        0
  4  6  2  0        0
  3  7  1  0        0
  7  8  4  0        0
  8  9  4  0        0
  9 10  4  0        0
 10 11  4  0        0
 11 12  4  0        0
  7 12  4  0        0
M  END
$$$$

CDXL12

 14 15  0  0  0  0  0  0  0  0999 V2000
   -0.7145    0.0000    0.0000 C   0  0  0  0  0  0  0  2  0  0  0  0
    0.0000    0.4125    0.0000 C   0  0  0  0  0  0  0  2  0  0  0  0
    0.7145   -0.0000    0.0000 C   0  0  0  0  0  0  0  2  0  0  0  0
    1.4289    0.4125    0.0000 C   0  0  0  0  0  0  0  2  0  0  0  0
    2.1434    0.0000    0.0000 C   0  0  0  0  0  0  0  2  0  0  0  0
    2.1434   -0.8250    0.0000 C   0  0  0  0  0  0  0  2  0  0  0  0
    1.4289   -1.2375    0.0000 C   0  0  0  0  0  0  0  2  0  0  0  0
    0.7145   -0.8250    0.0000 C   0  0  0  0  0  0  0  2  0  0  0  0
    0.0000    1.2375    0.0000 C   0  0  0  0  0  0  0  2  0  0  0  0
   -0.7145   -0.8250    0.0000 C   0  0  0  0  0  0  0  2  0  0  0  0
   -1.4289   -1.2375    0.0000 C   0  0  0  0  0  0  0  2  0  0  0  0
   -2.1434   -0.8250    0.0000 C   0  0  0  0  0  0  0  2  0  0  0  0
   -2.1434    0.0000    0.0000 C   0  0  0  0  0  0  0  2  0  0  0  0
   -1.4289    0.4125    0.0000 C   0  0  0  0  0  0  0  2  0  0  0  0
  1  2  1  0        0
  2  3  1  0        0
  3  4  4  0        0
  4  5  4  0        0
  5  6  4  0        0
  6  7  4  0        0
  7  8  4  0        0
  3  8  4  0        0
  2  9  2  0        0
  1 10  4  0        0
 10 11  4  0        0
 11 12  4  0        0
 12 13  4  0        0
 13 14  4  0        0
  1 14  4  0        0
M  END
$$$$

CDXL12

 20 21  0  0  0  0  0  0  0  0999 V2000
   -1.4289    1.4438    0.0000 O   0  0  0  0  0  0  0  2  0  0  0  0
   -2.1434    1.0312    0.0000 C   0  0  0  0  0  0  0  2  0  0  0  0
   -2.8579    1.4437    0.0000 O   0  0  0  0  0  0  0  2  0  0  0  0
   -2.1434    0.2062    0.0000 C   0  0  0  0  0  0  0  2  0  0  0  0
   -2.8579   -0.2063    0.0000 C   0  0  0  0  0  0  0  2  0  0  0  0
   -2.8579   -1.0313    0.0000 C   0  0  0  0  0  0  0  2  0  0  0  0
   -2.1434   -1.4438    0.0000 C   0  0  0  0  0  0  0  2  0  0  0  0
   -1.4289   -1.0313    0.0000 C   0  0  0  0  0  0  0  2  0  0  0  0
   -1.4289   -0.2062    0.0000 C   0  0  0  0  0  0  0  2  0  0  0  0
   -0.7145    0.2062    0.0000 N   0  0  0  0  0  0  0  2  0  0  0  0
    0.0000   -0.2062    0.0000 C   0  0  0  0  0  0  0  2  0  0  0  0
    0.7145    0.2062    0.0000 C   0  0  0  0  0  0  0  2  0  0  0  0
    1.4289   -0.2063    0.0000 C   0  0  0  0  0  0  0  2  0  0  0  0
    2.1434    0.2062    0.0000 C   0  0  0  0  0  0  0  2  0  0  0  0
    2.8579    0.6187    0.0000 F   0  0  0  0  0  0  0  2  0  0  0  0
    2.1434    1.0312    0.0000 F   0  0  0  0  0  0  0  2  0  0  0  0
    2.8579   -0.2063    0.0000 F   0  0  0  0  0  0  0  2  0  0  0  0
    1.4289   -1.0313    0.0000 C   0  0  0  0  0  0  0  2  0  0  0  0
    0.7145   -1.4438    0.0000 C   0  0  0  0  0  0  0  2  0  0  0  0
    0.0000   -1.0313    0.0000 C   0  0  0  0  0  0  0  2  0  0  0  0
  1  2  1  0        0
  2  3  2  0        0
  2  4  1  0        0
  4  5  4  0        0
  5  6  4  0        0
  6  7  4  0        0
  7  8  4  0        0
  8  9  4  0        0
  4  9  4  0        0
  9 10  1  0        0
 10 11  1  0        0
 11 12  4  0        0
 12 13  4  0        0
 13 14  1  0        0
 14 15  1  0        0
 14 16  1  0        0
 14 17  1  0        0
 13 18  4  0        0
 18 19  4  0        0
 19 20  4  0        0
 11 20  4  0        0
M  END
$$$$

CDXL12

 17 17  0  0  0  0  0  0  0  0999 V2000
   -2.5006    0.8250    0.0000 O   0  0  0  0  0  0  0  2  0  0  0  0
   -2.5006   -0.0000    0.0000 C   0  0  0  0  0  0  0  2  0  0  0  0
   -1.7862   -0.4125    0.0000 O   0  0  0  0  0  0  0  2  0  0  0  0
   -1.0717    0.0000    0.0000 C   0  0  0  0  0  0  0  2  0  0  0  0
   -0.3572   -0.4125    0.0000 C   0  0  0  0  0  0  0  2  0  0  0  0
   -0.3572   -1.2375    0.0000 O   0  0  0  0  0  0  0  2  0  0  0  0
    0.3572    0.0000    0.0000 C   0  0  0  0  0  0  0  2  0  0  0  0
    1.0717   -0.4125    0.0000 O   0  0  0  0  0  0  0  2  0  0  0  0
    1.7862   -0.0000    0.0000 C   0  0  0  0  0  0  0  2  0  0  0  0
    1.7862    0.8250    0.0000 C   0  0  0  0  0  0  0  2  0  0  0  0
    1.0717    1.2375    0.0000 O   0  0  0  0  0  0  0  2  0  0  0  0
    0.3572    0.8250    0.0000 C   0  0  0  0  0  0  0  2  0  0  0  0
    2.5006    1.2375    0.0000 C   0  0  0  0  0  0  0  2  0  0  0  0
    3.2151    0.8250    0.0000 C   0  0  0  0  0  0  0  2  0  0  0  0
    3.2151   -0.0000    0.0000 C   0  0  0  0  0  0  0  2  0  0  0  0
    2.5006   -0.4125    0.0000 C   0  0  0  0  0  0  0  2  0  0  0  0
   -3.2151   -0.4125    0.0000 N   0  0  0  0  0  0  0  2  0  0  0  0
  1  2  2  0        0
  2  3  1  0        0
  3  4  1  0        0
  4  5  1  0        0
  5  6  1  0        0
  5  7  1  0        0
  7  8  1  0        0
  8  9  1  0        0
  9 10  4  0        0
 10 11  1  0        0
 11 12  1  0        0
 10 13  4  0        0
 13 14  4  0        0
 14 15  4  0        0
 15 16  4  0        0
  9 16  4  0        0
  2 17  1  0        0
M  END
$$$$

CDXL12

 16 17  0  0  0  0  0  0  0  0999 V2000
   -2.8579   -1.4437    0.0000 N   0  0  0  0  0  0  0  2  0  0  0  0
   -2.1434   -1.0313    0.0000 C   0  0  0  0  0  0  0  2  0  0  0  0
   -2.1434   -0.2062    0.0000 C   0  0  0  0  0  0  0  2  0  0  0  0
   -1.4289    0.2062    0.0000 C   0  0  0  0  0  0  0  2  0  0  0  0
   -0.7145   -0.2063    0.0000 C   0  0  0  0  0  0  0  2  0  0  0  0
   -0.0000    0.2062    0.0000 N   0  0  0  0  0  0  0  2  0  0  0  0
    0.7145   -0.2063    0.0000 N   0  0  0  0  0  0  0  2  0  0  0  0
    1.4289    0.2062    0.0000 C   0  0  0  0  0  0  0  2  0  0  0  0
    1.4289    1.0312    0.0000 C   0  0  0  0  0  0  0  2  0  0  0  0
    2.1434    1.4438    0.0000 C   0  0  0  0  0  0  0  2  0  0  0  0
    2.8579    1.0312    0.0000 C   0  0  0  0  0  0  0  2  0  0  0  0
    2.8579    0.2062    0.0000 C   0  0  0  0  0  0  0  2  0  0  0  0
    2.1434   -0.2063    0.0000 C   0  0  0  0  0  0  0  2  0  0  0  0
   -0.7145   -1.0313    0.0000 C   0  0  0  0  0  0  0  2  0  0  0  0
   -0.0000   -1.4438    0.0000 N   0  0  0  0  0  0  0  2  0  0  0  0
   -1.4289   -1.4437    0.0000 C   0  0  0  0  0  0  0  2  0  0  0  0
  1  2  1  0        0
  2  3  4  0        0
  3  4  4  0        0
  4  5  4  0        0
  5  6  1  0        0
  6  7  2  0        0
  7  8  1  0        0
  8  9  4  0        0
  9 10  4  0        0
 10 11  4  0        0
 11 12  4  0        0
 12 13  4  0        0
  8 13  4  0        0
  5 14  4  0        0
 14 15  1  0        0
 14 16  4  0        0
  2 16  4  0        0
M  END
$$$$

CDXL12

 11 11  0  0  0  0  0  0  0  0999 V2000
   -1.0717    0.4125    0.0000 O   0  0  0  0  0  0  0  2  0  0  0  0
   -1.0717   -0.4125    0.0000 C   0  0  0  0  0  0  0  2  0  0  0  0
   -0.3572   -0.8250    0.0000 N   0  0  0  0  0  0  0  2  0  0  0  0
    0.3572   -0.4125    0.0000 C   0  0  0  0  0  0  0  2  0  0  0  0
    0.3572    0.4125    0.0000 C   0  0  0  0  0  0  0  2  0  0  0  0
    1.0717    0.8250    0.0000 C   0  0  0  0  0  0  0  2  0  0  0  0
    1.7862    0.4125    0.0000 C   0  0  0  0  0  0  0  2  0  0  0  0
    1.7862   -0.4125    0.0000 C   0  0  0  0  0  0  0  2  0  0  0  0
    1.0717   -0.8250    0.0000 C   0  0  0  0  0  0  0  2  0  0  0  0
   -0.3572    0.8250    0.0000 Cl  0  0  0  0  0  0  0  2  0  0  0  0
   -1.7862   -0.8250    0.0000 C   0  0  0  0  0  0  0  2  0  0  0  0
  1  2  2  0        0
  2  3  1  0        0
  3  4  1  0        0
  4  5  4  0        0
  5  6  4  0        0
  6  7  4  0        0
  7  8  4  0        0
  8  9  4  0        0
  4  9  4  0        0
  5 10  1  0        0
  2 11  1  0        0
M  END
$$$$

CDXL12

  9  9  0  0  0  0  0  0  0  0999 V2000
   -0.7145   -0.4125    0.0000 N   0  0  0  0  0  0  0  2  0  0  0  0
   -0.7145    0.4125    0.0000 C   0  0  0  0  0  0  0  2  0  0  0  0
    0.0000    0.8250    0.0000 S   0  0  0  0  0  0  0  2  0  0  0  0
    0.7145    0.4125    0.0000 C   0  0  0  0  0  0  0  2  0  0  0  0
    0.7145   -0.4125    0.0000 N   0  0  0  0  0  0  0  2  0  0  0  0
    1.4289   -0.8250    0.0000 C   0  0  0  0  0  0  0  2  0  0  0  0
    0.0000   -0.8250    0.0000 C   0  0  0  0  0  0  0  2  0  0  0  0
    1.4289    0.8250    0.0000 S   0  0  0  0  0  0  0  2  0  0  0  0
   -1.4289   -0.8250    0.0000 C   0  0  0  0  0  0  0  2  0  0  0  0
  1  2  1  0        0
  2  3  1  0        0
  3  4  1  0        0
  4  5  1  0        0
  5  6  1  0        0
  5  7  1  0        0
  1  7  1  0        0
  4  8  2  0        0
  1  9  1  0        0
M  END
$$$$

CDXL12

  6  5  0  0  0  0  0  0  0  0999 V2000
    0.7145   -0.6188    0.0000 N   0  0  0  0  0  0  0  2  0  0  0  0
    0.0000   -0.2062    0.0000 C   0  0  0  0  0  0  0  2  0  0  0  0
    0.0000    0.6188    0.0000 S   0  0  0  0  0  0  0  2  0  0  0  0
   -0.7145   -0.6187    0.0000 N   0  0  0  0  0  0  0  2  0  0  0  0
   -1.4289   -0.2062    0.0000 C   0  0  0  0  0  0  0  2  0  0  0  0
    1.4289   -0.2062    0.0000 C   0  0  0  0  0  0  0  2  0  0  0  0
  1  2  1  0        0
  2  3  2  0        0
  2  4  1  0        0
  4  5  1  0        0
  1  6  1  0        0
M  END
$$$$

CDXL12

 11 10  0  0  0  0  0  0  0  0999 V2000
   -2.1434   -0.0000    0.0000 C   0  0  0  0  0  0  0  2  0  0  0  0
   -1.4289    0.4125    0.0000 C   0  0  0  0  0  0  0  2  0  0  0  0
   -0.7145   -0.0000    0.0000 C   0  0  0  0  0  0  0  2  0  0  0  0
    0.0000    0.4125    0.0000 C   0  0  0  0  0  0  0  2  0  0  0  0
    0.7145   -0.0000    0.0000 C   0  0  0  0  0  0  0  2  0  0  0  0
    1.4289    0.4125    0.0000 C   0  0  0  0  0  0  0  2  0  0  0  0
    1.4289    1.2375    0.0000 O   0  0  0  0  0  0  0  2  0  0  0  0
    2.1434   -0.0000    0.0000 O   0  0  0  0  0  0  0  2  0  0  0  0
    0.7145   -0.8250    0.0000 C   0  0  0  0  0  0  0  2  0  0  0  0
    0.0000   -1.2375    0.0000 O   0  0  0  0  0  0  0  2  0  0  0  0
    1.4289   -1.2375    0.0000 O   0  0  0  0  0  0  0  2  0  0  0  0
  1  2  1  0        0
  2  3  1  0        0
  3  4  1  0        0
  4  5  1  0        0
  5  6  1  0        0
  6  7  2  0        0
  6  8  1  0        0
  5  9  1  0        0
  9 10  2  0        0
  9 11  1  0        0
M  END
$$$$

CDXL12

 10 10  0  0  0  0  0  0  0  0999 V2000
    1.0717    1.2375    0.0000 O   0  0  0  0  0  0  0  2  0  0  0  0
    1.0717    0.4125    0.0000 C   0  0  0  0  0  0  0  2  0  0  0  0
    1.7862   -0.0000    0.0000 O   0  0  0  0  0  0  0  2  0  0  0  0
    0.3572   -0.0000    0.0000 C   0  0  0  0  0  0  0  2  0  0  0  0
    0.3572   -0.8250    0.0000 C   0  0  0  0  0  0  0  2  0  0  0  0
   -0.3572   -1.2375    0.0000 C   0  0  0  0  0  0  0  2  0  0  0  0
   -1.0717   -0.8250    0.0000 C   0  0  0  0  0  0  0  2  0  0  0  0
   -1.0717    0.0000    0.0000 C   0  0  0  0  0  0  0  2  0  0  0  0
   -1.7862    0.4125    0.0000 Cl  0  0  0  0  0  0  0  2  0  0  0  0
   -0.3572    0.4125    0.0000 C   0  0  0  0  0  0  0  2  0  0  0  0
  1  2  2  0        0
  2  3  1  0        0
  2  4  1  0        0
  4  5  4  0        0
  5  6  4  0        0
  6  7  4  0        0
  7  8  4  0        0
  8  9  1  0        0
  8 10  4  0        0
  4 10  4  0        0
M  END
$$$$

CDXL12

 11 11  0  0  0  0  0  0  0  0999 V2000
    0.3572    0.4125    0.0000 C   0  0  0  0  0  0  0  2  0  0  0  0
   -0.3572    0.8250    0.0000 C   0  0  0  0  0  0  0  2  0  0  0  0
   -0.3572    1.6500    0.0000 C   0  0  0  0  0  0  0  2  0  0  0  0
   -1.0717    0.4125    0.0000 N   0  0  0  0  0  0  0  2  0  0  0  0
   -1.0717   -0.4125    0.0000 C   0  0  0  0  0  0  0  2  0  0  0  0
   -1.7862   -0.8250    0.0000 Cl  0  0  0  0  0  0  0  2  0  0  0  0
   -0.3572   -0.8250    0.0000 N   0  0  0  0  0  0  0  2  0  0  0  0
    0.3572   -0.4125    0.0000 C   0  0  0  0  0  0  0  2  0  0  0  0
    1.0717   -0.8250    0.0000 N   0  0  0  0  0  0  0  2  0  0  0  0
    1.0717   -1.6500    0.0000 C   0  0  0  0  0  0  0  2  0  0  0  0
    1.7862   -0.4125    0.0000 C   0  0  0  0  0  0  0  2  0  0  0  0
  1  2  4  0        0
  2  3  1  0        0
  2  4  4  0        0
  4  5  4  0        0
  5  6  1  0        0
  5  7  4  0        0
  7  8  4  0        0
  1  8  4  0        0
  8  9  1  0        0
  9 10  1  0        0
  9 11  1  0        0
M  END
$$$$

CDXL12

 12 12  0  0  0  0  0  0  0  0999 V2000
    2.1434    0.4125    0.0000 O   0  0  0  0  0  0  0  2  0  0  0  0
    1.4289    0.8250    0.0000 C   0  0  0  0  0  0  0  2  0  0  0  0
    1.4289    1.6500    0.0000 O   0  0  0  0  0  0  0  2  0  0  0  0
    0.7145    0.4125    0.0000 C   0  0  0  0  0  0  0  2  0  0  0  0
    0.0000    0.8250    0.0000 C   0  0  0  0  0  0  0  2  0  0  0  0
   -0.7145    0.4125    0.0000 C   0  0  0  0  0  0  0  2  0  0  0  0
   -0.7145   -0.4125    0.0000 C   0  0  0  0  0  0  0  2  0  0  0  0
   -1.4289   -0.8250    0.0000 C   0  0  0  0  0  0  0  2  0  0  0  0
   -1.4289   -1.6500    0.0000 C   0  0  0  0  0  0  0  2  0  0  0  0
   -2.1434   -0.4125    0.0000 C   0  0  0  0  0  0  0  2  0  0  0  0
    0.0000   -0.8250    0.0000 C   0  0  0  0  0  0  0  2  0  0  0  0
    0.7145   -0.4125    0.0000 C   0  0  0  0  0  0  0  2  0  0  0  0
  1  2  1  0        0
  2  3  2  0        0
  2  4  1  0        0
  4  5  4  0        0
  5  6  4  0        0
  6  7  4  0        0
  7  8  1  0        0
  8  9  1  0        0
  8 10  1  0        0
  7 11  4  0        0
 11 12  4  0        0
  4 12  4  0        0
M  END
$$$$

CDXL12

  8  8  0  0  0  0  0  0  0  0999 V2000
   -0.7145   -0.6187    0.0000 C   0  0  0  0  0  0  0  2  0  0  0  0
    0.0000   -0.2062    0.0000 C   0  0  0  0  0  0  0  2  0  0  0  0
    0.0000    0.6188    0.0000 C   0  0  0  0  0  0  0  2  0  0  0  0
    0.7145    1.0312    0.0000 C   0  0  0  0  0  0  0  2  0  0  0  0
    1.4289    0.6188    0.0000 C   0  0  0  0  0  0  0  2  0  0  0  0
    1.4289   -0.2062    0.0000 C   0  0  0  0  0  0  0  2  0  0  0  0
    0.7145   -0.6187    0.0000 C   0  0  0  0  0  0  0  2  0  0  0  0
   -1.4289   -1.0312    0.0000 C   0  0  0  0  0  0  0  2  0  0  0  0
  1  2  1  0        0
  2  3  4  0        0
  3  4  4  0        0
  4  5  4  0        0
  5  6  4  0        0
  6  7  4  0        0
  2  7  4  0        0
  1  8  3  0        0
M  END
$$$$

CDXL12

  8  8  0  0  0  0  0  0  0  0999 V2000
   -1.4289   -0.4125    0.0000 N   0  0  0  0  0  0  0  2  0  0  0  0
   -1.4289    0.4125    0.0000 C   0  0  0  0  0  0  0  2  0  0  0  0
   -0.7145    0.8250    0.0000 C   0  0  0  0  0  0  0  2  0  0  0  0
    0.0000    0.4125    0.0000 C   0  0  0  0  0  0  0  2  0  0  0  0
    0.0000   -0.4125    0.0000 C   0  0  0  0  0  0  0  2  0  0  0  0
    0.7145   -0.8250    0.0000 C   0  0  0  0  0  0  0  2  0  0  0  0
    1.4289   -0.4125    0.0000 C   0  0  0  0  0  0  0  2  0  0  0  0
   -0.7145   -0.8250    0.0000 C   0  0  0  0  0  0  0  2  0  0  0  0
  1  2  4  0        0
  2  3  4  0        0
  3  4  4  0        0
  4  5  4  0        0
  5  6  1  0        0
  6  7  1  0        0
  5  8  4  0        0
  1  8  4  0        0
M  END
$$$$

CDXL12

 11 11  0  0  0  0  0  0  0  0999 V2000
    0.7145    0.4125    0.0000 C   0  0  0  0  0  0  0  2  0  0  0  0
    1.4289    0.8250    0.0000 C   0  0  0  0  0  0  0  2  0  0  0  0
    2.1434    0.4125    0.0000 C   0  0  0  0  0  0  0  2  0  0  0  0
    2.1434   -0.4125    0.0000 C   0  0  0  0  0  0  0  2  0  0  0  0
    1.4289   -0.8250    0.0000 C   0  0  0  0  0  0  0  2  0  0  0  0
    0.7145   -0.4125    0.0000 C   0  0  0  0  0  0  0  2  0  0  0  0
    0.0000   -0.8250    0.0000 N   0  0  0  0  0  0  0  2  0  0  0  0
   -0.7145   -0.4125    0.0000 C   0  0  0  0  0  0  0  2  0  0  0  0
   -0.7145    0.4125    0.0000 O   0  0  0  0  0  0  0  2  0  0  0  0
   -1.4289   -0.8250    0.0000 N   0  0  0  0  0  0  0  2  0  0  0  0
   -2.1434   -0.4125    0.0000 N   0  0  0  0  0  0  0  2  0  0  0  0
  1  2  4  0        0
  2  3  4  0        0
  3  4  4  0        0
  4  5  4  0        0
  5  6  4  0        0
  1  6  4  0        0
  6  7  1  0        0
  7  8  1  0        0
  8  9  2  0        0
  8 10  1  0        0
 10 11  1  0        0
M  END
$$$$

CDXL12

  9  8  0  0  0  0  0  0  0  0999 V2000
   -0.7145    0.8250    0.0000 C   0  0  0  0  0  0  0  2  0  0  0  0
    0.0000    0.4125    0.0000 C   0  0  0  0  0  0  0  2  0  0  0  0
    0.0000   -0.4125    0.0000 N   0  0  0  0  0  0  0  2  0  0  0  0
   -0.7145   -0.8250    0.0000 C   0  0  0  0  0  0  0  2  0  0  0  0
   -1.4289   -0.4125    0.0000 C   0  0  0  0  0  0  0  2  0  0  0  0
   -2.1434   -0.8250    0.0000 Cl  0  0  0  0  0  0  0  2  0  0  0  0
    0.7145   -0.8250    0.0000 C   0  0  0  0  0  0  0  2  0  0  0  0
    1.4289   -0.4125    0.0000 C   0  0  0  0  0  0  0  2  0  0  0  0
    2.1434   -0.8250    0.0000 Cl  0  0  0  0  0  0  0  2  0  0  0  0
  1  2  1  0        0
  2  3  1  0        0
  3  4  1  0        0
  4  5  1  0        0
  5  6  1  0        0
  3  7  1  0        0
  7  8  1  0        0
  8  9  1  0        0
M  END
$$$$

CDXL12

 33 32  0  0  0  0  0  0  0  0999 V2000
    2.1434   -1.6500    0.0000 O   0  0  0  0  0  0  0  2  0  0  0  0
    2.1434   -0.8250    0.0000 C   0  0  0  0  0  0  0  2  0  0  0  0
    1.4289   -0.4125    0.0000 O   0  0  0  0  0  0  0  2  0  0  0  0
    0.7145   -0.8250    0.0000 C   0  0  0  0  0  0  0  2  0  0  0  0
    0.0000   -0.4125    0.0000 C   0  0  0  0  0  0  0  2  0  0  0  0
    0.0000    0.4125    0.0000 O   0  0  0  0  0  0  0  2  0  0  0  0
   -0.7145    0.8250    0.0000 C   0  0  0  0  0  0  0  2  0  0  0  0
   -0.7145    1.6500    0.0000 O   0  0  0  0  0  0  0  2  0  0  0  0
   -1.4289    0.4125    0.0000 C   0  0  0  0  0  0  0  2  0  0  0  0
   -2.1434    0.8250    0.0000 C   0  0  0  0  0  0  0  2  0  0  0  0
   -2.8579    0.4125    0.0000 C   0  0  0  0  0  0  0  2  0  0  0  0
   -3.5724    0.8250    0.0000 C   0  0  0  0  0  0  0  2  0  0  0  0
   -4.2868    0.4125    0.0000 C   0  0  0  0  0  0  0  2  0  0  0  0
   -5.0013    0.8250    0.0000 C   0  0  0  0  0  0  0  2  0  0  0  0
   -5.7158    0.4125    0.0000 C   0  0  0  0  0  0  0  2  0  0  0  0
   -0.7145   -0.8250    0.0000 C   0  0  0  0  0  0  0  2  0  0  0  0
   -1.4289   -0.4125    0.0000 O   0  0  0  0  0  0  0  2  0  0  0  0
   -2.1434   -0.8250    0.0000 C   0  0  0  0  0  0  0  2  0  0  0  0
   -2.1434   -1.6500    0.0000 O   0  0  0  0  0  0  0  2  0  0  0  0
   -2.8579   -0.4125    0.0000 C   0  0  0  0  0  0  0  2  0  0  0  0
   -3.5724   -0.8250    0.0000 C   0  0  0  0  0  0  0  2  0  0  0  0
   -4.2868   -0.4125    0.0000 C   0  0  0  0  0  0  0  2  0  0  0  0
   -5.0013   -0.8250    0.0000 C   0  0  0  0  0  0  0  2  0  0  0  0
   -5.7158   -0.4125    0.0000 C   0  0  0  0  0  0  0  2  0  0  0  0
   -6.4302   -0.8250    0.0000 C   0  0  0  0  0  0  0  2  0  0  0  0
   -7.1447   -0.4125    0.0000 C   0  0  0  0  0  0  0  2  0  0  0  0
    2.8579   -0.4125    0.0000 C   0  0  0  0  0  0  0  2  0  0  0  0
    3.5724   -0.8250    0.0000 C   0  0  0  0  0  0  0  2  0  0  0  0
    4.2868   -0.4125    0.0000 C   0  0  0  0  0  0  0  2  0  0  0  0
    5.0013   -0.8250    0.0000 C   0  0  0  0  0  0  0  2  0  0  0  0
    5.7158   -0.4125    0.0000 C   0  0  0  0  0  0  0  2  0  0  0  0
    6.4302   -0.8250    0.0000 C   0  0  0  0  0  0  0  2  0  0  0  0
    7.1447   -0.4125    0.0000 C   0  0  0  0  0  0  0  2  0  0  0  0
  1  2  2  0        0
  2  3  1  0        0
  3  4  1  0        0
  4  5  1  0        0
  5  6  1  0        0
  6  7  1  0        0
  7  8  2  0        0
  7  9  1  0        0
  9 10  1  0        0
 10 11  1  0        0
 11 12  1  0        0
 12 13  1  0        0
 13 14  1  0        0
 14 15  1  0        0
  5 16  1  0        0
 16 17  1  0        0
 17 18  1  0        0
 18 19  2  0        0
 18 20  1  0        0
 20 21  1  0        0
 21 22  1  0        0
 22 23  1  0        0
 23 24  1  0        0
 24 25  1  0        0
 25 26  1  0        0
  2 27  1  0        0
 27 28  1  0        0
 28 29  1  0        0
 29 30  1  0        0
 30 31  1  0        0
 31 32  1  0        0
 32 33  1  0        0
M  END
$$$$

CDXL12

 11 11  0  0  0  0  0  0  0  0999 V2000
    2.1434    0.0000    0.0000 N   0  0  0  0  0  0  0  2  0  0  0  0
    1.4289    0.4125    0.0000 C   0  0  0  0  0  0  0  2  0  0  0  0
    1.4289    1.2375    0.0000 O   0  0  0  0  0  0  0  2  0  0  0  0
    0.7145    0.0000    0.0000 N   0  0  0  0  0  0  0  2  0  0  0  0
    0.0000    0.4125    0.0000 C   0  0  0  0  0  0  0  2  0  0  0  0
   -0.7145    0.0000    0.0000 C   0  0  0  0  0  0  0  2  0  0  0  0
   -1.4289    0.4125    0.0000 C   0  0  0  0  0  0  0  2  0  0  0  0
   -2.1434   -0.0000    0.0000 C   0  0  0  0  0  0  0  2  0  0  0  0
   -2.1434   -0.8250    0.0000 C   0  0  0  0  0  0  0  2  0  0  0  0
   -1.4289   -1.2375    0.0000 C   0  0  0  0  0  0  0  2  0  0  0  0
   -0.7145   -0.8250    0.0000 C   0  0  0  0  0  0  0  2  0  0  0  0
  1  2  1  0        0
  2  3  2  0        0
  2  4  1  0        0
  4  5  1  0        0
  5  6  1  0        0
  6  7  4  0        0
  7  8  4  0        0
  8  9  4  0        0
  9 10  4  0        0
 10 11  4  0        0
  6 11  4  0        0
M  END
$$$$

CDXL12

 15 16  0  0  0  0  0  0  0  0999 V2000
   -0.7145   -0.4125    0.0000 N   0  0  0  0  0  0  0  2  0  0  0  0
   -0.0000    0.0000    0.0000 C   0  0  0  0  0  0  0  2  0  0  0  0
    0.7145    0.4125    0.0000 N   0  0  0  0  0  0  0  2  0  0  0  0
    1.4289   -0.0000    0.0000 C   0  0  0  0  0  0  0  2  0  0  0  0
    2.1434    0.4125    0.0000 C   0  0  0  0  0  0  0  2  0  0  0  0
    2.8579    0.0000    0.0000 C   0  0  0  0  0  0  0  2  0  0  0  0
    2.8579   -0.8250    0.0000 C   0  0  0  0  0  0  0  2  0  0  0  0
    2.1434   -1.2375    0.0000 C   0  0  0  0  0  0  0  2  0  0  0  0
    1.4289   -0.8250    0.0000 C   0  0  0  0  0  0  0  2  0  0  0  0
   -1.4289   -0.0000    0.0000 C   0  0  0  0  0  0  0  2  0  0  0  0
   -2.1434   -0.4125    0.0000 C   0  0  0  0  0  0  0  2  0  0  0  0
   -2.8579    0.0000    0.0000 C   0  0  0  0  0  0  0  2  0  0  0  0
   -2.8579    0.8250    0.0000 C   0  0  0  0  0  0  0  2  0  0  0  0
   -2.1434    1.2375    0.0000 C   0  0  0  0  0  0  0  2  0  0  0  0
   -1.4289    0.8250    0.0000 C   0  0  0  0  0  0  0  2  0  0  0  0
  1  2  2  0        0
  2  3  2  0        0
  3  4  1  0        0
  4  5  1  0        0
  5  6  1  0        0
  6  7  1  0        0
  7  8  1  0        0
  8  9  1  0        0
  4  9  1  0        0
  1 10  1  0        0
 10 11  1  0        0
 11 12  1  0        0
 12 13  1  0        0
 13 14  1  0        0
 14 15  1  0        0
 10 15  1  0        0
M  END
$$$$

CDXL12

 10 10  0  0  0  0  0  0  0  0999 V2000
   -0.3572   -0.4125    0.0000 C   0  0  0  0  0  0  0  2  0  0  0  0
   -1.0717   -0.8250    0.0000 C   0  0  0  0  0  0  0  2  0  0  0  0
   -1.7862   -0.4125    0.0000 C   0  0  0  0  0  0  0  2  0  0  0  0
   -1.7862    0.4125    0.0000 C   0  0  0  0  0  0  0  2  0  0  0  0
   -1.0717    0.8250    0.0000 C   0  0  0  0  0  0  0  2  0  0  0  0
   -0.3572    0.4125    0.0000 C   0  0  0  0  0  0  0  2  0  0  0  0
    0.3572   -0.8250    0.0000 C   0  0  0  0  0  0  0  2  0  0  0  0
    1.0717   -0.4125    0.0000 C   0  0  0  0  0  0  0  2  0  0  0  0
    1.0717    0.4125    0.0000 C   0  0  0  0  0  0  0  2  0  0  0  0
    1.7862   -0.8250    0.0000 C   0  0  0  0  0  0  0  2  0  0  0  0
  1  2  4  0        0
  2  3  4  0        0
  3  4  4  0        0
  4  5  4  0        0
  5  6  4  0        0
  1  6  4  0        0
  1  7  1  0        0
  7  8  1  0        0
  8  9  1  0        0
  8 10  1  0        0
M  END
$$$$

CDXL12

  9  8  0  0  0  0  0  0  0  0999 V2000
    0.3572    0.6188    0.0000 O   0  0  0  0  0  0  0  2  0  0  0  0
    0.3572   -0.2062    0.0000 C   0  0  0  0  0  0  0  2  0  0  0  0
    1.0717   -0.6188    0.0000 O   0  0  0  0  0  0  0  2  0  0  0  0
    1.7862   -0.2062    0.0000 C   0  0  0  0  0  0  0  2  0  0  0  0
    2.5006   -0.6187    0.0000 C   0  0  0  0  0  0  0  2  0  0  0  0
   -0.3572   -0.6188    0.0000 C   0  0  0  0  0  0  0  2  0  0  0  0
   -1.0717   -0.2062    0.0000 C   0  0  0  0  0  0  0  2  0  0  0  0
   -1.7862   -0.6188    0.0000 C   0  0  0  0  0  0  0  2  0  0  0  0
   -2.5006   -0.2062    0.0000 C   0  0  0  0  0  0  0  2  0  0  0  0
  1  2  2  0        0
  2  3  1  0        0
  3  4  1  0        0
  4  5  1  0        0
  2  6  1  0        0
  6  7  1  0        0
  7  8  1  0        0
  8  9  1  0        0
M  END
$$$$

CDXL12

 11 10  0  0  0  0  0  0  0  0999 V2000
   -1.0717    0.6187    0.0000 O   0  0  0  0  0  0  0  2  0  0  0  0
   -1.0717   -0.2062    0.0000 C   0  0  0  0  0  0  0  2  0  0  0  0
   -0.3572   -0.6187    0.0000 O   0  0  0  0  0  0  0  2  0  0  0  0
    0.3572   -0.2062    0.0000 C   0  0  0  0  0  0  0  2  0  0  0  0
    1.0717   -0.6187    0.0000 C   0  0  0  0  0  0  0  2  0  0  0  0
    1.7862   -0.2062    0.0000 C   0  0  0  0  0  0  0  2  0  0  0  0
    2.5006   -0.6187    0.0000 C   0  0  0  0  0  0  0  2  0  0  0  0
    3.2151   -0.2062    0.0000 C   0  0  0  0  0  0  0  2  0  0  0  0
   -1.7862   -0.6187    0.0000 C   0  0  0  0  0  0  0  2  0  0  0  0
   -2.5006   -0.2062    0.0000 C   0  0  0  0  0  0  0  2  0  0  0  0
   -3.2151   -0.6187    0.0000 C   0  0  0  0  0  0  0  2  0  0  0  0
  1  2  2  0        0
  2  3  1  0        0
  3  4  1  0        0
  4  5  1  0        0
  5  6  1  0        0
  6  7  1  0        0
  7  8  1  0        0
  2  9  1  0        0
  9 10  1  0        0
 10 11  1  0        0
M  END
$$$$

CDXL12

  8  8  0  0  0  0  0  0  0  0999 V2000
    1.4289    0.8250    0.0000 F   0  0  0  0  0  0  0  2  0  0  0  0
    0.7145    0.4125    0.0000 C   0  0  0  0  0  0  0  2  0  0  0  0
    0.7145   -0.4125    0.0000 C   0  0  0  0  0  0  0  2  0  0  0  0
    0.0000   -0.8250    0.0000 C   0  0  0  0  0  0  0  2  0  0  0  0
   -0.7145   -0.4125    0.0000 C   0  0  0  0  0  0  0  2  0  0  0  0
   -1.4289   -0.8250    0.0000 F   0  0  0  0  0  0  0  2  0  0  0  0
   -0.7145    0.4125    0.0000 C   0  0  0  0  0  0  0  2  0  0  0  0
    0.0000    0.8250    0.0000 C   0  0  0  0  0  0  0  2  0  0  0  0
  1  2  1  0        0
  2  3  4  0        0
  3  4  4  0        0
  4  5  4  0        0
  5  6  1  0        0
  5  7  4  0        0
  7  8  4  0        0
  2  8  4  0        0
M  END
$$$$

CDXL12

  4  3  0  0  0  0  0  0  0  0999 V2000
   -1.0717    0.2062    0.0000 Cl  0  0  0  0  0  0  0  2  0  0  0  0
   -0.3572   -0.2062    0.0000 C   0  0  0  0  0  0  0  2  0  0  0  0
    0.3572    0.2062    0.0000 C   0  0  0  0  0  0  0  2  0  0  0  0
    1.0717   -0.2062    0.0000 C   0  0  0  0  0  0  0  2  0  0  0  0
  1  2  1  0        0
  2  3  1  0        0
  3  4  1  0        0
M  END
$$$$

CDXL12

  4  3  0  0  0  0  0  0  0  0999 V2000
   -0.3572   -0.2062    0.0000 C   0  0  0  0  0  0  0  2  0  0  0  0
    0.3572    0.2062    0.0000 C   0  0  0  0  0  0  0  2  0  0  0  0
    1.0717   -0.2062    0.0000 Cl  0  0  0  0  0  0  0  2  0  0  0  0
   -1.0717    0.2062    0.0000 Cl  0  0  0  0  0  0  0  2  0  0  0  0
  1  2  2  0        0
  2  3  1  0        0
  1  4  1  0        0
M  END
$$$$

CDXL12

  4  3  0  0  0  0  0  0  0  0999 V2000
   -1.0717    0.2062    0.0000 C   0  0  0  0  0  0  0  2  0  0  0  0
   -0.3572   -0.2062    0.0000 N   0  0  0  0  0  0  0  2  0  0  0  0
    0.3572    0.2062    0.0000 N   0  0  0  0  0  0  0  2  0  0  0  0
    1.0717   -0.2062    0.0000 C   0  0  0  0  0  0  0  2  0  0  0  0
  1  2  1  0        0
  2  3  1  0        0
  3  4  1  0        0
M  END
$$$$

CDXL12

  8  7  0  0  0  0  0  0  0  0999 V2000
    0.7145   -0.2062    0.0000 C   0  0  0  0  0  0  0  2  0  0  0  0
    0.0000   -0.6188    0.0000 C   0  0  0  0  0  0  0  2  0  0  0  0
   -0.7145   -0.2063    0.0000 C   0  0  0  0  0  0  0  2  0  0  0  0
   -1.4289   -0.6188    0.0000 C   0  0  0  0  0  0  0  2  0  0  0  0
   -0.7145    0.6188    0.0000 C   0  0  0  0  0  0  0  2  0  0  0  0
    0.7145    0.6188    0.0000 C   0  0  0  0  0  0  0  2  0  0  0  0
    1.4289    0.2062    0.0000 C   0  0  0  0  0  0  0  2  0  0  0  0
    1.4289   -0.6188    0.0000 C   0  0  0  0  0  0  0  2  0  0  0  0
  1  2  1  0        0
  2  3  1  0        0
  3  4  1  0        0
  3  5  1  0        0
  1  6  1  0        0
  1  7  1  0        0
  1  8  1  0        0
M  END
$$$$

CDXL12

 24 24  0  0  0  0  0  0  0  0999 V2000
    2.4256   -0.2549    0.0000 C   0  0  0  0  0  0  0  2  0  0  0  0
    1.6051   -0.3412    0.0000 Si  0  0  0  0  0  0  0  2  0  0  0  0
    1.6051   -1.1662    0.0000 O   0  0  0  0  0  0  0  2  0  0  0  0
    0.8205   -1.4211    0.0000 Si  0  0  0  0  0  0  0  2  0  0  0  0
    0.3356   -0.7537    0.0000 O   0  0  0  0  0  0  0  2  0  0  0  0
   -0.4849   -0.6674    0.0000 Si  0  0  0  0  0  0  0  2  0  0  0  0
   -0.8205    0.0862    0.0000 O   0  0  0  0  0  0  0  2  0  0  0  0
   -1.6051    0.3412    0.0000 Si  0  0  0  0  0  0  0  2  0  0  0  0
   -1.6051    1.1662    0.0000 O   0  0  0  0  0  0  0  2  0  0  0  0
   -0.8205    1.4211    0.0000 Si  0  0  0  0  0  0  0  2  0  0  0  0
   -0.2074    1.9731    0.0000 C   0  0  0  0  0  0  0  2  0  0  0  0
   -0.9920    2.2281    0.0000 C   0  0  0  0  0  0  0  2  0  0  0  0
   -0.3356    0.7537    0.0000 O   0  0  0  0  0  0  0  2  0  0  0  0
    0.4849    0.6674    0.0000 Si  0  0  0  0  0  0  0  2  0  0  0  0
    0.8205   -0.0862    0.0000 O   0  0  0  0  0  0  0  2  0  0  0  0
    1.2386    1.0030    0.0000 C   0  0  0  0  0  0  0  2  0  0  0  0
    0.5712    1.4879    0.0000 C   0  0  0  0  0  0  0  2  0  0  0  0
   -2.4256    0.2549    0.0000 C   0  0  0  0  0  0  0  2  0  0  0  0
   -1.9407   -0.4125    0.0000 C   0  0  0  0  0  0  0  2  0  0  0  0
   -1.2386   -1.0030    0.0000 C   0  0  0  0  0  0  0  2  0  0  0  0
   -0.5712   -1.4879    0.0000 C   0  0  0  0  0  0  0  2  0  0  0  0
    0.2074   -1.9731    0.0000 C   0  0  0  0  0  0  0  2  0  0  0  0
    0.9920   -2.2281    0.0000 C   0  0  0  0  0  0  0  2  0  0  0  0
    1.9407    0.4125    0.0000 C   0  0  0  0  0  0  0  2  0  0  0  0
  1  2  1  0        0
  2  3  1  0        0
  3  4  1  0        0
  4  5  1  0        0
  5  6  1  0        0
  6  7  1  0        0
  7  8  1  0        0
  8  9  1  0        0
  9 10  1  0        0
 10 11  1  0        0
 10 12  1  0        0
 10 13  1  0        0
 13 14  1  0        0
 14 15  1  0        0
  2 15  1  0        0
 14 16  1  0        0
 14 17  1  0        0
  8 18  1  0        0
  8 19  1  0        0
  6 20  1  0        0
  6 21  1  0        0
  4 22  1  0        0
  4 23  1  0        0
  2 24  1  0        0
M  END
$$$$

CDXL12

 20 20  0  0  0  0  0  0  0  0999 V2000
   -2.0651   -0.1142    0.0000 C   0  0  0  0  0  0  0  2  0  0  0  0
   -1.2446   -0.0280    0.0000 Si  0  0  0  0  0  0  0  2  0  0  0  0
   -1.5802   -0.7817    0.0000 C   0  0  0  0  0  0  0  2  0  0  0  0
   -1.2446    0.7970    0.0000 O   0  0  0  0  0  0  0  2  0  0  0  0
   -0.4600    1.0519    0.0000 Si  0  0  0  0  0  0  0  2  0  0  0  0
    0.1531    1.6040    0.0000 C   0  0  0  0  0  0  0  2  0  0  0  0
   -0.6315    1.8589    0.0000 C   0  0  0  0  0  0  0  2  0  0  0  0
    0.0249    0.3845    0.0000 O   0  0  0  0  0  0  0  2  0  0  0  0
    0.8491    0.4215    0.0000 Si  0  0  0  0  0  0  0  2  0  0  0  0
    1.5092    0.9164    0.0000 C   0  0  0  0  0  0  0  2  0  0  0  0
    0.7506    1.2406    0.0000 C   0  0  0  0  0  0  0  2  0  0  0  0
    1.3919   -0.1998    0.0000 O   0  0  0  0  0  0  0  2  0  0  0  0
    1.2446   -1.0115    0.0000 Si  0  0  0  0  0  0  0  2  0  0  0  0
    1.5802   -1.7652    0.0000 C   0  0  0  0  0  0  0  2  0  0  0  0
    2.0651   -1.0977    0.0000 C   0  0  0  0  0  0  0  2  0  0  0  0
    0.5181   -1.4024    0.0000 O   0  0  0  0  0  0  0  2  0  0  0  0
   -0.2405   -1.0782    0.0000 Si  0  0  0  0  0  0  0  2  0  0  0  0
   -1.0499   -1.2376    0.0000 C   0  0  0  0  0  0  0  2  0  0  0  0
   -0.5071   -1.8589    0.0000 C   0  0  0  0  0  0  0  2  0  0  0  0
   -0.4600   -0.2829    0.0000 O   0  0  0  0  0  0  0  2  0  0  0  0
  1  2  1  0        0
  2  3  1  0        0
  2  4  1  0        0
  4  5  1  0        0
  5  6  1  0        0
  5  7  1  0        0
  5  8  1  0        0
  8  9  1  0        0
  9 10  1  0        0
  9 11  1  0        0
  9 12  1  0        0
 12 13  1  0        0
 13 14  1  0        0
 13 15  1  0        0
 13 16  1  0        0
 16 17  1  0        0
 17 18  1  0        0
 17 19  1  0        0
 17 20  1  0        0
  2 20  1  0        0
M  END
$$$$

CDXL12

 12 12  0  0  0  0  0  0  0  0999 V2000
    1.5395    0.6188    0.0000 C   0  0  0  0  0  0  0  2  0  0  0  0
    0.7145    0.6188    0.0000 Si  0  0  0  0  0  0  0  2  0  0  0  0
    1.1270    1.3332    0.0000 C   0  0  0  0  0  0  0  2  0  0  0  0
    0.7145   -0.2062    0.0000 O   0  0  0  0  0  0  0  2  0  0  0  0
    0.0000   -0.6187    0.0000 Si  0  0  0  0  0  0  0  2  0  0  0  0
   -0.4125   -1.3332    0.0000 C   0  0  0  0  0  0  0  2  0  0  0  0
    0.4125   -1.3332    0.0000 C   0  0  0  0  0  0  0  2  0  0  0  0
   -0.7145   -0.2062    0.0000 O   0  0  0  0  0  0  0  2  0  0  0  0
   -0.7145    0.6188    0.0000 Si  0  0  0  0  0  0  0  2  0  0  0  0
   -1.1270    1.3332    0.0000 C   0  0  0  0  0  0  0  2  0  0  0  0
   -1.5395    0.6188    0.0000 C   0  0  0  0  0  0  0  2  0  0  0  0
    0.0000    1.0313    0.0000 O   0  0  0  0  0  0  0  2  0  0  0  0
  1  2  1  0        0
  2  3  1  0        0
  2  4  1  0        0
  4  5  1  0        0
  5  6  1  0        0
  5  7  1  0        0
  5  8  1  0        0
  8  9  1  0        0
  9 10  1  0        0
  9 11  1  0        0
  9 12  1  0        0
  2 12  1  0        0
M  END
$$$$

CDXL12

  6  5  0  0  0  0  0  0  0  0999 V2000
    0.7145   -0.2062    0.0000 C   0  0  0  0  0  0  0  2  0  0  0  0
    0.7145    0.6187    0.0000 Cl  0  0  0  0  0  0  0  2  0  0  0  0
    1.4289   -0.6187    0.0000 Cl  0  0  0  0  0  0  0  2  0  0  0  0
    0.0000   -0.6187    0.0000 C   0  0  0  0  0  0  0  2  0  0  0  0
   -0.7145   -0.2062    0.0000 C   0  0  0  0  0  0  0  2  0  0  0  0
   -1.4289   -0.6187    0.0000 C   0  0  0  0  0  0  0  2  0  0  0  0
  1  2  1  0        0
  1  3  1  0        0
  1  4  1  0        0
  4  5  1  0        0
  5  6  1  0        0
M  END
$$$$

CDXL12

  8  8  0  0  0  0  0  0  0  0999 V2000
    0.7145    0.4125    0.0000 C   0  0  0  0  0  0  0  2  0  0  0  0
    0.7145   -0.4125    0.0000 C   0  0  0  0  0  0  0  2  0  0  0  0
    0.0000   -0.8250    0.0000 C   0  0  0  0  0  0  0  2  0  0  0  0
   -0.7145   -0.4125    0.0000 C   0  0  0  0  0  0  0  2  0  0  0  0
   -0.7145    0.4125    0.0000 C   0  0  0  0  0  0  0  2  0  0  0  0
   -1.4289    0.8250    0.0000 Cl  0  0  0  0  0  0  0  2  0  0  0  0
    0.0000    0.8250    0.0000 C   0  0  0  0  0  0  0  2  0  0  0  0
    1.4289    0.8250    0.0000 Cl  0  0  0  0  0  0  0  2  0  0  0  0
  1  2  4  0        0
  2  3  4  0        0
  3  4  4  0        0
  4  5  4  0        0
  5  6  1  0        0
  5  7  4  0        0
  1  7  4  0        0
  1  8  1  0        0
M  END
$$$$

CDXL12

  7  7  0  0  0  0  0  0  0  0999 V2000
    0.3572    0.4125    0.0000 C   0  0  0  0  0  0  0  2  0  0  0  0
    0.3572   -0.4125    0.0000 C   0  0  0  0  0  0  0  2  0  0  0  0
   -0.3572   -0.8250    0.0000 C   0  0  0  0  0  0  0  2  0  0  0  0
   -1.0717   -0.4125    0.0000 C   0  0  0  0  0  0  0  2  0  0  0  0
   -1.0717    0.4125    0.0000 C   0  0  0  0  0  0  0  2  0  0  0  0
   -0.3572    0.8250    0.0000 C   0  0  0  0  0  0  0  2  0  0  0  0
    1.0717    0.8250    0.0000 Cl  0  0  0  0  0  0  0  2  0  0  0  0
  1  2  1  0        0
  2  3  1  0        0
  3  4  1  0        0
  4  5  1  0        0
  5  6  1  0        0
  1  6  1  0        0
  1  7  1  0        0
M  END
$$$$

CDXL12

  7  6  0  0  0  0  0  0  0  0999 V2000
    1.7862   -0.2062    0.0000 O   0  0  0  0  0  0  0  2  0  0  0  0
    1.0717   -0.6187    0.0000 C   0  0  0  0  0  0  0  2  0  0  0  0
    0.3572   -0.2062    0.0000 O   0  0  0  0  0  0  0  2  0  0  0  0
   -0.3572   -0.6187    0.0000 C   0  0  0  0  0  0  0  2  0  0  0  0
   -1.0717   -0.2062    0.0000 C   0  0  0  0  0  0  0  2  0  0  0  0
   -1.7862   -0.6187    0.0000 C   0  0  0  0  0  0  0  2  0  0  0  0
   -1.0717    0.6187    0.0000 C   0  0  0  0  0  0  0  2  0  0  0  0
  1  2  2  0        0
  2  3  1  0        0
  3  4  1  0        0
  4  5  1  0        0
  5  6  1  0        0
  5  7  1  0        0
M  END
$$$$

CDXL12

  5  4  0  0  0  0  0  0  0  0999 V2000
   -0.7145    0.2062    0.0000 C   0  0  0  0  0  0  0  2  0  0  0  0
    0.0000   -0.2062    0.0000 C   0  0  0  0  0  0  0  2  0  0  0  0
    0.7145    0.2062    0.0000 C   0  0  0  0  0  0  0  2  0  0  0  0
    1.4289   -0.2062    0.0000 C   0  0  0  0  0  0  0  2  0  0  0  0
   -1.4289   -0.2062    0.0000 I   0  0  0  0  0  0  0  2  0  0  0  0
  1  2  1  0        0
  2  3  1  0        0
  3  4  1  0        0
  1  5  1  0        0
M  END
$$$$

CDXL12

  5  4  0  0  0  0  0  0  0  0999 V2000
    0.0000   -0.2062    0.0000 C   0  0  0  0  0  0  0  2  0  0  0  0
   -0.7145    0.2062    0.0000 C   0  0  0  0  0  0  0  2  0  0  0  0
   -1.4289   -0.2062    0.0000 Cl  0  0  0  0  0  0  0  2  0  0  0  0
    0.7145    0.2062    0.0000 C   0  0  0  0  0  0  0  2  0  0  0  0
    1.4289   -0.2062    0.0000 Cl  0  0  0  0  0  0  0  2  0  0  0  0
  1  2  2  0        0
  2  3  1  0        0
  1  4  1  0        0
  4  5  1  0        0
M  END
$$$$

CDXL12

  8  7  0  0  0  0  0  0  0  0999 V2000
    1.4289    0.6187    0.0000 O   0  0  0  0  0  0  0  2  0  0  0  0
    1.4289   -0.2062    0.0000 C   0  0  0  0  0  0  0  2  0  0  0  0
    0.7145   -0.6187    0.0000 C   0  0  0  0  0  0  0  2  0  0  0  0
   -0.0000   -0.2062    0.0000 C   0  0  0  0  0  0  0  2  0  0  0  0
   -0.7145   -0.6187    0.0000 C   0  0  0  0  0  0  0  2  0  0  0  0
   -1.4289   -0.2062    0.0000 C   0  0  0  0  0  0  0  2  0  0  0  0
   -2.1434   -0.6187    0.0000 C   0  0  0  0  0  0  0  2  0  0  0  0
    2.1434   -0.6187    0.0000 C   0  0  0  0  0  0  0  2  0  0  0  0
  1  2  1  0        0
  2  3  1  0        0
  3  4  1  0        0
  4  5  1  0        0
  5  6  1  0        0
  6  7  1  0        0
  2  8  1  0        0
M  END
$$$$

CDXL12

  6  5  0  0  0  0  0  0  0  0999 V2000
   -1.7862   -0.2062    0.0000 Cl  0  0  0  0  0  0  0  2  0  0  0  0
   -1.0717    0.2062    0.0000 C   0  0  0  0  0  0  0  2  0  0  0  0
   -0.3572   -0.2062    0.0000 C   0  0  0  0  0  0  0  2  0  0  0  0
    0.3572    0.2062    0.0000 C   0  0  0  0  0  0  0  2  0  0  0  0
    1.0717   -0.2062    0.0000 C   0  0  0  0  0  0  0  2  0  0  0  0
    1.7862    0.2062    0.0000 C   0  0  0  0  0  0  0  2  0  0  0  0
  1  2  1  0        0
  2  3  1  0        0
  3  4  1  0        0
  4  5  1  0        0
  5  6  1  0        0
M  END
$$$$

CDXL12

 11 10  0  0  0  0  0  0  0  0999 V2000
   -0.0000   -0.6188    0.0000 O   0  0  0  0  0  0  0  2  0  0  0  0
    0.7145   -0.2062    0.0000 C   0  0  0  0  0  0  0  2  0  0  0  0
    1.4289   -0.6188    0.0000 C   0  0  0  0  0  0  0  2  0  0  0  0
    2.1434   -0.2062    0.0000 C   0  0  0  0  0  0  0  2  0  0  0  0
    2.1434    0.6187    0.0000 C   0  0  0  0  0  0  0  2  0  0  0  0
    2.8579   -0.6188    0.0000 C   0  0  0  0  0  0  0  2  0  0  0  0
   -0.7145   -0.2062    0.0000 C   0  0  0  0  0  0  0  2  0  0  0  0
   -1.4289   -0.6188    0.0000 C   0  0  0  0  0  0  0  2  0  0  0  0
   -2.1434   -0.2062    0.0000 C   0  0  0  0  0  0  0  2  0  0  0  0
   -2.8579   -0.6187    0.0000 C   0  0  0  0  0  0  0  2  0  0  0  0
   -2.1434    0.6188    0.0000 C   0  0  0  0  0  0  0  2  0  0  0  0
  1  2  1  0        0
  2  3  1  0        0
  3  4  1  0        0
  4  5  1  0        0
  4  6  1  0        0
  1  7  1  0        0
  7  8  1  0        0
  8  9  1  0        0
  9 10  1  0        0
  9 11  1  0        0
M  END
$$$$

CDXL12

  7  6  0  0  0  0  0  0  0  0999 V2000
   -2.1434   -0.2062    0.0000 Cl  0  0  0  0  0  0  0  2  0  0  0  0
   -1.4289    0.2062    0.0000 C   0  0  0  0  0  0  0  2  0  0  0  0
   -0.7145   -0.2062    0.0000 C   0  0  0  0  0  0  0  2  0  0  0  0
    0.0000    0.2062    0.0000 C   0  0  0  0  0  0  0  2  0  0  0  0
    0.7145   -0.2062    0.0000 C   0  0  0  0  0  0  0  2  0  0  0  0
    1.4289    0.2062    0.0000 C   0  0  0  0  0  0  0  2  0  0  0  0
    2.1434   -0.2062    0.0000 C   0  0  0  0  0  0  0  2  0  0  0  0
  1  2  1  0        0
  2  3  1  0        0
  3  4  1  0        0
  4  5  1  0        0
  5  6  1  0        0
  6  7  1  0        0
M  END
$$$$

CDXL12

  7  7  0  0  0  0  0  0  0  0999 V2000
   -0.4125   -0.9036    0.0000 C   0  0  0  0  0  0  0  2  0  0  0  0
   -0.9269   -0.2586    0.0000 C   0  0  0  0  0  0  0  2  0  0  0  0
   -0.7433    0.5457    0.0000 C   0  0  0  0  0  0  0  2  0  0  0  0
    0.0000    0.9036    0.0000 C   0  0  0  0  0  0  0  2  0  0  0  0
    0.7433    0.5457    0.0000 C   0  0  0  0  0  0  0  2  0  0  0  0
    0.9269   -0.2586    0.0000 C   0  0  0  0  0  0  0  2  0  0  0  0
    0.4125   -0.9036    0.0000 C   0  0  0  0  0  0  0  2  0  0  0  0
  1  2  1  0        0
  2  3  2  0        0
  3  4  1  0        0
  4  5  2  0        0
  5  6  1  0        0
  6  7  2  0        0
  1  7  1  0        0
M  END
$$$$

CDXL12

  7  6  0  0  0  0  0  0  0  0999 V2000
    0.0000    1.0312    0.0000 O   0  0  0  0  0  0  0  2  0  0  0  0
    0.0000    0.2062    0.0000 C   0  0  0  0  0  0  0  2  0  0  0  0
    0.7145   -0.2063    0.0000 O   0  0  0  0  0  0  0  2  0  0  0  0
    1.4289    0.2062    0.0000 C   0  0  0  0  0  0  0  2  0  0  0  0
   -0.7145   -0.2063    0.0000 C   0  0  0  0  0  0  0  2  0  0  0  0
   -0.7145   -1.0312    0.0000 O   0  0  0  0  0  0  0  2  0  0  0  0
   -1.4289    0.2062    0.0000 C   0  0  0  0  0  0  0  2  0  0  0  0
  1  2  2  0        0
  2  3  1  0        0
  3  4  1  0        0
  2  5  1  0        0
  5  6  1  0        0
  5  7  1  0        0
M  END
$$$$

CDXL12

 29 31  0  0  0  0  0  0  0  0999 V2000
   -0.7145    3.0938    0.0000 C   0  0  0  0  0  0  0  2  0  0  0  0
   -0.0000    2.6812    0.0000 N   0  0  0  0  0  0  0  2  0  0  0  0
    0.7145    3.0938    0.0000 C   0  0  0  0  0  0  0  2  0  0  0  0
   -0.0000    1.8563    0.0000 C   0  0  0  0  0  0  0  2  0  0  0  0
    0.7145    1.4438    0.0000 C   0  0  0  0  0  0  0  2  0  0  0  0
    0.7145    0.6188    0.0000 C   0  0  0  0  0  0  0  2  0  0  0  0
   -0.0000    0.2062    0.0000 C   0  0  0  0  0  0  0  2  0  0  0  0
   -0.7145    0.6188    0.0000 C   0  0  0  0  0  0  0  2  0  0  0  0
   -0.7145    1.4438    0.0000 C   0  0  0  0  0  0  0  2  0  0  0  0
   -0.0000   -0.6188    0.0000 C   0  0  0  0  0  0  0  2  0  0  0  0
   -0.7145   -1.0313    0.0000 C   0  0  0  0  0  0  0  2  0  0  0  0
   -0.7145   -1.8563    0.0000 C   0  0  0  0  0  0  0  2  0  0  0  0
   -1.4289   -2.2687    0.0000 C   0  0  0  0  0  0  0  2  0  0  0  0
   -2.1434   -1.8563    0.0000 C   0  0  0  0  0  0  0  2  0  0  0  0
   -2.1434   -1.0313    0.0000 C   0  0  0  0  0  0  0  2  0  0  0  0
   -1.4289   -0.6188    0.0000 C   0  0  0  0  0  0  0  2  0  0  0  0
   -2.8579   -2.2687    0.0000 N   0  0  0  0  0  0  0  2  0  0  0  0
   -3.5724   -2.6812    0.0000 Cl  0  0  0  0  0  0  0  2  0  0  0  0
   -2.8579   -3.0937    0.0000 C   0  0  0  0  0  0  0  2  0  0  0  0
   -3.5724   -1.8563    0.0000 C   0  0  0  0  0  0  0  2  0  0  0  0
    0.7145   -1.0313    0.0000 C   0  0  0  0  0  0  0  2  0  0  0  0
    1.4289   -0.6188    0.0000 C   0  0  0  0  0  0  0  2  0  0  0  0
    2.1434   -1.0313    0.0000 C   0  0  0  0  0  0  0  2  0  0  0  0
    2.1434   -1.8563    0.0000 C   0  0  0  0  0  0  0  2  0  0  0  0
    1.4289   -2.2687    0.0000 C   0  0  0  0  0  0  0  2  0  0  0  0
    0.7145   -1.8563    0.0000 C   0  0  0  0  0  0  0  2  0  0  0  0
    2.8579   -2.2687    0.0000 N   0  0  0  0  0  0  0  2  0  0  0  0
    2.8579   -3.0938    0.0000 C   0  0  0  0  0  0  0  2  0  0  0  0
    3.5724   -1.8563    0.0000 C   0  0  0  0  0  0  0  2  0  0  0  0
  1  2  1  0        0
  2  3  1  0        0
  2  4  1  0        0
  4  5  4  0        0
  5  6  4  0        0
  6  7  4  0        0
  7  8  4  0        0
  8  9  4  0        0
  4  9  4  0        0
  7 10  1  0        0
 10 11  2  0        0
 11 12  1  0        0
 12 13  2  0        0
 13 14  1  0        0
 14 15  1  0        0
 15 16  2  0        0
 11 16  1  0        0
 14 17  2  0        0
 17 18  1  0        0
 17 19  1  0        0
 17 20  1  0        0
 10 21  1  0        0
 21 22  4  0        0
 22 23  4  0        0
 23 24  4  0        0
 24 25  4  0        0
 25 26  4  0        0
 21 26  4  0        0
 24 27  1  0        0
 27 28  1  0        0
 27 29  1  0        0
M  END
$$$$

CDXL12

 13 14  0  0  0  0  0  0  0  0999 V2000
    0.3572    0.8250    0.0000 N   0  0  0  0  0  0  0  2  0  0  0  0
    0.3572   -0.0000    0.0000 C   0  0  0  0  0  0  0  2  0  0  0  0
   -0.3572   -0.4125    0.0000 C   0  0  0  0  0  0  0  2  0  0  0  0
   -0.3572   -1.2375    0.0000 C   0  0  0  0  0  0  0  2  0  0  0  0
   -1.0717   -1.6500    0.0000 C   0  0  0  0  0  0  0  2  0  0  0  0
   -1.7862   -1.2375    0.0000 C   0  0  0  0  0  0  0  2  0  0  0  0
   -1.7862   -0.4125    0.0000 C   0  0  0  0  0  0  0  2  0  0  0  0
   -1.0717    0.0000    0.0000 C   0  0  0  0  0  0  0  2  0  0  0  0
    0.3572   -1.6500    0.0000 C   0  0  0  0  0  0  0  2  0  0  0  0
    1.0717   -1.2375    0.0000 C   0  0  0  0  0  0  0  2  0  0  0  0
    1.0717   -0.4125    0.0000 C   0  0  0  0  0  0  0  2  0  0  0  0
    1.0717    1.2375    0.0000 C   0  0  0  0  0  0  0  2  0  0  0  0
    1.7862    1.6500    0.0000 S   0  0  0  0  0  0  0  2  0  0  0  0
  1  2  1  0        0
  2  3  4  0        0
  3  4  4  0        0
  4  5  4  0        0
  5  6  4  0        0
  6  7  4  0        0
  7  8  4  0        0
  3  8  4  0        0
  4  9  4  0        0
  9 10  4  0        0
 10 11  4  0        0
  2 11  4  0        0
  1 12  2  0        0
 12 13  2  0        0
M  END
$$$$

CDXL12

 12 12  0  0  0  0  0  0  0  0999 V2000
    0.7145   -1.6500    0.0000 O   0  0  0  0  0  0  0  2  0  0  0  0
    0.7145   -0.8250    0.0000 C   0  0  0  0  0  0  0  2  0  0  0  0
    1.4289   -0.4125    0.0000 O   0  0  0  0  0  0  0  2  0  0  0  0
    0.0000   -0.4125    0.0000 C   0  0  0  0  0  0  0  2  0  0  0  0
    0.0000    0.4125    0.0000 C   0  0  0  0  0  0  0  2  0  0  0  0
    0.7145    0.8250    0.0000 N   0  0  0  0  0  0  0  2  0  0  0  0
    0.7145    1.6500    0.0000 O   0  0  0  0  0  0  0  2  0  0  0  0
    1.4289    0.4125    0.0000 O   0  0  0  0  0  0  0  2  0  0  0  0
   -0.7145    0.8250    0.0000 C   0  0  0  0  0  0  0  2  0  0  0  0
   -1.4289    0.4125    0.0000 C   0  0  0  0  0  0  0  2  0  0  0  0
   -1.4289   -0.4125    0.0000 C   0  0  0  0  0  0  0  2  0  0  0  0
   -0.7145   -0.8250    0.0000 C   0  0  0  0  0  0  0  2  0  0  0  0
  1  2  2  0        0
  2  3  1  0        0
  2  4  1  0        0
  4  5  4  0        0
  5  6  1  0        0
  6  7  2  0        0
  6  8  2  0        0
  5  9  4  0        0
  9 10  4  0        0
 10 11  4  0        0
 11 12  4  0        0
  4 12  4  0        0
M  END
$$$$

CDXL12

 13 13  0  0  0  0  0  0  0  0999 V2000
   -1.0717    1.0313    0.0000 O   0  0  0  0  0  0  0  2  0  0  0  0
   -1.0717    0.2062    0.0000 C   0  0  0  0  0  0  0  2  0  0  0  0
   -0.3572   -0.2062    0.0000 N   0  0  0  0  0  0  0  2  0  0  0  0
    0.3572    0.2062    0.0000 C   0  0  0  0  0  0  0  2  0  0  0  0
    1.0717   -0.2062    0.0000 C   0  0  0  0  0  0  0  2  0  0  0  0
    1.0717   -1.0313    0.0000 N   0  0  0  0  0  0  0  2  0  0  0  0
    1.7862   -1.4438    0.0000 O   0  0  0  0  0  0  0  2  0  0  0  0
    0.3572   -1.4437    0.0000 O   0  0  0  0  0  0  0  2  0  0  0  0
    1.7862    0.2062    0.0000 C   0  0  0  0  0  0  0  2  0  0  0  0
    1.7862    1.0313    0.0000 C   0  0  0  0  0  0  0  2  0  0  0  0
    1.0717    1.4438    0.0000 C   0  0  0  0  0  0  0  2  0  0  0  0
    0.3572    1.0313    0.0000 C   0  0  0  0  0  0  0  2  0  0  0  0
   -1.7862   -0.2062    0.0000 C   0  0  0  0  0  0  0  2  0  0  0  0
  1  2  2  0        0
  2  3  1  0        0
  3  4  1  0        0
  4  5  4  0        0
  5  6  1  0        0
  6  7  2  0        0
  6  8  2  0        0
  5  9  4  0        0
  9 10  4  0        0
 10 11  4  0        0
 11 12  4  0        0
  4 12  4  0        0
  2 13  1  0        0
M  END
$$$$

CDXL12

 11 11  0  0  0  0  0  0  0  0999 V2000
    1.4289   -0.8250    0.0000 O   0  0  0  0  0  0  0  2  0  0  0  0
    0.7145   -1.2375    0.0000 C   0  0  0  0  0  0  0  2  0  0  0  0
    0.0000   -0.8250    0.0000 C   0  0  0  0  0  0  0  2  0  0  0  0
    0.0000    0.0000    0.0000 C   0  0  0  0  0  0  0  2  0  0  0  0
    0.7145    0.4125    0.0000 N   0  0  0  0  0  0  0  2  0  0  0  0
    0.7145    1.2375    0.0000 O   0  0  0  0  0  0  0  2  0  0  0  0
    1.4289   -0.0000    0.0000 O   0  0  0  0  0  0  0  2  0  0  0  0
   -0.7145    0.4125    0.0000 C   0  0  0  0  0  0  0  2  0  0  0  0
   -1.4289   -0.0000    0.0000 C   0  0  0  0  0  0  0  2  0  0  0  0
   -1.4289   -0.8250    0.0000 C   0  0  0  0  0  0  0  2  0  0  0  0
   -0.7145   -1.2375    0.0000 C   0  0  0  0  0  0  0  2  0  0  0  0
  1  2  2  0        0
  2  3  1  0        0
  3  4  4  0        0
  4  5  1  0        0
  5  6  2  0        0
  5  7  2  0        0
  4  8  4  0        0
  8  9  4  0        0
  9 10  4  0        0
 10 11  4  0        0
  3 11  4  0        0
M  END
$$$$

CDXL12

  8  7  0  0  0  0  0  0  0  0999 V2000
   -0.3572   -1.0313    0.0000 O   0  0  0  0  0  0  0  2  0  0  0  0
   -0.3572   -0.2062    0.0000 C   0  0  0  0  0  0  0  2  0  0  0  0
   -1.0717    0.2062    0.0000 O   0  0  0  0  0  0  0  2  0  0  0  0
   -1.7862   -0.2062    0.0000 C   0  0  0  0  0  0  0  2  0  0  0  0
    0.3572    0.2062    0.0000 C   0  0  0  0  0  0  0  2  0  0  0  0
    0.3572    1.0313    0.0000 O   0  0  0  0  0  0  0  2  0  0  0  0
    1.0717   -0.2062    0.0000 O   0  0  0  0  0  0  0  2  0  0  0  0
    1.7862    0.2062    0.0000 C   0  0  0  0  0  0  0  2  0  0  0  0
  1  2  2  0        0
  2  3  1  0        0
  3  4  1  0        0
  2  5  1  0        0
  5  6  2  0        0
  5  7  1  0        0
  7  8  1  0        0
M  END
$$$$

CDXL12

  9  9  0  0  0  0  0  0  0  0999 V2000
    1.4289    0.8250    0.0000 N   0  0  0  0  0  0  0  2  0  0  0  0
    0.7145    0.4125    0.0000 C   0  0  0  0  0  0  0  2  0  0  0  0
    0.7145   -0.4125    0.0000 C   0  0  0  0  0  0  0  2  0  0  0  0
    0.0000   -0.8250    0.0000 C   0  0  0  0  0  0  0  2  0  0  0  0
   -0.7145   -0.4125    0.0000 C   0  0  0  0  0  0  0  2  0  0  0  0
   -0.7145    0.4125    0.0000 C   0  0  0  0  0  0  0  2  0  0  0  0
    0.0000    0.8250    0.0000 C   0  0  0  0  0  0  0  2  0  0  0  0
   -1.4289   -0.8250    0.0000 Cl  0  0  0  0  0  0  0  2  0  0  0  0
    1.4289   -0.8250    0.0000 Cl  0  0  0  0  0  0  0  2  0  0  0  0
  1  2  1  0        0
  2  3  4  0        0
  3  4  4  0        0
  4  5  4  0        0
  5  6  4  0        0
  6  7  4  0        0
  2  7  4  0        0
  5  8  1  0        0
  3  9  1  0        0
M  END
$$$$

CDXL12

  6  5  0  0  0  0  0  0  0  0999 V2000
    0.0000    0.6188    0.0000 O   0  0  0  0  0  0  0  2  0  0  0  0
    0.0000   -0.2062    0.0000 C   0  0  0  0  0  0  0  2  0  0  0  0
    0.7145   -0.6188    0.0000 O   0  0  0  0  0  0  0  2  0  0  0  0
    1.4289   -0.2062    0.0000 C   0  0  0  0  0  0  0  2  0  0  0  0
   -0.7145   -0.6187    0.0000 C   0  0  0  0  0  0  0  2  0  0  0  0
   -1.4289   -0.2062    0.0000 C   0  0  0  0  0  0  0  2  0  0  0  0
  1  2  2  0        0
  2  3  1  0        0
  3  4  1  0        0
  2  5  1  0        0
  5  6  1  0        0
M  END
$$$$

CDXL12

  8  7  0  0  0  0  0  0  0  0999 V2000
    1.4289   -0.2062    0.0000 C   0  0  0  0  0  0  0  2  0  0  0  0
    0.7145   -0.6188    0.0000 C   0  0  0  0  0  0  0  2  0  0  0  0
    0.0000   -0.2063    0.0000 N   0  0  0  0  0  0  0  2  0  0  0  0
   -0.7145   -0.6188    0.0000 C   0  0  0  0  0  0  0  2  0  0  0  0
   -1.4289   -0.2063    0.0000 C   0  0  0  0  0  0  0  2  0  0  0  0
    0.0000    0.6188    0.0000 C   0  0  0  0  0  0  0  2  0  0  0  0
    0.7145    1.0313    0.0000 C   0  0  0  0  0  0  0  2  0  0  0  0
    0.0000   -1.0313    0.0000 Cl  0  0  0  0  0  0  0  2  0  0  0  0
  1  2  1  0        0
  2  3  1  0        0
  3  4  1  0        0
  4  5  1  0        0
  3  6  1  0        0
  6  7  1  0        0
  3  8  1  0        0
M  END
$$$$

CDXL12

 15 15  0  0  0  0  0  0  0  0999 V2000
   -1.4289    1.8562    0.0000 O   0  0  0  0  0  0  0  2  0  0  0  0
   -1.4289    1.0312    0.0000 C   0  0  0  0  0  0  0  2  0  0  0  0
   -2.1434    0.6187    0.0000 O   0  0  0  0  0  0  0  2  0  0  0  0
   -0.7145    0.6187    0.0000 C   0  0  0  0  0  0  0  2  0  0  0  0
   -0.7145   -0.2063    0.0000 C   0  0  0  0  0  0  0  2  0  0  0  0
    0.0000   -0.6188    0.0000 C   0  0  0  0  0  0  0  2  0  0  0  0
    0.7145   -0.2063    0.0000 C   0  0  0  0  0  0  0  2  0  0  0  0
    0.7145    0.6187    0.0000 C   0  0  0  0  0  0  0  2  0  0  0  0
    1.4289    1.0312    0.0000 C   0  0  0  0  0  0  0  2  0  0  0  0
    1.4289    1.8562    0.0000 O   0  0  0  0  0  0  0  2  0  0  0  0
    2.1434    0.6187    0.0000 O   0  0  0  0  0  0  0  2  0  0  0  0
    0.0000    1.0312    0.0000 C   0  0  0  0  0  0  0  2  0  0  0  0
    0.0000   -1.4437    0.0000 C   0  0  0  0  0  0  0  2  0  0  0  0
   -0.7145   -1.8562    0.0000 O   0  0  0  0  0  0  0  2  0  0  0  0
    0.7145   -1.8562    0.0000 O   0  0  0  0  0  0  0  2  0  0  0  0
  1  2  2  0        0
  2  3  1  0        0
  2  4  1  0        0
  4  5  4  0        0
  5  6  4  0        0
  6  7  4  0        0
  7  8  4  0        0
  8  9  1  0        0
  9 10  2  0        0
  9 11  1  0        0
  8 12  4  0        0
  4 12  4  0        0
  6 13  1  0        0
 13 14  2  0        0
 13 15  1  0        0
M  END
$$$$

CDXL12

 11 11  0  0  0  0  0  0  0  0999 V2000
    2.1434   -0.8250    0.0000 O   0  0  0  0  0  0  0  2  0  0  0  0
    1.4289   -1.2375    0.0000 C   0  0  0  0  0  0  0  2  0  0  0  0
    0.7145   -0.8250    0.0000 C   0  0  0  0  0  0  0  2  0  0  0  0
    0.0000   -1.2375    0.0000 C   0  0  0  0  0  0  0  2  0  0  0  0
   -0.7145   -0.8250    0.0000 C   0  0  0  0  0  0  0  2  0  0  0  0
   -0.7145    0.0000    0.0000 C   0  0  0  0  0  0  0  2  0  0  0  0
   -1.4289    0.4125    0.0000 N   0  0  0  0  0  0  0  2  0  0  0  0
   -1.4289    1.2375    0.0000 O   0  0  0  0  0  0  0  2  0  0  0  0
   -2.1434    0.0000    0.0000 O   0  0  0  0  0  0  0  2  0  0  0  0
    0.0000    0.4125    0.0000 C   0  0  0  0  0  0  0  2  0  0  0  0
    0.7145    0.0000    0.0000 C   0  0  0  0  0  0  0  2  0  0  0  0
  1  2  2  0        0
  2  3  1  0        0
  3  4  4  0        0
  4  5  4  0        0
  5  6  4  0        0
  6  7  1  0        0
  7  8  2  0        0
  7  9  2  0        0
  6 10  4  0        0
 10 11  4  0        0
  3 11  4  0        0
M  END
$$$$

CDXL12

 17 17  0  0  0  0  0  0  0  0999 V2000
   -3.5724   -0.4125    0.0000 C   0  0  0  0  0  0  0  2  0  0  0  0
   -2.8579    0.0000    0.0000 C   0  0  0  0  0  0  0  2  0  0  0  0
   -2.1434   -0.4125    0.0000 C   0  0  0  0  0  0  0  2  0  0  0  0
   -1.4289    0.0000    0.0000 C   0  0  0  0  0  0  0  2  0  0  0  0
   -0.7145   -0.4125    0.0000 N   0  0  0  0  0  0  0  2  0  0  0  0
   -0.7145   -1.2375    0.0000 C   0  0  0  0  0  0  0  2  0  0  0  0
    0.0000    0.0000    0.0000 C   0  0  0  0  0  0  0  2  0  0  0  0
    0.0000    0.8250    0.0000 O   0  0  0  0  0  0  0  2  0  0  0  0
    0.7145   -0.4125    0.0000 N   0  0  0  0  0  0  0  2  0  0  0  0
    1.4289    0.0000    0.0000 C   0  0  0  0  0  0  0  2  0  0  0  0
    1.4289    0.8250    0.0000 C   0  0  0  0  0  0  0  2  0  0  0  0
    2.1434    1.2375    0.0000 C   0  0  0  0  0  0  0  2  0  0  0  0
    2.8579    0.8250    0.0000 C   0  0  0  0  0  0  0  2  0  0  0  0
    3.5724    1.2375    0.0000 Cl  0  0  0  0  0  0  0  2  0  0  0  0
    2.8579    0.0000    0.0000 C   0  0  0  0  0  0  0  2  0  0  0  0
    3.5724   -0.4125    0.0000 Cl  0  0  0  0  0  0  0  2  0  0  0  0
    2.1434   -0.4125    0.0000 C   0  0  0  0  0  0  0  2  0  0  0  0
  1  2  1  0        0
  2  3  1  0        0
  3  4  1  0        0
  4  5  1  0        0
  5  6  1  0        0
  5  7  1  0        0
  7  8  2  0        0
  7  9  1  0        0
  9 10  1  0        0
 10 11  4  0        0
 11 12  4  0        0
 12 13  4  0        0
 13 14  1  0        0
 13 15  4  0        0
 15 16  1  0        0
 15 17  4  0        0
 10 17  4  0        0
M  END
$$$$

CDXL12

 10  9  0  0  0  0  0  0  0  0999 V2000
   -2.1434   -1.2375    0.0000 Cl  0  0  0  0  0  0  0  2  0  0  0  0
   -1.4289   -0.8250    0.0000 C   0  0  0  0  0  0  0  2  0  0  0  0
   -0.7145   -1.2375    0.0000 C   0  0  0  0  0  0  0  2  0  0  0  0
    0.0000   -0.8250    0.0000 N   0  0  0  0  0  0  0  2  0  0  0  0
    0.7145   -1.2375    0.0000 C   0  0  0  0  0  0  0  2  0  0  0  0
    1.4289   -0.8250    0.0000 C   0  0  0  0  0  0  0  2  0  0  0  0
    2.1434   -1.2375    0.0000 Cl  0  0  0  0  0  0  0  2  0  0  0  0
    0.0000    0.0000    0.0000 C   0  0  0  0  0  0  0  2  0  0  0  0
   -0.7145    0.4125    0.0000 C   0  0  0  0  0  0  0  2  0  0  0  0
   -0.7145    1.2375    0.0000 Cl  0  0  0  0  0  0  0  2  0  0  0  0
  1  2  1  0        0
  2  3  1  0        0
  3  4  1  0        0
  4  5  1  0        0
  5  6  1  0        0
  6  7  1  0        0
  4  8  1  0        0
  8  9  1  0        0
  9 10  1  0        0
M  END
$$$$

CDXL12

 13 13  0  0  0  0  0  0  0  0999 V2000
    1.7862    1.2375    0.0000 O   0  0  0  0  0  0  0  2  0  0  0  0
    1.7862    0.4125    0.0000 C   0  0  0  0  0  0  0  2  0  0  0  0
    2.5006   -0.0000    0.0000 O   0  0  0  0  0  0  0  2  0  0  0  0
    1.0717   -0.0000    0.0000 C   0  0  0  0  0  0  0  2  0  0  0  0
    1.0717   -0.8250    0.0000 N   0  0  0  0  0  0  0  2  0  0  0  0
    0.3572    0.4125    0.0000 C   0  0  0  0  0  0  0  2  0  0  0  0
   -0.3572   -0.0000    0.0000 C   0  0  0  0  0  0  0  2  0  0  0  0
   -0.3572   -0.8250    0.0000 C   0  0  0  0  0  0  0  2  0  0  0  0
   -1.0717   -1.2375    0.0000 C   0  0  0  0  0  0  0  2  0  0  0  0
   -1.7862   -0.8250    0.0000 C   0  0  0  0  0  0  0  2  0  0  0  0
   -2.5006   -1.2375    0.0000 O   0  0  0  0  0  0  0  2  0  0  0  0
   -1.7862   -0.0000    0.0000 C   0  0  0  0  0  0  0  2  0  0  0  0
   -1.0717    0.4125    0.0000 C   0  0  0  0  0  0  0  2  0  0  0  0
  1  2  2  0        0
  2  3  1  0        0
  2  4  1  0        0
  4  5  1  0        0
  4  6  1  0        0
  6  7  1  0        0
  7  8  4  0        0
  8  9  4  0        0
  9 10  4  0        0
 10 11  1  0        0
 10 12  4  0        0
 12 13  4  0        0
  7 13  4  0        0
M  END
$$$$

CDXL12

 13 12  0  0  0  0  0  0  0  0999 V2000
   -3.2151    0.2062    0.0000 N   0  0  0  0  0  0  0  2  0  0  0  0
   -2.5006   -0.2062    0.0000 C   0  0  0  0  0  0  0  2  0  0  0  0
   -1.7862    0.2062    0.0000 C   0  0  0  0  0  0  0  2  0  0  0  0
   -1.7862    1.0312    0.0000 O   0  0  0  0  0  0  0  2  0  0  0  0
   -1.0717   -0.2062    0.0000 N   0  0  0  0  0  0  0  2  0  0  0  0
   -0.3572    0.2063    0.0000 C   0  0  0  0  0  0  0  2  0  0  0  0
    0.3572   -0.2062    0.0000 C   0  0  0  0  0  0  0  2  0  0  0  0
    0.3572   -1.0312    0.0000 O   0  0  0  0  0  0  0  2  0  0  0  0
    1.0717    0.2062    0.0000 N   0  0  0  0  0  0  0  2  0  0  0  0
    1.7862   -0.2062    0.0000 C   0  0  0  0  0  0  0  2  0  0  0  0
    2.5006    0.2062    0.0000 C   0  0  0  0  0  0  0  2  0  0  0  0
    3.2151   -0.2062    0.0000 O   0  0  0  0  0  0  0  2  0  0  0  0
    2.5006    1.0312    0.0000 O   0  0  0  0  0  0  0  2  0  0  0  0
  1  2  1  0        0
  2  3  1  0        0
  3  4  2  0        0
  3  5  1  0        0
  5  6  1  0        0
  6  7  1  0        0
  7  8  2  0        0
  7  9  1  0        0
  9 10  1  0        0
 10 11  1  0        0
 11 12  1  0        0
 11 13  2  0        0
M  END
$$$$

CDXL12

  9  8  0  0  0  0  0  0  0  0999 V2000
   -0.7145   -1.0312    0.0000 O   0  0  0  0  0  0  0  2  0  0  0  0
   -0.7145   -0.2062    0.0000 C   0  0  0  0  0  0  0  2  0  0  0  0
    0.0000    0.2063    0.0000 N   0  0  0  0  0  0  0  2  0  0  0  0
    0.7145   -0.2062    0.0000 C   0  0  0  0  0  0  0  2  0  0  0  0
    1.4289    0.2062    0.0000 C   0  0  0  0  0  0  0  2  0  0  0  0
    1.4289    1.0312    0.0000 O   0  0  0  0  0  0  0  2  0  0  0  0
    2.1434   -0.2062    0.0000 O   0  0  0  0  0  0  0  2  0  0  0  0
   -1.4289    0.2062    0.0000 C   0  0  0  0  0  0  0  2  0  0  0  0
   -2.1434   -0.2062    0.0000 N   0  0  0  0  0  0  0  2  0  0  0  0
  1  2  2  0        0
  2  3  1  0        0
  3  4  1  0        0
  4  5  1  0        0
  5  6  2  0        0
  5  7  1  0        0
  2  8  1  0        0
  8  9  1  0        0
M  END
$$$$

CDXL12

  7  6  0  0  0  0  0  0  0  0999 V2000
   -0.7145    0.6187    0.0000 O   0  0  0  0  0  0  0  2  0  0  0  0
   -0.7145   -0.2062    0.0000 N   0  0  0  0  0  0  0  2  0  0  0  0
   -1.4289   -0.6187    0.0000 O   0  0  0  0  0  0  0  2  0  0  0  0
    0.0000   -0.6187    0.0000 N   0  0  0  0  0  0  0  2  0  0  0  0
    0.7145   -0.2062    0.0000 C   0  0  0  0  0  0  0  2  0  0  0  0
    0.7145    0.6187    0.0000 N   0  0  0  0  0  0  0  2  0  0  0  0
    1.4289   -0.6187    0.0000 N   0  0  0  0  0  0  0  2  0  0  0  0
  1  2  2  0        0
  2  3  2  0        0
  2  4  1  0        0
  4  5  1  0        0
  5  6  2  0        0
  5  7  1  0        0
M  END
$$$$

CDXL12

  7  6  0  0  0  0  0  0  0  0999 V2000
    1.0717    0.6187    0.0000 O   0  0  0  0  0  0  0  2  0  0  0  0
    1.0717   -0.2062    0.0000 C   0  0  0  0  0  0  0  2  0  0  0  0
    0.3572   -0.6187    0.0000 N   0  0  0  0  0  0  0  2  0  0  0  0
   -0.3572   -0.2062    0.0000 C   0  0  0  0  0  0  0  2  0  0  0  0
   -1.0717   -0.6187    0.0000 C   0  0  0  0  0  0  0  2  0  0  0  0
   -1.7862   -0.2062    0.0000 C   0  0  0  0  0  0  0  2  0  0  0  0
    1.7862   -0.6187    0.0000 N   0  0  0  0  0  0  0  2  0  0  0  0
  1  2  2  0        0
  2  3  1  0        0
  3  4  1  0        0
  4  5  1  0        0
  5  6  2  0        0
  2  7  1  0        0
M  END
$$$$

CDXL12

  5  4  0  0  0  0  0  0  0  0999 V2000
   -1.4289   -0.2062    0.0000 C   0  0  0  0  0  0  0  2  0  0  0  0
   -0.7145    0.2062    0.0000 C   0  0  0  0  0  0  0  2  0  0  0  0
    0.0000   -0.2062    0.0000 C   0  0  0  0  0  0  0  2  0  0  0  0
    0.7145    0.2062    0.0000 O   0  0  0  0  0  0  0  2  0  0  0  0
    1.4289   -0.2062    0.0000 C   0  0  0  0  0  0  0  2  0  0  0  0
  1  2  1  0        0
  2  3  1  0        0
  3  4  1  0        0
  4  5  1  0        0
M  END
$$$$

CDXL12

  7  6  0  0  0  0  0  0  0  0999 V2000
    0.0000    0.2062    0.0000 O   0  0  0  0  0  0  0  2  0  0  0  0
   -0.7145   -0.2062    0.0000 C   0  0  0  0  0  0  0  2  0  0  0  0
   -1.4289    0.2062    0.0000 C   0  0  0  0  0  0  0  2  0  0  0  0
   -2.1434   -0.2062    0.0000 C   0  0  0  0  0  0  0  2  0  0  0  0
    0.7145   -0.2062    0.0000 C   0  0  0  0  0  0  0  2  0  0  0  0
    1.4289    0.2062    0.0000 C   0  0  0  0  0  0  0  2  0  0  0  0
    2.1434   -0.2062    0.0000 C   0  0  0  0  0  0  0  2  0  0  0  0
  1  2  1  0        0
  2  3  1  0        0
  3  4  2  0        0
  1  5  1  0        0
  5  6  1  0        0
  6  7  2  0        0
M  END
$$$$

CDXL12

  5  4  0  0  0  0  0  0  0  0999 V2000
   -0.8250   -0.0000    0.0000 Br  0  0  0  0  0  0  0  2  0  0  0  0
    0.0000   -0.0000    0.0000 C   0  0  0  0  0  0  0  2  0  0  0  0
    0.0000   -0.8250    0.0000 Br  0  0  0  0  0  0  0  2  0  0  0  0
    0.8250   -0.0000    0.0000 Br  0  0  0  0  0  0  0  2  0  0  0  0
    0.0000    0.8250    0.0000 Br  0  0  0  0  0  0  0  2  0  0  0  0
  1  2  1  0        0
  2  3  1  0        0
  2  4  1  0        0
  2  5  1  0        0
M  END
$$$$

CDXL12

 27 31  0  0  0  0  0  0  0  0999 V2000
   -0.3088    3.1518    0.0000 C   0  0  0  0  0  0  0  2  0  0  0  0
   -0.3088    2.3268    0.0000 N   0  0  0  0  0  0  0  2  0  0  0  0
    0.5074    1.8849    0.0000 C   0  0  0  0  0  0  0  2  0  0  0  0
    0.4820    0.9572    0.0000 C   0  0  0  0  0  0  0  2  0  0  0  0
   -0.3572    0.5607    0.0000 C   0  0  0  0  0  0  0  2  0  0  0  0
    0.3572    0.1482    0.0000 C   0  0  0  0  0  0  0  2  0  0  0  0
   -0.0836   -0.7382    0.0000 O   0  0  0  0  0  0  0  2  0  0  0  0
   -1.0717   -0.6768    0.0000 C   0  0  0  0  0  0  0  2  0  0  0  0
   -1.7862   -1.0893    0.0000 C   0  0  0  0  0  0  0  2  0  0  0  0
   -1.7862   -1.9143    0.0000 O   0  0  0  0  0  0  0  2  0  0  0  0
   -2.5006   -2.3268    0.0000 C   0  0  0  0  0  0  0  2  0  0  0  0
   -3.2151   -1.9143    0.0000 C   0  0  0  0  0  0  0  2  0  0  0  0
   -2.5006   -3.1518    0.0000 O   0  0  0  0  0  0  0  2  0  0  0  0
   -2.5006   -0.6768    0.0000 C   0  0  0  0  0  0  0  2  0  0  0  0
   -2.5006    0.1482    0.0000 C   0  0  0  0  0  0  0  2  0  0  0  0
   -1.7862    0.5607    0.0000 C   0  0  0  0  0  0  0  2  0  0  0  0
   -1.7862    1.3857    0.0000 C   0  0  0  0  0  0  0  2  0  0  0  0
   -1.0717    1.7982    0.0000 C   0  0  0  0  0  0  0  2  0  0  0  0
   -0.3572    1.3857    0.0000 C   0  0  0  0  0  0  0  2  0  0  0  0
    0.3572    1.7982    0.0000 C   0  0  0  0  0  0  0  2  0  0  0  0
    1.0717    1.3857    0.0000 C   0  0  0  0  0  0  0  2  0  0  0  0
    1.0717    0.5607    0.0000 C   0  0  0  0  0  0  0  2  0  0  0  0
    1.7862    0.1482    0.0000 O   0  0  0  0  0  0  0  2  0  0  0  0
    2.5006    0.5607    0.0000 C   0  0  0  0  0  0  0  2  0  0  0  0
    3.2151    0.1482    0.0000 C   0  0  0  0  0  0  0  2  0  0  0  0
    2.5006    1.3857    0.0000 O   0  0  0  0  0  0  0  2  0  0  0  0
   -1.0717    0.1482    0.0000 C   0  0  0  0  0  0  0  2  0  0  0  0
  1  2  1  0        0
  2  3  1  0        0
  3  4  1  0        0
  4  5  1  0        0
  5  6  1  0        0
  6  7  1  0        0
  7  8  1  0        0
  8  9  4  0        0
  9 10  1  0        0
 10 11  1  0        0
 11 12  1  0        0
 11 13  2  0        0
  9 14  4  0        0
 14 15  4  0        0
 15 16  4  0        0
 16 17  1  0        0
 17 18  1  0        0
  2 18  1  0        0
 18 19  1  0        0
  5 19  1  0        0
 19 20  1  0        0
 20 21  2  0        0
 21 22  1  0        0
  6 22  1  0        0
 22 23  1  0        0
 23 24  1  0        0
 24 25  1  0        0
 24 26  2  0        0
 16 27  4  0        0
  5 27  1  0        0
  8 27  4  0        0
M  END
$$$$

CDXL12

  7  6  0  0  0  0  0  0  0  0999 V2000
    0.0000   -0.1510    0.0000 C   0  0  0  0  0  0  0  2  0  0  0  0
    0.7145   -0.5635    0.0000 C   0  0  0  0  0  0  0  2  0  0  0  0
    1.4289   -0.1510    0.0000 C   0  0  0  0  0  0  0  2  0  0  0  0
   -0.7145   -0.5635    0.0000 C   0  0  0  0  0  0  0  2  0  0  0  0
   -1.4289   -0.1510    0.0000 C   0  0  0  0  0  0  0  2  0  0  0  0
   -0.4125    0.5635    0.0000 C   0  0  0  0  0  0  0  2  0  0  0  0
    0.4125    0.5635    0.0000 C   0  0  0  0  0  0  0  2  0  0  0  0
  1  2  1  0        0
  2  3  1  0        0
  1  4  1  0        0
  4  5  1  0        0
  1  6  1  0        0
  1  7  1  0        0
M  END
$$$$

CDXL12

  5  4  0  0  0  0  0  0  0  0999 V2000
   -0.3572   -0.6187    0.0000 C   0  0  0  0  0  0  0  2  0  0  0  0
    0.3572   -0.2062    0.0000 C   0  0  0  0  0  0  0  2  0  0  0  0
    0.3572    0.6187    0.0000 C   0  0  0  0  0  0  0  2  0  0  0  0
    1.0717   -0.6187    0.0000 C   0  0  0  0  0  0  0  2  0  0  0  0
   -1.0717   -0.2062    0.0000 C   0  0  0  0  0  0  0  2  0  0  0  0
  1  2  1  0        0
  2  3  1  0        0
  2  4  1  0        0
  1  5  2  0        0
M  END
$$$$

CDXL12

  5  4  0  0  0  0  0  0  0  0999 V2000
   -0.3572   -0.2062    0.0000 C   0  0  0  0  0  0  0  2  0  0  0  0
   -1.0717   -0.6187    0.0000 C   0  0  0  0  0  0  0  2  0  0  0  0
    0.3572   -0.6188    0.0000 C   0  0  0  0  0  0  0  2  0  0  0  0
    1.0717   -0.2062    0.0000 C   0  0  0  0  0  0  0  2  0  0  0  0
   -0.3572    0.6188    0.0000 C   0  0  0  0  0  0  0  2  0  0  0  0
  1  2  2  0        0
  1  3  1  0        0
  3  4  1  0        0
  1  5  1  0        0
M  END
$$$$

CDXL12

  5  4  0  0  0  0  0  0  0  0999 V2000
   -0.3572   -0.2062    0.0000 C   0  0  0  0  0  0  0  2  0  0  0  0
   -1.0717   -0.6187    0.0000 C   0  0  0  0  0  0  0  2  0  0  0  0
    0.3572   -0.6188    0.0000 C   0  0  0  0  0  0  0  2  0  0  0  0
    1.0717   -0.2062    0.0000 Cl  0  0  0  0  0  0  0  2  0  0  0  0
   -0.3572    0.6188    0.0000 C   0  0  0  0  0  0  0  2  0  0  0  0
  1  2  2  0        0
  1  3  1  0        0
  3  4  1  0        0
  1  5  1  0        0
M  END
$$$$

CDXL12

  6  7  0  0  0  0  0  0  0  0999 V2000
   -1.1822    0.2062    0.0000 C   0  0  0  0  0  0  0  2  0  0  0  0
   -0.7697    0.9207    0.0000 O   0  0  0  0  0  0  0  2  0  0  0  0
   -0.3572    0.2062    0.0000 C   0  0  0  0  0  0  0  2  0  0  0  0
    0.3572   -0.2062    0.0000 C   0  0  0  0  0  0  0  2  0  0  0  0
    1.1822   -0.2062    0.0000 C   0  0  0  0  0  0  0  2  0  0  0  0
    0.7697   -0.9207    0.0000 O   0  0  0  0  0  0  0  2  0  0  0  0
  1  2  1  0        0
  2  3  1  0        0
  1  3  1  0        0
  3  4  1  0        0
  4  5  1  0        0
  5  6  1  0        0
  4  6  1  0        0
M  END
$$$$

CDXL12

  7  6  0  0  0  0  0  0  0  0999 V2000
    0.7145    0.2062    0.0000 C   0  0  0  0  0  0  0  2  0  0  0  0
    0.0000   -0.2062    0.0000 C   0  0  0  0  0  0  0  2  0  0  0  0
   -0.7145    0.2062    0.0000 C   0  0  0  0  0  0  0  2  0  0  0  0
   -1.4289   -0.2062    0.0000 C   0  0  0  0  0  0  0  2  0  0  0  0
    0.0000   -1.0313    0.0000 C   0  0  0  0  0  0  0  2  0  0  0  0
    0.7145    1.0313    0.0000 C   0  0  0  0  0  0  0  2  0  0  0  0
    1.4289   -0.2062    0.0000 C   0  0  0  0  0  0  0  2  0  0  0  0
  1  2  1  0        0
  2  3  1  0        0
  3  4  1  0        0
  2  5  1  0        0
  1  6  1  0        0
  1  7  1  0        0
M  END
$$$$

CDXL12

  7  6  0  0  0  0  0  0  0  0999 V2000
   -1.4289   -0.2062    0.0000 C   0  0  0  0  0  0  0  2  0  0  0  0
   -0.7145    0.2062    0.0000 C   0  0  0  0  0  0  0  2  0  0  0  0
   -0.7145    1.0313    0.0000 O   0  0  0  0  0  0  0  2  0  0  0  0
    0.0000   -0.2062    0.0000 C   0  0  0  0  0  0  0  2  0  0  0  0
    0.0000   -1.0313    0.0000 C   0  0  0  0  0  0  0  2  0  0  0  0
    0.7145    0.2062    0.0000 C   0  0  0  0  0  0  0  2  0  0  0  0
    1.4289   -0.2062    0.0000 C   0  0  0  0  0  0  0  2  0  0  0  0
  1  2  1  0        0
  2  3  1  0        0
  2  4  1  0        0
  4  5  1  0        0
  4  6  1  0        0
  6  7  1  0        0
M  END
$$$$

CDXL12

  7  6  0  0  0  0  0  0  0  0999 V2000
    1.4289   -0.2062    0.0000 C   0  0  0  0  0  0  0  2  0  0  0  0
    0.7145    0.2062    0.0000 C   0  0  0  0  0  0  0  2  0  0  0  0
    0.7145    1.0313    0.0000 O   0  0  0  0  0  0  0  2  0  0  0  0
    0.0000   -0.2062    0.0000 C   0  0  0  0  0  0  0  2  0  0  0  0
    0.0000   -1.0313    0.0000 C   0  0  0  0  0  0  0  2  0  0  0  0
   -0.7145    0.2062    0.0000 C   0  0  0  0  0  0  0  2  0  0  0  0
   -1.4289   -0.2062    0.0000 C   0  0  0  0  0  0  0  2  0  0  0  0
  1  2  1  0        0
  2  3  2  0        0
  2  4  1  0        0
  4  5  1  0        0
  4  6  1  0        0
  6  7  1  0        0
M  END
$$$$

CDXL12

  7  6  0  0  0  0  0  0  0  0999 V2000
   -1.4289   -0.2062    0.0000 C   0  0  0  0  0  0  0  2  0  0  0  0
   -0.7145    0.2062    0.0000 C   0  0  0  0  0  0  0  2  0  0  0  0
    0.0000   -0.2062    0.0000 C   0  0  0  0  0  0  0  2  0  0  0  0
    0.0000   -1.0313    0.0000 O   0  0  0  0  0  0  0  2  0  0  0  0
    0.7145    0.2062    0.0000 C   0  0  0  0  0  0  0  2  0  0  0  0
    0.7145    1.0313    0.0000 C   0  0  0  0  0  0  0  2  0  0  0  0
    1.4289   -0.2062    0.0000 C   0  0  0  0  0  0  0  2  0  0  0  0
  1  2  1  0        0
  2  3  1  0        0
  3  4  1  0        0
  3  5  1  0        0
  5  6  1  0        0
  5  7  1  0        0
M  END
$$$$

CDXL12

  8  7  0  0  0  0  0  0  0  0999 V2000
    0.7145    0.2062    0.0000 C   0  0  0  0  0  0  0  2  0  0  0  0
    0.0000   -0.2062    0.0000 C   0  0  0  0  0  0  0  2  0  0  0  0
   -0.7145    0.2062    0.0000 C   0  0  0  0  0  0  0  2  0  0  0  0
   -1.4289   -0.2062    0.0000 C   0  0  0  0  0  0  0  2  0  0  0  0
   -0.7145    1.0313    0.0000 C   0  0  0  0  0  0  0  2  0  0  0  0
    0.0000   -1.0313    0.0000 C   0  0  0  0  0  0  0  2  0  0  0  0
    0.7145    1.0313    0.0000 C   0  0  0  0  0  0  0  2  0  0  0  0
    1.4289   -0.2062    0.0000 C   0  0  0  0  0  0  0  2  0  0  0  0
  1  2  1  0        0
  2  3  1  0        0
  3  4  1  0        0
  3  5  1  0        0
  2  6  1  0        0
  1  7  1  0        0
  1  8  1  0        0
M  END
$$$$

CDXL12

  8  7  0  0  0  0  0  0  0  0999 V2000
    0.0000    1.0313    0.0000 O   0  0  0  0  0  0  0  2  0  0  0  0
    0.0000    0.2062    0.0000 C   0  0  0  0  0  0  0  2  0  0  0  0
   -0.7145   -0.2062    0.0000 C   0  0  0  0  0  0  0  2  0  0  0  0
   -0.7145   -1.0312    0.0000 C   0  0  0  0  0  0  0  2  0  0  0  0
   -1.4289    0.2062    0.0000 C   0  0  0  0  0  0  0  2  0  0  0  0
    0.7145   -0.2062    0.0000 C   0  0  0  0  0  0  0  2  0  0  0  0
    1.4289    0.2062    0.0000 C   0  0  0  0  0  0  0  2  0  0  0  0
    0.7145   -1.0313    0.0000 C   0  0  0  0  0  0  0  2  0  0  0  0
  1  2  2  0        0
  2  3  1  0        0
  3  4  1  0        0
  3  5  1  0        0
  2  6  1  0        0
  6  7  1  0        0
  6  8  1  0        0
M  END
$$$$

CDXL12

 15 15  0  0  0  0  0  0  0  0999 V2000
    1.4289    0.6188    0.0000 O   0  0  0  0  0  0  0  2  0  0  0  0
    0.7145    1.0313    0.0000 C   0  0  0  0  0  0  0  2  0  0  0  0
    0.7145    1.8563    0.0000 O   0  0  0  0  0  0  0  2  0  0  0  0
   -0.0000    0.6188    0.0000 C   0  0  0  0  0  0  0  2  0  0  0  0
   -0.7145    1.0313    0.0000 C   0  0  0  0  0  0  0  2  0  0  0  0
   -1.4289    0.6187    0.0000 C   0  0  0  0  0  0  0  2  0  0  0  0
   -1.4289   -0.2063    0.0000 C   0  0  0  0  0  0  0  2  0  0  0  0
   -0.7145   -0.6188    0.0000 C   0  0  0  0  0  0  0  2  0  0  0  0
   -0.7145   -1.4437    0.0000 C   0  0  0  0  0  0  0  2  0  0  0  0
   -1.4289   -1.8563    0.0000 O   0  0  0  0  0  0  0  2  0  0  0  0
   -0.0000   -1.8563    0.0000 O   0  0  0  0  0  0  0  2  0  0  0  0
   -0.0000   -0.2062    0.0000 C   0  0  0  0  0  0  0  2  0  0  0  0
    0.7145   -0.6188    0.0000 C   0  0  0  0  0  0  0  2  0  0  0  0
    1.4289   -0.2062    0.0000 O   0  0  0  0  0  0  0  2  0  0  0  0
    0.7145   -1.4437    0.0000 O   0  0  0  0  0  0  0  2  0  0  0  0
  1  2  1  0        0
  2  3  2  0        0
  2  4  1  0        0
  4  5  4  0        0
  5  6  4  0        0
  6  7  4  0        0
  7  8  4  0        0
  8  9  1  0        0
  9 10  1  0        0
  9 11  2  0        0
  8 12  4  0        0
  4 12  4  0        0
 12 13  1  0        0
 13 14  1  0        0
 13 15  2  0        0
M  END
$$$$

CDXL12

 26 28  0  0  0  0  0  0  0  0999 V2000
    2.8579   -2.4750    0.0000 C   0  0  0  0  0  0  0  2  0  0  0  0
    2.8579   -1.6500    0.0000 N   0  0  0  0  0  0  0  2  0  0  0  0
    3.5724   -1.2375    0.0000 C   0  0  0  0  0  0  0  2  0  0  0  0
    2.1434   -1.2375    0.0000 C   0  0  0  0  0  0  0  2  0  0  0  0
    1.4289   -1.6500    0.0000 C   0  0  0  0  0  0  0  2  0  0  0  0
    0.7145   -1.2375    0.0000 C   0  0  0  0  0  0  0  2  0  0  0  0
    0.7145   -0.4125    0.0000 C   0  0  0  0  0  0  0  2  0  0  0  0
    1.4289   -0.0000    0.0000 C   0  0  0  0  0  0  0  2  0  0  0  0
    2.1434   -0.4125    0.0000 C   0  0  0  0  0  0  0  2  0  0  0  0
   -0.0000    0.0000    0.0000 C   0  0  0  0  0  0  0  2  0  0  0  0
   -0.7145   -0.4125    0.0000 C   0  0  0  0  0  0  0  2  0  0  0  0
   -0.7145   -1.2375    0.0000 C   0  0  0  0  0  0  0  2  0  0  0  0
   -1.4289   -1.6500    0.0000 C   0  0  0  0  0  0  0  2  0  0  0  0
   -2.1434   -1.2375    0.0000 C   0  0  0  0  0  0  0  2  0  0  0  0
   -2.1434   -0.4125    0.0000 C   0  0  0  0  0  0  0  2  0  0  0  0
   -1.4289    0.0000    0.0000 C   0  0  0  0  0  0  0  2  0  0  0  0
   -2.8579   -1.6500    0.0000 N   0  0  0  0  0  0  0  2  0  0  0  0
   -3.5724   -2.0625    0.0000 Cl  0  0  0  0  0  0  0  2  0  0  0  0
   -2.8579   -2.4750    0.0000 C   0  0  0  0  0  0  0  2  0  0  0  0
   -3.5724   -1.2375    0.0000 C   0  0  0  0  0  0  0  2  0  0  0  0
   -0.0000    0.8250    0.0000 C   0  0  0  0  0  0  0  2  0  0  0  0
   -0.7145    1.2375    0.0000 C   0  0  0  0  0  0  0  2  0  0  0  0
   -0.7145    2.0625    0.0000 C   0  0  0  0  0  0  0  2  0  0  0  0
   -0.0000    2.4750    0.0000 C   0  0  0  0  0  0  0  2  0  0  0  0
    0.7145    2.0625    0.0000 C   0  0  0  0  0  0  0  2  0  0  0  0
    0.7145    1.2375    0.0000 C   0  0  0  0  0  0  0  2  0  0  0  0
  1  2  1  0        0
  2  3  1  0        0
  2  4  1  0        0
  4  5  4  0        0
  5  6  4  0        0
  6  7  4  0        0
  7  8  4  0        0
  8  9  4  0        0
  4  9  4  0        0
  7 10  1  0        0
 10 11  2  0        0
 11 12  1  0        0
 12 13  2  0        0
 13 14  1  0        0
 14 15  1  0        0
 15 16  2  0        0
 11 16  1  0        0
 14 17  2  0        0
 17 18  1  0        0
 17 19  1  0        0
 17 20  1  0        0
 10 21  1  0        0
 21 22  4  0        0
 22 23  4  0        0
 23 24  4  0        0
 24 25  4  0        0
 25 26  4  0        0
 21 26  4  0        0
M  END
$$$$

CDXL12

 12 13  0  0  0  0  0  0  0  0999 V2000
    0.7145    1.6500    0.0000 C   0  0  0  0  0  0  0  2  0  0  0  0
    0.7145    0.8250    0.0000 C   0  0  0  0  0  0  0  2  0  0  0  0
    1.4289    0.4125    0.0000 C   0  0  0  0  0  0  0  2  0  0  0  0
    1.4289   -0.4125    0.0000 C   0  0  0  0  0  0  0  2  0  0  0  0
    0.7145   -0.8250    0.0000 C   0  0  0  0  0  0  0  2  0  0  0  0
    0.7145   -1.6500    0.0000 C   0  0  0  0  0  0  0  2  0  0  0  0
    0.0000   -0.4125    0.0000 C   0  0  0  0  0  0  0  2  0  0  0  0
   -0.7145   -0.8250    0.0000 C   0  0  0  0  0  0  0  2  0  0  0  0
   -1.4289   -0.4125    0.0000 C   0  0  0  0  0  0  0  2  0  0  0  0
   -1.4289    0.4125    0.0000 C   0  0  0  0  0  0  0  2  0  0  0  0
   -0.7145    0.8250    0.0000 C   0  0  0  0  0  0  0  2  0  0  0  0
    0.0000    0.4125    0.0000 C   0  0  0  0  0  0  0  2  0  0  0  0
  1  2  1  0        0
  2  3  4  0        0
  3  4  4  0        0
  4  5  4  0        0
  5  6  1  0        0
  5  7  4  0        0
  7  8  4  0        0
  8  9  4  0        0
  9 10  4  0        0
 10 11  4  0        0
 11 12  4  0        0
  2 12  4  0        0
  7 12  4  0        0
M  END
$$$$

CDXL12

 12 13  0  0  0  0  0  0  0  0999 V2000
    0.7145    1.6500    0.0000 C   0  0  0  0  0  0  0  2  0  0  0  0
    0.7145    0.8250    0.0000 C   0  0  0  0  0  0  0  2  0  0  0  0
    1.4289    0.4125    0.0000 C   0  0  0  0  0  0  0  2  0  0  0  0
    1.4289   -0.4125    0.0000 C   0  0  0  0  0  0  0  2  0  0  0  0
    0.7145   -0.8250    0.0000 C   0  0  0  0  0  0  0  2  0  0  0  0
    0.0000   -0.4125    0.0000 C   0  0  0  0  0  0  0  2  0  0  0  0
   -0.7145   -0.8250    0.0000 C   0  0  0  0  0  0  0  2  0  0  0  0
   -0.7145   -1.6500    0.0000 C   0  0  0  0  0  0  0  2  0  0  0  0
   -1.4289   -0.4125    0.0000 C   0  0  0  0  0  0  0  2  0  0  0  0
   -1.4289    0.4125    0.0000 C   0  0  0  0  0  0  0  2  0  0  0  0
   -0.7145    0.8250    0.0000 C   0  0  0  0  0  0  0  2  0  0  0  0
    0.0000    0.4125    0.0000 C   0  0  0  0  0  0  0  2  0  0  0  0
  1  2  1  0        0
  2  3  4  0        0
  3  4  4  0        0
  4  5  4  0        0
  5  6  4  0        0
  6  7  4  0        0
  7  8  1  0        0
  7  9  4  0        0
  9 10  4  0        0
 10 11  4  0        0
 11 12  4  0        0
  2 12  4  0        0
  6 12  4  0        0
M  END
$$$$

CDXL12

 13 13  0  0  0  0  0  0  0  0999 V2000
    0.0000    1.2375    0.0000 O   0  0  0  0  0  0  0  2  0  0  0  0
    0.0000    0.4125    0.0000 C   0  0  0  0  0  0  0  2  0  0  0  0
    0.7145   -0.0000    0.0000 C   0  0  0  0  0  0  0  2  0  0  0  0
    0.7145   -0.8250    0.0000 C   0  0  0  0  0  0  0  2  0  0  0  0
    0.0000   -1.2375    0.0000 C   0  0  0  0  0  0  0  2  0  0  0  0
   -0.7145   -0.8250    0.0000 C   0  0  0  0  0  0  0  2  0  0  0  0
   -0.7145   -0.0000    0.0000 C   0  0  0  0  0  0  0  2  0  0  0  0
   -1.4289    0.4125    0.0000 N   0  0  0  0  0  0  0  2  0  0  0  0
   -1.4289    1.2375    0.0000 O   0  0  0  0  0  0  0  2  0  0  0  0
   -2.1434   -0.0000    0.0000 O   0  0  0  0  0  0  0  2  0  0  0  0
    1.4289    0.4125    0.0000 N   0  0  0  0  0  0  0  2  0  0  0  0
    1.4289    1.2375    0.0000 O   0  0  0  0  0  0  0  2  0  0  0  0
    2.1434   -0.0000    0.0000 O   0  0  0  0  0  0  0  2  0  0  0  0
  1  2  1  0        0
  2  3  4  0        0
  3  4  4  0        0
  4  5  4  0        0
  5  6  4  0        0
  6  7  4  0        0
  2  7  4  0        0
  7  8  1  0        0
  8  9  2  0        0
  8 10  2  0        0
  3 11  1  0        0
 11 12  2  0        0
 11 13  2  0        0
M  END
$$$$

CDXL12

 48 53  0  0  0  0  0  0  0  0999 V2000
    4.6441    0.2062    0.0000 N   0  0  0  0  0  0  0  2  0  0  0  0
    4.6441    1.0312    0.0000 C   0  0  0  0  0  0  0  2  0  0  0  0
    3.9296    1.4437    0.0000 C   0  0  0  0  0  0  0  2  0  0  0  0
    3.2151    1.0312    0.0000 N   0  0  0  0  0  0  0  2  0  0  0  0
    2.5006    1.4437    0.0000 N   0  0  0  0  0  0  0  2  0  0  0  0
    1.7862    1.0312    0.0000 C   0  0  0  0  0  0  0  2  0  0  0  0
    1.7862    0.2062    0.0000 C   0  0  0  0  0  0  0  2  0  0  0  0
    1.0717   -0.2063    0.0000 C   0  0  0  0  0  0  0  2  0  0  0  0
    0.3572    0.2062    0.0000 C   0  0  0  0  0  0  0  2  0  0  0  0
    0.3572    1.0312    0.0000 C   0  0  0  0  0  0  0  2  0  0  0  0
    1.0717    1.4437    0.0000 C   0  0  0  0  0  0  0  2  0  0  0  0
   -0.3572   -0.2063    0.0000 C   0  0  0  0  0  0  0  2  0  0  0  0
   -0.3572   -1.0313    0.0000 C   0  0  0  0  0  0  0  2  0  0  0  0
   -1.0717   -1.4438    0.0000 C   0  0  0  0  0  0  0  2  0  0  0  0
   -1.7862   -1.0313    0.0000 C   0  0  0  0  0  0  0  2  0  0  0  0
   -2.5006   -1.4438    0.0000 N   0  0  0  0  0  0  0  2  0  0  0  0
   -3.2151   -1.0313    0.0000 N   0  0  0  0  0  0  0  2  0  0  0  0
   -3.9296   -1.4438    0.0000 C   0  0  0  0  0  0  0  2  0  0  0  0
   -3.9296   -2.2687    0.0000 C   0  0  0  0  0  0  0  2  0  0  0  0
   -4.6441   -2.6812    0.0000 C   0  0  0  0  0  0  0  2  0  0  0  0
   -5.3585   -2.2687    0.0000 C   0  0  0  0  0  0  0  2  0  0  0  0
   -6.0730   -2.6812    0.0000 C   0  0  0  0  0  0  0  2  0  0  0  0
   -6.7875   -2.2687    0.0000 C   0  0  0  0  0  0  0  2  0  0  0  0
   -6.7875   -1.4437    0.0000 C   0  0  0  0  0  0  0  2  0  0  0  0
   -6.0730   -1.0312    0.0000 C   0  0  0  0  0  0  0  2  0  0  0  0
   -5.3585   -1.4437    0.0000 C   0  0  0  0  0  0  0  2  0  0  0  0
   -4.6441   -1.0313    0.0000 C   0  0  0  0  0  0  0  2  0  0  0  0
   -4.6441   -0.2063    0.0000 N   0  0  0  0  0  0  0  2  0  0  0  0
   -4.6441   -3.5062    0.0000 S   0  0  0  0  0  0  0  2  0  0  0  0
   -4.6441   -4.3312    0.0000 O   0  0  0  0  0  0  0  2  0  0  0  0
   -3.9296   -4.7437    0.0000 Na  0  0  0  0  0  0  0  2  0  0  0  0
   -5.4691   -3.5062    0.0000 O   0  0  0  0  0  0  0  2  0  0  0  0
   -3.8191   -3.5062    0.0000 O   0  0  0  0  0  0  0  2  0  0  0  0
   -1.7862   -0.2063    0.0000 C   0  0  0  0  0  0  0  2  0  0  0  0
   -1.0717    0.2062    0.0000 C   0  0  0  0  0  0  0  2  0  0  0  0
    3.9296    2.2687    0.0000 C   0  0  0  0  0  0  0  2  0  0  0  0
    4.6441    2.6812    0.0000 C   0  0  0  0  0  0  0  2  0  0  0  0
    5.3585    2.2687    0.0000 C   0  0  0  0  0  0  0  2  0  0  0  0
    6.0730    2.6812    0.0000 C   0  0  0  0  0  0  0  2  0  0  0  0
    6.7875    2.2687    0.0000 C   0  0  0  0  0  0  0  2  0  0  0  0
    6.7875    1.4437    0.0000 C   0  0  0  0  0  0  0  2  0  0  0  0
    6.0730    1.0312    0.0000 C   0  0  0  0  0  0  0  2  0  0  0  0
    5.3585    1.4437    0.0000 C   0  0  0  0  0  0  0  2  0  0  0  0
    4.6441    3.5062    0.0000 S   0  0  0  0  0  0  0  2  0  0  0  0
    4.6441    4.3312    0.0000 O   0  0  0  0  0  0  0  2  0  0  0  0
    5.3585    4.7437    0.0000 Na  0  0  0  0  0  0  0  2  0  0  0  0
    5.4691    3.5062    0.0000 O   0  0  0  0  0  0  0  2  0  0  0  0
    3.8191    3.5062    0.0000 O   0  0  0  0  0  0  0  2  0  0  0  0
  1  2  1  0        0
  2  3  4  0        0
  3  4  1  0        0
  4  5  2  0        0
  5  6  1  0        0
  6  7  4  0        0
  7  8  4  0        0
  8  9  4  0        0
  9 10  4  0        0
 10 11  4  0        0
  6 11  4  0        0
  9 12  1  0        0
 12 13  4  0        0
 13 14  4  0        0
 14 15  4  0        0
 15 16  1  0        0
 16 17  2  0        0
 17 18  1  0        0
 18 19  4  0        0
 19 20  4  0        0
 20 21  4  0        0
 21 22  4  0        0
 22 23  4  0        0
 23 24  4  0        0
 24 25  4  0        0
 25 26  4  0        0
 21 26  4  0        0
 26 27  4  0        0
 18 27  4  0        0
 27 28  1  0        0
 20 29  1  0        0
 29 30  1  0        0
 30 31  1  0        0
 29 32  2  0        0
 29 33  2  0        0
 15 34  4  0        0
 34 35  4  0        0
 12 35  4  0        0
  3 36  4  0        0
 36 37  4  0        0
 37 38  4  0        0
 38 39  4  0        0
 39 40  4  0        0
 40 41  4  0        0
 41 42  4  0        0
 42 43  4  0        0
  2 43  4  0        0
 38 43  4  0        0
 37 44  1  0        0
 44 45  1  0        0
 45 46  1  0        0
 44 47  2  0        0
 44 48  2  0        0
M  END
$$$$

CDXL12

 12 13  0  0  0  0  0  0  0  0999 V2000
    1.7862   -1.2375    0.0000 C   0  0  0  0  0  0  0  2  0  0  0  0
    1.0717   -0.8250    0.0000 C   0  0  0  0  0  0  0  2  0  0  0  0
    1.0717    0.0000    0.0000 C   0  0  0  0  0  0  0  2  0  0  0  0
    0.3572    0.4125    0.0000 C   0  0  0  0  0  0  0  2  0  0  0  0
    0.3572    1.2375    0.0000 C   0  0  0  0  0  0  0  2  0  0  0  0
   -0.3572    0.0000    0.0000 C   0  0  0  0  0  0  0  2  0  0  0  0
   -1.0717    0.4125    0.0000 C   0  0  0  0  0  0  0  2  0  0  0  0
   -1.7862   -0.0000    0.0000 C   0  0  0  0  0  0  0  2  0  0  0  0
   -1.7862   -0.8250    0.0000 C   0  0  0  0  0  0  0  2  0  0  0  0
   -1.0717   -1.2375    0.0000 C   0  0  0  0  0  0  0  2  0  0  0  0
   -0.3572   -0.8250    0.0000 C   0  0  0  0  0  0  0  2  0  0  0  0
    0.3572   -1.2375    0.0000 C   0  0  0  0  0  0  0  2  0  0  0  0
  1  2  1  0        0
  2  3  4  0        0
  3  4  4  0        0
  4  5  1  0        0
  4  6  4  0        0
  6  7  4  0        0
  7  8  4  0        0
  8  9  4  0        0
  9 10  4  0        0
 10 11  4  0        0
  6 11  4  0        0
 11 12  4  0        0
  2 12  4  0        0
M  END
$$$$

CDXL12

 14 14  0  0  0  0  0  0  0  0999 V2000
    2.5006    0.0000    0.0000 O   0  0  0  0  0  0  0  2  0  0  0  0
    1.7862    0.4125    0.0000 C   0  0  0  0  0  0  0  2  0  0  0  0
    1.7862    1.2375    0.0000 O   0  0  0  0  0  0  0  2  0  0  0  0
    1.0717    0.0000    0.0000 C   0  0  0  0  0  0  0  2  0  0  0  0
    0.3572    0.4125    0.0000 O   0  0  0  0  0  0  0  2  0  0  0  0
   -0.3572    0.0000    0.0000 C   0  0  0  0  0  0  0  2  0  0  0  0
   -1.0717    0.4125    0.0000 C   0  0  0  0  0  0  0  2  0  0  0  0
   -1.0717    1.2375    0.0000 Cl  0  0  0  0  0  0  0  2  0  0  0  0
   -1.7862    0.0000    0.0000 C   0  0  0  0  0  0  0  2  0  0  0  0
   -1.7862   -0.8250    0.0000 C   0  0  0  0  0  0  0  2  0  0  0  0
   -2.5006   -1.2375    0.0000 Cl  0  0  0  0  0  0  0  2  0  0  0  0
   -1.0717   -1.2375    0.0000 C   0  0  0  0  0  0  0  2  0  0  0  0
   -0.3572   -0.8250    0.0000 C   0  0  0  0  0  0  0  2  0  0  0  0
    0.3572   -1.2375    0.0000 Cl  0  0  0  0  0  0  0  2  0  0  0  0
  1  2  1  0        0
  2  3  2  0        0
  2  4  1  0        0
  4  5  1  0        0
  5  6  1  0        0
  6  7  4  0        0
  7  8  1  0        0
  7  9  4  0        0
  9 10  4  0        0
 10 11  1  0        0
 10 12  4  0        0
 12 13  4  0        0
  6 13  4  0        0
 13 14  1  0        0
M  END
$$$$

CDXL12

  9  9  0  0  0  0  0  0  0  0999 V2000
   -0.3572    1.2375    0.0000 O   0  0  0  0  0  0  0  2  0  0  0  0
   -0.3572    0.4125    0.0000 C   0  0  0  0  0  0  0  2  0  0  0  0
    0.3572    0.0000    0.0000 C   0  0  0  0  0  0  0  2  0  0  0  0
    0.3572   -0.8250    0.0000 C   0  0  0  0  0  0  0  2  0  0  0  0
   -0.3572   -1.2375    0.0000 C   0  0  0  0  0  0  0  2  0  0  0  0
   -1.0717   -0.8250    0.0000 C   0  0  0  0  0  0  0  2  0  0  0  0
   -1.0717    0.0000    0.0000 C   0  0  0  0  0  0  0  2  0  0  0  0
    1.0717   -1.2375    0.0000 Cl  0  0  0  0  0  0  0  2  0  0  0  0
    1.0717    0.4125    0.0000 Cl  0  0  0  0  0  0  0  2  0  0  0  0
  1  2  1  0        0
  2  3  4  0        0
  3  4  4  0        0
  4  5  4  0        0
  5  6  4  0        0
  6  7  4  0        0
  2  7  4  0        0
  4  8  1  0        0
  3  9  1  0        0
M  END
$$$$

CDXL12

  9  9  0  0  0  0  0  0  0  0999 V2000
    1.0717    0.4125    0.0000 O   0  0  0  0  0  0  0  2  0  0  0  0
    0.3572    0.0000    0.0000 C   0  0  0  0  0  0  0  2  0  0  0  0
    0.3572   -0.8250    0.0000 C   0  0  0  0  0  0  0  2  0  0  0  0
   -0.3572   -1.2375    0.0000 C   0  0  0  0  0  0  0  2  0  0  0  0
   -1.0717   -0.8250    0.0000 C   0  0  0  0  0  0  0  2  0  0  0  0
   -1.0717    0.0000    0.0000 C   0  0  0  0  0  0  0  2  0  0  0  0
   -0.3572    0.4125    0.0000 C   0  0  0  0  0  0  0  2  0  0  0  0
   -0.3572    1.2375    0.0000 C   0  0  0  0  0  0  0  2  0  0  0  0
    1.0717   -1.2375    0.0000 C   0  0  0  0  0  0  0  2  0  0  0  0
  1  2  1  0        0
  2  3  4  0        0
  3  4  4  0        0
  4  5  4  0        0
  5  6  4  0        0
  6  7  4  0        0
  2  7  4  0        0
  7  8  1  0        0
  3  9  1  0        0
M  END
$$$$

CDXL12

 29 28  0  0  0  0  0  0  0  0999 V2000
   -6.0730   -0.6187    0.0000 C   0  0  0  0  0  0  0  2  0  0  0  0
   -5.3585   -0.2062    0.0000 C   0  0  0  0  0  0  0  2  0  0  0  0
   -4.6441   -0.6187    0.0000 C   0  0  0  0  0  0  0  2  0  0  0  0
   -3.9296   -0.2062    0.0000 C   0  0  0  0  0  0  0  2  0  0  0  0
   -3.2151   -0.6187    0.0000 C   0  0  0  0  0  0  0  2  0  0  0  0
   -3.2151   -1.4437    0.0000 C   0  0  0  0  0  0  0  2  0  0  0  0
   -3.9296   -1.8562    0.0000 C   0  0  0  0  0  0  0  2  0  0  0  0
   -2.5006   -0.2062    0.0000 C   0  0  0  0  0  0  0  2  0  0  0  0
   -1.7862   -0.6188    0.0000 O   0  0  0  0  0  0  0  2  0  0  0  0
   -1.0717   -0.2062    0.0000 C   0  0  0  0  0  0  0  2  0  0  0  0
   -1.0717    0.6187    0.0000 O   0  0  0  0  0  0  0  2  0  0  0  0
   -0.3572   -0.6188    0.0000 C   0  0  0  0  0  0  0  2  0  0  0  0
    0.3572   -0.2062    0.0000 C   0  0  0  0  0  0  0  2  0  0  0  0
    1.0717   -0.6188    0.0000 C   0  0  0  0  0  0  0  2  0  0  0  0
    1.0717   -1.4438    0.0000 O   0  0  0  0  0  0  0  2  0  0  0  0
    1.7862   -0.2062    0.0000 O   0  0  0  0  0  0  0  2  0  0  0  0
    2.5006   -0.6188    0.0000 C   0  0  0  0  0  0  0  2  0  0  0  0
    3.2151   -0.2062    0.0000 C   0  0  0  0  0  0  0  2  0  0  0  0
    3.2151    0.6187    0.0000 C   0  0  0  0  0  0  0  2  0  0  0  0
    3.9296    1.0312    0.0000 C   0  0  0  0  0  0  0  2  0  0  0  0
    3.9296   -0.6188    0.0000 C   0  0  0  0  0  0  0  2  0  0  0  0
    4.6441   -0.2062    0.0000 C   0  0  0  0  0  0  0  2  0  0  0  0
    5.3585   -0.6188    0.0000 C   0  0  0  0  0  0  0  2  0  0  0  0
    6.0730   -0.2062    0.0000 C   0  0  0  0  0  0  0  2  0  0  0  0
    0.3572    0.6187    0.0000 S   0  0  0  0  0  0  0  2  0  0  0  0
    1.1822    0.6187    0.0000 O   0  0  0  0  0  0  0  2  0  0  0  0
   -0.4678    0.6187    0.0000 O   0  0  0  0  0  0  0  2  0  0  0  0
    0.3572    1.4437    0.0000 O   0  0  0  0  0  0  0  2  0  0  0  0
    1.0717    1.8562    0.0000 Na  0  0  0  0  0  0  0  2  0  0  0  0
  1  2  1  0        0
  2  3  1  0        0
  3  4  1  0        0
  4  5  1  0        0
  5  6  1  0        0
  6  7  1  0        0
  5  8  1  0        0
  8  9  1  0        0
  9 10  1  0        0
 10 11  2  0        0
 10 12  1  0        0
 12 13  1  0        0
 13 14  1  0        0
 14 15  2  0        0
 14 16  1  0        0
 16 17  1  0        0
 17 18  1  0        0
 18 19  1  0        0
 19 20  1  0        0
 18 21  1  0        0
 21 22  1  0        0
 22 23  1  0        0
 23 24  1  0        0
 13 25  1  0        0
 25 26  2  0        0
 25 27  2  0        0
 25 28  1  0        0
 28 29  1  0        0
M  END
$$$$

CDXL12

 15 17  0  0  0  0  0  0  0  0999 V2000
   -2.1434   -0.0000    0.0000 C   0  0  0  0  0  0  0  2  0  0  0  0
   -2.1434   -0.8250    0.0000 C   0  0  0  0  0  0  0  2  0  0  0  0
   -1.4289   -1.2375    0.0000 C   0  0  0  0  0  0  0  2  0  0  0  0
   -0.7145   -0.8250    0.0000 C   0  0  0  0  0  0  0  2  0  0  0  0
    0.0000   -1.2375    0.0000 N   0  0  0  0  0  0  0  2  0  0  0  0
    0.7145   -0.8250    0.0000 C   0  0  0  0  0  0  0  2  0  0  0  0
    1.4289   -1.2375    0.0000 C   0  0  0  0  0  0  0  2  0  0  0  0
    2.1434   -0.8250    0.0000 C   0  0  0  0  0  0  0  2  0  0  0  0
    2.1434    0.0000    0.0000 C   0  0  0  0  0  0  0  2  0  0  0  0
    1.4289    0.4125    0.0000 C   0  0  0  0  0  0  0  2  0  0  0  0
    1.4289    1.2375    0.0000 N   0  0  0  0  0  0  0  2  0  0  0  0
    0.7145    0.0000    0.0000 C   0  0  0  0  0  0  0  2  0  0  0  0
    0.0000    0.4125    0.0000 C   0  0  0  0  0  0  0  2  0  0  0  0
   -0.7145   -0.0000    0.0000 C   0  0  0  0  0  0  0  2  0  0  0  0
   -1.4289    0.4125    0.0000 C   0  0  0  0  0  0  0  2  0  0  0  0
  1  2  4  0        0
  2  3  4  0        0
  3  4  4  0        0
  4  5  4  0        0
  5  6  4  0        0
  6  7  4  0        0
  7  8  4  0        0
  8  9  4  0        0
  9 10  4  0        0
 10 11  1  0        0
 10 12  4  0        0
  6 12  4  0        0
 12 13  4  0        0
 13 14  4  0        0
  4 14  4  0        0
 14 15  4  0        0
  1 15  4  0        0
M  END
$$$$

CDXL12

 11 12  0  0  0  0  0  0  0  0999 V2000
   -1.4289    0.8250    0.0000 C   0  0  0  0  0  0  0  2  0  0  0  0
   -0.7145    1.2375    0.0000 C   0  0  0  0  0  0  0  2  0  0  0  0
    0.0000    0.8250    0.0000 C   0  0  0  0  0  0  0  2  0  0  0  0
    0.7145    1.2375    0.0000 N   0  0  0  0  0  0  0  2  0  0  0  0
    1.4289    0.8250    0.0000 C   0  0  0  0  0  0  0  2  0  0  0  0
    1.4289   -0.0000    0.0000 C   0  0  0  0  0  0  0  2  0  0  0  0
    0.7145   -0.4125    0.0000 C   0  0  0  0  0  0  0  2  0  0  0  0
    0.0000   -0.0000    0.0000 C   0  0  0  0  0  0  0  2  0  0  0  0
   -0.7145   -0.4125    0.0000 C   0  0  0  0  0  0  0  2  0  0  0  0
   -0.7145   -1.2375    0.0000 O   0  0  0  0  0  0  0  2  0  0  0  0
   -1.4289    0.0000    0.0000 C   0  0  0  0  0  0  0  2  0  0  0  0
  1  2  4  0        0
  2  3  4  0        0
  3  4  4  0        0
  4  5  4  0        0
  5  6  4  0        0
  6  7  4  0        0
  7  8  4  0        0
  3  8  4  0        0
  8  9  4  0        0
  9 10  1  0        0
  9 11  4  0        0
  1 11  4  0        0
M  END
$$$$

CDXL12

 11 11  0  0  0  0  0  0  0  0999 V2000
    0.0000   -1.2375    0.0000 N   0  0  0  0  0  0  0  2  0  0  0  0
    0.0000   -0.4125    0.0000 C   0  0  0  0  0  0  0  2  0  0  0  0
   -0.7145   -0.0000    0.0000 C   0  0  0  0  0  0  0  2  0  0  0  0
   -0.7145    0.8250    0.0000 C   0  0  0  0  0  0  0  2  0  0  0  0
    0.0000    1.2375    0.0000 C   0  0  0  0  0  0  0  2  0  0  0  0
    0.7145    0.8250    0.0000 C   0  0  0  0  0  0  0  2  0  0  0  0
    0.7145   -0.0000    0.0000 C   0  0  0  0  0  0  0  2  0  0  0  0
    1.4289   -0.4125    0.0000 C   0  0  0  0  0  0  0  2  0  0  0  0
    2.1434    0.0000    0.0000 C   0  0  0  0  0  0  0  2  0  0  0  0
   -1.4289   -0.4125    0.0000 C   0  0  0  0  0  0  0  2  0  0  0  0
   -2.1434   -0.0000    0.0000 C   0  0  0  0  0  0  0  2  0  0  0  0
  1  2  1  0        0
  2  3  4  0        0
  3  4  4  0        0
  4  5  4  0        0
  5  6  4  0        0
  6  7  4  0        0
  2  7  4  0        0
  7  8  1  0        0
  8  9  1  0        0
  3 10  1  0        0
 10 11  1  0        0
M  END
$$$$

CDXL12

 11 11  0  0  0  0  0  0  0  0999 V2000
    0.7145    1.2375    0.0000 O   0  0  0  0  0  0  0  2  0  0  0  0
    0.7145    0.4125    0.0000 C   0  0  0  0  0  0  0  2  0  0  0  0
    1.4289   -0.0000    0.0000 O   0  0  0  0  0  0  0  2  0  0  0  0
    0.0000   -0.0000    0.0000 C   0  0  0  0  0  0  0  2  0  0  0  0
    0.0000   -0.8250    0.0000 C   0  0  0  0  0  0  0  2  0  0  0  0
    0.7145   -1.2375    0.0000 O   0  0  0  0  0  0  0  2  0  0  0  0
    1.4289   -0.8250    0.0000 C   0  0  0  0  0  0  0  2  0  0  0  0
   -0.7145   -1.2375    0.0000 C   0  0  0  0  0  0  0  2  0  0  0  0
   -1.4289   -0.8250    0.0000 C   0  0  0  0  0  0  0  2  0  0  0  0
   -1.4289    0.0000    0.0000 C   0  0  0  0  0  0  0  2  0  0  0  0
   -0.7145    0.4125    0.0000 C   0  0  0  0  0  0  0  2  0  0  0  0
  1  2  2  0        0
  2  3  1  0        0
  2  4  1  0        0
  4  5  4  0        0
  5  6  1  0        0
  6  7  1  0        0
  5  8  4  0        0
  8  9  4  0        0
  9 10  4  0        0
 10 11  4  0        0
  4 11  4  0        0
M  END
$$$$

CDXL12

 11 12  0  0  0  0  0  0  0  0999 V2000
   -0.3572    0.4125    0.0000 C   0  0  0  0  0  0  0  2  0  0  0  0
   -0.3572   -0.4125    0.0000 C   0  0  0  0  0  0  0  2  0  0  0  0
    0.3572   -0.8250    0.0000 C   0  0  0  0  0  0  0  2  0  0  0  0
    1.0717   -0.4125    0.0000 C   0  0  0  0  0  0  0  2  0  0  0  0
    1.0717    0.4125    0.0000 C   0  0  0  0  0  0  0  2  0  0  0  0
    1.7862    0.8250    0.0000 Br  0  0  0  0  0  0  0  2  0  0  0  0
    0.3572    0.8250    0.0000 C   0  0  0  0  0  0  0  2  0  0  0  0
   -1.0717   -0.8250    0.0000 C   0  0  0  0  0  0  0  2  0  0  0  0
   -1.7862   -0.4125    0.0000 C   0  0  0  0  0  0  0  2  0  0  0  0
   -1.7862    0.4125    0.0000 C   0  0  0  0  0  0  0  2  0  0  0  0
   -1.0717    0.8250    0.0000 C   0  0  0  0  0  0  0  2  0  0  0  0
  1  2  4  0        0
  2  3  4  0        0
  3  4  4  0        0
  4  5  4  0        0
  5  6  1  0        0
  5  7  4  0        0
  1  7  4  0        0
  2  8  4  0        0
  8  9  4  0        0
  9 10  4  0        0
 10 11  4  0        0
  1 11  4  0        0
M  END
$$$$

CDXL12

 11 12  0  0  0  0  0  0  0  0999 V2000
   -1.0717    0.4125    0.0000 C   0  0  0  0  0  0  0  2  0  0  0  0
   -1.0717   -0.4125    0.0000 C   0  0  0  0  0  0  0  2  0  0  0  0
   -1.7862   -0.8250    0.0000 O   0  0  0  0  0  0  0  2  0  0  0  0
   -0.3572   -0.8250    0.0000 C   0  0  0  0  0  0  0  2  0  0  0  0
    0.3572   -0.4125    0.0000 C   0  0  0  0  0  0  0  2  0  0  0  0
    1.0717   -0.8250    0.0000 C   0  0  0  0  0  0  0  2  0  0  0  0
    1.7862   -0.4125    0.0000 C   0  0  0  0  0  0  0  2  0  0  0  0
    1.7862    0.4125    0.0000 C   0  0  0  0  0  0  0  2  0  0  0  0
    1.0717    0.8250    0.0000 N   0  0  0  0  0  0  0  2  0  0  0  0
    0.3572    0.4125    0.0000 C   0  0  0  0  0  0  0  2  0  0  0  0
   -0.3572    0.8250    0.0000 C   0  0  0  0  0  0  0  2  0  0  0  0
  1  2  4  0        0
  2  3  1  0        0
  2  4  4  0        0
  4  5  4  0        0
  5  6  4  0        0
  6  7  4  0        0
  7  8  4  0        0
  8  9  4  0        0
  9 10  4  0        0
  5 10  4  0        0
 10 11  4  0        0
  1 11  4  0        0
M  END
$$$$

CDXL12

 11 12  0  0  0  0  0  0  0  0999 V2000
    1.0717    0.8250    0.0000 N   0  0  0  0  0  0  0  2  0  0  0  0
    0.3572    0.4125    0.0000 C   0  0  0  0  0  0  0  2  0  0  0  0
    0.3572   -0.4125    0.0000 C   0  0  0  0  0  0  0  2  0  0  0  0
   -0.3572   -0.8250    0.0000 C   0  0  0  0  0  0  0  2  0  0  0  0
   -1.0717   -0.4125    0.0000 C   0  0  0  0  0  0  0  2  0  0  0  0
   -1.0717    0.4125    0.0000 C   0  0  0  0  0  0  0  2  0  0  0  0
   -1.7862    0.8250    0.0000 O   0  0  0  0  0  0  0  2  0  0  0  0
   -0.3572    0.8250    0.0000 C   0  0  0  0  0  0  0  2  0  0  0  0
    1.0717   -0.8250    0.0000 C   0  0  0  0  0  0  0  2  0  0  0  0
    1.7862   -0.4125    0.0000 C   0  0  0  0  0  0  0  2  0  0  0  0
    1.7862    0.4125    0.0000 C   0  0  0  0  0  0  0  2  0  0  0  0
  1  2  4  0        0
  2  3  4  0        0
  3  4  4  0        0
  4  5  4  0        0
  5  6  4  0        0
  6  7  1  0        0
  6  8  4  0        0
  2  8  4  0        0
  3  9  4  0        0
  9 10  4  0        0
 10 11  4  0        0
  1 11  4  0        0
M  END
$$$$

CDXL12

 17 17  0  0  0  0  0  0  0  0999 V2000
    1.0717   -1.6500    0.0000 C   0  0  0  0  0  0  0  2  0  0  0  0
    0.3572   -2.0625    0.0000 C   0  0  0  0  0  0  0  2  0  0  0  0
   -0.3572   -1.6500    0.0000 N   0  0  0  0  0  0  0  2  0  0  0  0
   -1.0717   -2.0625    0.0000 C   0  0  0  0  0  0  0  2  0  0  0  0
   -1.7862   -1.6500    0.0000 C   0  0  0  0  0  0  0  2  0  0  0  0
   -0.3572   -0.8250    0.0000 C   0  0  0  0  0  0  0  2  0  0  0  0
   -1.0717   -0.4125    0.0000 N   0  0  0  0  0  0  0  2  0  0  0  0
   -1.0717    0.4125    0.0000 C   0  0  0  0  0  0  0  2  0  0  0  0
   -1.7862    0.8250    0.0000 Cl  0  0  0  0  0  0  0  2  0  0  0  0
   -0.3572    0.8250    0.0000 N   0  0  0  0  0  0  0  2  0  0  0  0
    0.3572    0.4125    0.0000 C   0  0  0  0  0  0  0  2  0  0  0  0
    0.3572   -0.4125    0.0000 N   0  0  0  0  0  0  0  2  0  0  0  0
    1.0717    0.8250    0.0000 N   0  0  0  0  0  0  0  2  0  0  0  0
    1.0717    1.6500    0.0000 C   0  0  0  0  0  0  0  2  0  0  0  0
    0.3572    2.0625    0.0000 C   0  0  0  0  0  0  0  2  0  0  0  0
    1.7862    0.4125    0.0000 C   0  0  0  0  0  0  0  2  0  0  0  0
    1.7862   -0.4125    0.0000 C   0  0  0  0  0  0  0  2  0  0  0  0
  1  2  1  0        0
  2  3  1  0        0
  3  4  1  0        0
  4  5  1  0        0
  3  6  1  0        0
  6  7  4  0        0
  7  8  4  0        0
  8  9  1  0        0
  8 10  4  0        0
 10 11  4  0        0
 11 12  4  0        0
  6 12  4  0        0
 11 13  1  0        0
 13 14  1  0        0
 14 15  1  0        0
 13 16  1  0        0
 16 17  1  0        0
M  END
$$$$

CDXL12

 12 13  0  0  0  0  0  0  0  0999 V2000
   -2.1434   -0.8250    0.0000 O   0  0  0  0  0  0  0  2  0  0  0  0
   -1.4289   -0.4125    0.0000 C   0  0  0  0  0  0  0  2  0  0  0  0
   -1.4289    0.4125    0.0000 C   0  0  0  0  0  0  0  2  0  0  0  0
   -0.7145    0.8250    0.0000 C   0  0  0  0  0  0  0  2  0  0  0  0
    0.0000    0.4125    0.0000 C   0  0  0  0  0  0  0  2  0  0  0  0
    0.0000   -0.4125    0.0000 C   0  0  0  0  0  0  0  2  0  0  0  0
    0.7145   -0.8250    0.0000 C   0  0  0  0  0  0  0  2  0  0  0  0
    1.4289   -0.4125    0.0000 C   0  0  0  0  0  0  0  2  0  0  0  0
    1.4289    0.4125    0.0000 C   0  0  0  0  0  0  0  2  0  0  0  0
    2.1434    0.8250    0.0000 O   0  0  0  0  0  0  0  2  0  0  0  0
    0.7145    0.8250    0.0000 C   0  0  0  0  0  0  0  2  0  0  0  0
   -0.7145   -0.8250    0.0000 C   0  0  0  0  0  0  0  2  0  0  0  0
  1  2  1  0        0
  2  3  4  0        0
  3  4  4  0        0
  4  5  4  0        0
  5  6  4  0        0
  6  7  4  0        0
  7  8  4  0        0
  8  9  4  0        0
  9 10  1  0        0
  9 11  4  0        0
  5 11  4  0        0
  6 12  4  0        0
  2 12  4  0        0
M  END
$$$$

CDXL12

  8  8  0  0  0  0  0  0  0  0999 V2000
    0.3572    0.4125    0.0000 C   0  0  0  0  0  0  0  2  0  0  0  0
    0.3572   -0.4125    0.0000 C   0  0  0  0  0  0  0  2  0  0  0  0
   -0.3572   -0.8250    0.0000 C   0  0  0  0  0  0  0  2  0  0  0  0
   -1.0717   -0.4125    0.0000 C   0  0  0  0  0  0  0  2  0  0  0  0
   -1.0717    0.4125    0.0000 C   0  0  0  0  0  0  0  2  0  0  0  0
   -0.3572    0.8250    0.0000 C   0  0  0  0  0  0  0  2  0  0  0  0
    1.0717   -0.8250    0.0000 Br  0  0  0  0  0  0  0  2  0  0  0  0
    1.0717    0.8250    0.0000 Br  0  0  0  0  0  0  0  2  0  0  0  0
  1  2  4  0        0
  2  3  4  0        0
  3  4  4  0        0
  4  5  4  0        0
  5  6  4  0        0
  1  6  4  0        0
  2  7  1  0        0
  1  8  1  0        0
M  END
$$$$

CDXL12

  8  8  0  0  0  0  0  0  0  0999 V2000
    1.0717    0.8250    0.0000 C   0  0  0  0  0  0  0  2  0  0  0  0
    0.3572    0.4125    0.0000 C   0  0  0  0  0  0  0  2  0  0  0  0
    0.3572   -0.4125    0.0000 C   0  0  0  0  0  0  0  2  0  0  0  0
    1.0717   -0.8250    0.0000 C   0  0  0  0  0  0  0  2  0  0  0  0
   -0.3572   -0.8250    0.0000 C   0  0  0  0  0  0  0  2  0  0  0  0
   -1.0717   -0.4125    0.0000 C   0  0  0  0  0  0  0  2  0  0  0  0
   -1.0717    0.4125    0.0000 C   0  0  0  0  0  0  0  2  0  0  0  0
   -0.3572    0.8250    0.0000 C   0  0  0  0  0  0  0  2  0  0  0  0
  1  2  1  0        0
  2  3  1  0        0
  3  4  1  0        0
  3  5  1  0        0
  5  6  1  0        0
  6  7  1  0        0
  7  8  1  0        0
  2  8  1  0        0
M  END
$$$$

CDXL12

  8  8  0  0  0  0  0  0  0  0999 V2000
   -0.3572    0.8250    0.0000 N   0  0  0  0  0  0  0  2  0  0  0  0
    0.3572    0.4125    0.0000 C   0  0  0  0  0  0  0  2  0  0  0  0
    0.3572   -0.4125    0.0000 C   0  0  0  0  0  0  0  2  0  0  0  0
   -0.3572   -0.8250    0.0000 C   0  0  0  0  0  0  0  2  0  0  0  0
   -1.0717   -0.4125    0.0000 C   0  0  0  0  0  0  0  2  0  0  0  0
   -1.0717    0.4125    0.0000 C   0  0  0  0  0  0  0  2  0  0  0  0
    1.0717   -0.8250    0.0000 C   0  0  0  0  0  0  0  2  0  0  0  0
    1.0717    0.8250    0.0000 C   0  0  0  0  0  0  0  2  0  0  0  0
  1  2  4  0        0
  2  3  4  0        0
  3  4  4  0        0
  4  5  4  0        0
  5  6  4  0        0
  1  6  4  0        0
  3  7  1  0        0
  2  8  1  0        0
M  END
$$$$

CDXL12

  6  5  0  0  0  0  0  0  0  0999 V2000
    0.0000    0.6188    0.0000 O   0  0  0  0  0  0  0  2  0  0  0  0
    0.0000   -0.2062    0.0000 C   0  0  0  0  0  0  0  2  0  0  0  0
    0.7145   -0.6188    0.0000 C   0  0  0  0  0  0  0  2  0  0  0  0
    1.4289   -0.2062    0.0000 C   0  0  0  0  0  0  0  2  0  0  0  0
   -0.7145   -0.6187    0.0000 C   0  0  0  0  0  0  0  2  0  0  0  0
   -1.4289   -0.2062    0.0000 C   0  0  0  0  0  0  0  2  0  0  0  0
  1  2  1  0        0
  2  3  1  0        0
  3  4  1  0        0
  2  5  1  0        0
  5  6  1  0        0
M  END
$$$$

CDXL12

  6  5  0  0  0  0  0  0  0  0999 V2000
    1.4289   -0.2062    0.0000 O   0  0  0  0  0  0  0  2  0  0  0  0
    0.7145   -0.6188    0.0000 C   0  0  0  0  0  0  0  2  0  0  0  0
    0.0000   -0.2062    0.0000 C   0  0  0  0  0  0  0  2  0  0  0  0
    0.0000    0.6188    0.0000 O   0  0  0  0  0  0  0  2  0  0  0  0
   -0.7145   -0.6187    0.0000 C   0  0  0  0  0  0  0  2  0  0  0  0
   -1.4289   -0.2062    0.0000 C   0  0  0  0  0  0  0  2  0  0  0  0
  1  2  1  0        0
  2  3  1  0        0
  3  4  1  0        0
  3  5  1  0        0
  5  6  1  0        0
M  END
$$$$

CDXL12

 11 11  0  0  0  0  0  0  0  0999 V2000
    1.7862    0.4125    0.0000 O   0  0  0  0  0  0  0  2  0  0  0  0
    1.0717   -0.0000    0.0000 C   0  0  0  0  0  0  0  2  0  0  0  0
    1.0717   -0.8250    0.0000 C   0  0  0  0  0  0  0  2  0  0  0  0
    0.3572   -1.2375    0.0000 C   0  0  0  0  0  0  0  2  0  0  0  0
   -0.3572   -0.8250    0.0000 C   0  0  0  0  0  0  0  2  0  0  0  0
   -0.3572   -0.0000    0.0000 C   0  0  0  0  0  0  0  2  0  0  0  0
   -1.0717    0.4125    0.0000 C   0  0  0  0  0  0  0  2  0  0  0  0
   -1.7862    0.8250    0.0000 C   0  0  0  0  0  0  0  2  0  0  0  0
   -1.0717    1.2375    0.0000 C   0  0  0  0  0  0  0  2  0  0  0  0
   -1.7862   -0.0000    0.0000 C   0  0  0  0  0  0  0  2  0  0  0  0
    0.3572    0.4125    0.0000 C   0  0  0  0  0  0  0  2  0  0  0  0
  1  2  1  0        0
  2  3  4  0        0
  3  4  4  0        0
  4  5  4  0        0
  5  6  4  0        0
  6  7  1  0        0
  7  8  1  0        0
  7  9  1  0        0
  7 10  1  0        0
  6 11  4  0        0
  2 11  4  0        0
M  END
$$$$

CDXL12

 10 10  0  0  0  0  0  0  0  0999 V2000
    1.0717    1.2375    0.0000 O   0  0  0  0  0  0  0  2  0  0  0  0
    1.0717    0.4125    0.0000 C   0  0  0  0  0  0  0  2  0  0  0  0
    1.7862   -0.0000    0.0000 O   0  0  0  0  0  0  0  2  0  0  0  0
    0.3572   -0.0000    0.0000 C   0  0  0  0  0  0  0  2  0  0  0  0
    0.3572   -0.8250    0.0000 C   0  0  0  0  0  0  0  2  0  0  0  0
   -0.3572   -1.2375    0.0000 C   0  0  0  0  0  0  0  2  0  0  0  0
   -1.0717   -0.8250    0.0000 C   0  0  0  0  0  0  0  2  0  0  0  0
   -1.0717    0.0000    0.0000 C   0  0  0  0  0  0  0  2  0  0  0  0
   -1.7862    0.4125    0.0000 Br  0  0  0  0  0  0  0  2  0  0  0  0
   -0.3572    0.4125    0.0000 C   0  0  0  0  0  0  0  2  0  0  0  0
  1  2  2  0        0
  2  3  1  0        0
  2  4  1  0        0
  4  5  4  0        0
  5  6  4  0        0
  6  7  4  0        0
  7  8  4  0        0
  8  9  1  0        0
  8 10  4  0        0
  4 10  4  0        0
M  END
$$$$

CDXL12

 10 10  0  0  0  0  0  0  0  0999 V2000
   -1.0717    1.2375    0.0000 O   0  0  0  0  0  0  0  2  0  0  0  0
   -1.0717    0.4125    0.0000 N   0  0  0  0  0  0  0  2  0  0  0  0
   -1.7862   -0.0000    0.0000 O   0  0  0  0  0  0  0  2  0  0  0  0
   -0.3572   -0.0000    0.0000 C   0  0  0  0  0  0  0  2  0  0  0  0
   -0.3572   -0.8250    0.0000 C   0  0  0  0  0  0  0  2  0  0  0  0
    0.3572   -1.2375    0.0000 C   0  0  0  0  0  0  0  2  0  0  0  0
    1.0717   -0.8250    0.0000 C   0  0  0  0  0  0  0  2  0  0  0  0
    1.0717    0.0000    0.0000 C   0  0  0  0  0  0  0  2  0  0  0  0
    1.7862    0.4125    0.0000 Br  0  0  0  0  0  0  0  2  0  0  0  0
    0.3572    0.4125    0.0000 C   0  0  0  0  0  0  0  2  0  0  0  0
  1  2  2  0        0
  2  3  2  0        0
  2  4  1  0        0
  4  5  4  0        0
  5  6  4  0        0
  6  7  4  0        0
  7  8  4  0        0
  8  9  1  0        0
  8 10  4  0        0
  4 10  4  0        0
M  END
$$$$

CDXL12

 10 10  0  0  0  0  0  0  0  0999 V2000
    1.0717    1.2375    0.0000 O   0  0  0  0  0  0  0  2  0  0  0  0
    1.0717    0.4125    0.0000 C   0  0  0  0  0  0  0  2  0  0  0  0
    1.7862   -0.0000    0.0000 O   0  0  0  0  0  0  0  2  0  0  0  0
    0.3572   -0.0000    0.0000 C   0  0  0  0  0  0  0  2  0  0  0  0
   -0.3572    0.4125    0.0000 C   0  0  0  0  0  0  0  2  0  0  0  0
   -1.0717   -0.0000    0.0000 C   0  0  0  0  0  0  0  2  0  0  0  0
   -1.0717   -0.8250    0.0000 C   0  0  0  0  0  0  0  2  0  0  0  0
   -0.3572   -1.2375    0.0000 C   0  0  0  0  0  0  0  2  0  0  0  0
    0.3572   -0.8250    0.0000 C   0  0  0  0  0  0  0  2  0  0  0  0
   -1.7862   -1.2375    0.0000 Br  0  0  0  0  0  0  0  2  0  0  0  0
  1  2  2  0        0
  2  3  1  0        0
  2  4  1  0        0
  4  5  4  0        0
  5  6  4  0        0
  6  7  4  0        0
  7  8  4  0        0
  8  9  4  0        0
  4  9  4  0        0
  7 10  1  0        0
M  END
$$$$

CDXL12

 13 13  0  0  0  0  0  0  0  0999 V2000
    2.5006   -0.4125    0.0000 O   0  0  0  0  0  0  0  2  0  0  0  0
    1.7862   -0.8250    0.0000 C   0  0  0  0  0  0  0  2  0  0  0  0
    1.7862   -1.6500    0.0000 O   0  0  0  0  0  0  0  2  0  0  0  0
    1.0717   -0.4125    0.0000 C   0  0  0  0  0  0  0  2  0  0  0  0
    0.3572   -0.8250    0.0000 O   0  0  0  0  0  0  0  2  0  0  0  0
   -0.3572   -0.4125    0.0000 C   0  0  0  0  0  0  0  2  0  0  0  0
   -0.3572    0.4125    0.0000 C   0  0  0  0  0  0  0  2  0  0  0  0
   -1.0717    0.8250    0.0000 C   0  0  0  0  0  0  0  2  0  0  0  0
   -1.0717    1.6500    0.0000 Cl  0  0  0  0  0  0  0  2  0  0  0  0
   -1.7862    0.4125    0.0000 C   0  0  0  0  0  0  0  2  0  0  0  0
   -1.7862   -0.4125    0.0000 C   0  0  0  0  0  0  0  2  0  0  0  0
   -2.5006   -0.8250    0.0000 Cl  0  0  0  0  0  0  0  2  0  0  0  0
   -1.0717   -0.8250    0.0000 C   0  0  0  0  0  0  0  2  0  0  0  0
  1  2  1  0        0
  2  3  2  0        0
  2  4  1  0        0
  4  5  1  0        0
  5  6  1  0        0
  6  7  4  0        0
  7  8  4  0        0
  8  9  1  0        0
  8 10  4  0        0
 10 11  4  0        0
 11 12  1  0        0
 11 13  4  0        0
  6 13  4  0        0
M  END
$$$$

CDXL12

 13 13  0  0  0  0  0  0  0  0999 V2000
    2.5006   -0.0000    0.0000 O   0  0  0  0  0  0  0  2  0  0  0  0
    1.7862    0.4125    0.0000 C   0  0  0  0  0  0  0  2  0  0  0  0
    1.7862    1.2375    0.0000 O   0  0  0  0  0  0  0  2  0  0  0  0
    1.0717   -0.0000    0.0000 C   0  0  0  0  0  0  0  2  0  0  0  0
    0.3572    0.4125    0.0000 O   0  0  0  0  0  0  0  2  0  0  0  0
   -0.3572   -0.0000    0.0000 C   0  0  0  0  0  0  0  2  0  0  0  0
   -0.3572   -0.8250    0.0000 C   0  0  0  0  0  0  0  2  0  0  0  0
   -1.0717   -1.2375    0.0000 C   0  0  0  0  0  0  0  2  0  0  0  0
   -1.7862   -0.8250    0.0000 C   0  0  0  0  0  0  0  2  0  0  0  0
   -2.5006   -1.2375    0.0000 Cl  0  0  0  0  0  0  0  2  0  0  0  0
   -1.7862    0.0000    0.0000 C   0  0  0  0  0  0  0  2  0  0  0  0
   -2.5006    0.4125    0.0000 Cl  0  0  0  0  0  0  0  2  0  0  0  0
   -1.0717    0.4125    0.0000 C   0  0  0  0  0  0  0  2  0  0  0  0
  1  2  1  0        0
  2  3  2  0        0
  2  4  1  0        0
  4  5  1  0        0
  5  6  1  0        0
  6  7  4  0        0
  7  8  4  0        0
  8  9  4  0        0
  9 10  1  0        0
  9 11  4  0        0
 11 12  1  0        0
 11 13  4  0        0
  6 13  4  0        0
M  END
$$$$

CDXL12

  9  9  0  0  0  0  0  0  0  0999 V2000
    1.7862   -0.4125    0.0000 O   0  0  0  0  0  0  0  2  0  0  0  0
    1.0717   -0.8250    0.0000 C   0  0  0  0  0  0  0  2  0  0  0  0
    0.3572   -0.4125    0.0000 C   0  0  0  0  0  0  0  2  0  0  0  0
   -0.3572   -0.8250    0.0000 C   0  0  0  0  0  0  0  2  0  0  0  0
   -1.0717   -0.4125    0.0000 C   0  0  0  0  0  0  0  2  0  0  0  0
   -1.0717    0.4125    0.0000 C   0  0  0  0  0  0  0  2  0  0  0  0
   -0.3572    0.8250    0.0000 C   0  0  0  0  0  0  0  2  0  0  0  0
    0.3572    0.4125    0.0000 C   0  0  0  0  0  0  0  2  0  0  0  0
   -1.7862    0.8250    0.0000 C   0  0  0  0  0  0  0  2  0  0  0  0
  1  2  1  0        0
  2  3  1  0        0
  3  4  4  0        0
  4  5  4  0        0
  5  6  4  0        0
  6  7  4  0        0
  7  8  4  0        0
  3  8  4  0        0
  6  9  1  0        0
M  END
$$$$

CDXL12

  7  6  0  0  0  0  0  0  0  0999 V2000
    0.3572   -0.2062    0.0000 C   0  0  0  0  0  0  0  2  0  0  0  0
   -0.3572   -0.6187    0.0000 C   0  0  0  0  0  0  0  2  0  0  0  0
   -1.0717   -0.2062    0.0000 C   0  0  0  0  0  0  0  2  0  0  0  0
   -1.7862   -0.6187    0.0000 C   0  0  0  0  0  0  0  2  0  0  0  0
    1.0717   -0.6187    0.0000 C   0  0  0  0  0  0  0  2  0  0  0  0
    1.7862   -0.2062    0.0000 C   0  0  0  0  0  0  0  2  0  0  0  0
    0.3572    0.6187    0.0000 C   0  0  0  0  0  0  0  2  0  0  0  0
  1  2  1  0        0
  2  3  1  0        0
  3  4  1  0        0
  1  5  1  0        0
  5  6  1  0        0
  1  7  1  0        0
M  END
$$$$

CDXL12

  7  6  0  0  0  0  0  0  0  0999 V2000
    0.3572    0.6187    0.0000 O   0  0  0  0  0  0  0  2  0  0  0  0
    0.3572   -0.2062    0.0000 C   0  0  0  0  0  0  0  2  0  0  0  0
   -0.3572   -0.6187    0.0000 C   0  0  0  0  0  0  0  2  0  0  0  0
   -1.0717   -0.2062    0.0000 C   0  0  0  0  0  0  0  2  0  0  0  0
   -1.7862   -0.6187    0.0000 C   0  0  0  0  0  0  0  2  0  0  0  0
    1.0717   -0.6187    0.0000 C   0  0  0  0  0  0  0  2  0  0  0  0
    1.7862   -0.2062    0.0000 C   0  0  0  0  0  0  0  2  0  0  0  0
  1  2  2  0        0
  2  3  1  0        0
  3  4  1  0        0
  4  5  1  0        0
  2  6  1  0        0
  6  7  1  0        0
M  END
$$$$

CDXL12

  8  7  0  0  0  0  0  0  0  0999 V2000
    1.0717    0.6187    0.0000 C   0  0  0  0  0  0  0  2  0  0  0  0
    1.0717   -0.2062    0.0000 C   0  0  0  0  0  0  0  2  0  0  0  0
    1.7862   -0.6187    0.0000 C   0  0  0  0  0  0  0  2  0  0  0  0
    0.3572   -0.6187    0.0000 C   0  0  0  0  0  0  0  2  0  0  0  0
   -0.3572   -0.2062    0.0000 C   0  0  0  0  0  0  0  2  0  0  0  0
   -0.3572    0.6187    0.0000 C   0  0  0  0  0  0  0  2  0  0  0  0
   -1.0717   -0.6187    0.0000 C   0  0  0  0  0  0  0  2  0  0  0  0
   -1.7862   -0.2062    0.0000 C   0  0  0  0  0  0  0  2  0  0  0  0
  1  2  1  0        0
  2  3  1  0        0
  2  4  1  0        0
  4  5  1  0        0
  5  6  1  0        0
  5  7  1  0        0
  7  8  1  0        0
M  END
$$$$

CDXL12

  8  7  0  0  0  0  0  0  0  0999 V2000
    0.0000    0.6188    0.0000 O   0  0  0  0  0  0  0  2  0  0  0  0
    0.0000   -0.2062    0.0000 C   0  0  0  0  0  0  0  2  0  0  0  0
   -0.7145   -0.6187    0.0000 C   0  0  0  0  0  0  0  2  0  0  0  0
   -1.4289   -0.2062    0.0000 C   0  0  0  0  0  0  0  2  0  0  0  0
   -2.1434   -0.6187    0.0000 C   0  0  0  0  0  0  0  2  0  0  0  0
    0.7145   -0.6188    0.0000 C   0  0  0  0  0  0  0  2  0  0  0  0
    1.4289   -0.2062    0.0000 C   0  0  0  0  0  0  0  2  0  0  0  0
    2.1434   -0.6188    0.0000 C   0  0  0  0  0  0  0  2  0  0  0  0
  1  2  1  0        0
  2  3  1  0        0
  3  4  1  0        0
  4  5  1  0        0
  2  6  1  0        0
  6  7  1  0        0
  7  8  1  0        0
M  END
$$$$

CDXL12

  8  7  0  0  0  0  0  0  0  0999 V2000
   -0.7145   -0.2062    0.0000 C   0  0  0  0  0  0  0  2  0  0  0  0
    0.0000   -0.6188    0.0000 C   0  0  0  0  0  0  0  2  0  0  0  0
    0.7145   -0.2062    0.0000 C   0  0  0  0  0  0  0  2  0  0  0  0
    1.4289   -0.6188    0.0000 C   0  0  0  0  0  0  0  2  0  0  0  0
    2.1434   -0.2062    0.0000 C   0  0  0  0  0  0  0  2  0  0  0  0
   -1.4289   -0.6187    0.0000 C   0  0  0  0  0  0  0  2  0  0  0  0
   -2.1434   -0.2062    0.0000 C   0  0  0  0  0  0  0  2  0  0  0  0
   -0.7145    0.6188    0.0000 C   0  0  0  0  0  0  0  2  0  0  0  0
  1  2  1  0        0
  2  3  1  0        0
  3  4  1  0        0
  4  5  1  0        0
  1  6  1  0        0
  6  7  1  0        0
  1  8  1  0        0
M  END
$$$$

CDXL12

  8  7  0  0  0  0  0  0  0  0999 V2000
   -0.7145    0.6188    0.0000 O   0  0  0  0  0  0  0  2  0  0  0  0
   -0.7145   -0.2062    0.0000 C   0  0  0  0  0  0  0  2  0  0  0  0
    0.0000   -0.6188    0.0000 C   0  0  0  0  0  0  0  2  0  0  0  0
    0.7145   -0.2062    0.0000 C   0  0  0  0  0  0  0  2  0  0  0  0
    1.4289   -0.6188    0.0000 C   0  0  0  0  0  0  0  2  0  0  0  0
    2.1434   -0.2062    0.0000 C   0  0  0  0  0  0  0  2  0  0  0  0
   -1.4289   -0.6187    0.0000 C   0  0  0  0  0  0  0  2  0  0  0  0
   -2.1434   -0.2062    0.0000 C   0  0  0  0  0  0  0  2  0  0  0  0
  1  2  1  0        0
  2  3  1  0        0
  3  4  1  0        0
  4  5  1  0        0
  5  6  1  0        0
  2  7  1  0        0
  7  8  1  0        0
M  END
$$$$

CDXL12

  8  8  0  0  0  0  0  0  0  0999 V2000
    0.7145    0.4125    0.0000 C   0  0  0  0  0  0  0  2  0  0  0  0
    0.7145   -0.4125    0.0000 C   0  0  0  0  0  0  0  2  0  0  0  0
    0.0000   -0.8250    0.0000 C   0  0  0  0  0  0  0  2  0  0  0  0
   -0.7145   -0.4125    0.0000 C   0  0  0  0  0  0  0  2  0  0  0  0
   -0.7145    0.4125    0.0000 C   0  0  0  0  0  0  0  2  0  0  0  0
    0.0000    0.8250    0.0000 C   0  0  0  0  0  0  0  2  0  0  0  0
   -1.4289   -0.8250    0.0000 Br  0  0  0  0  0  0  0  2  0  0  0  0
    1.4289    0.8250    0.0000 I   0  0  0  0  0  0  0  2  0  0  0  0
  1  2  4  0        0
  2  3  4  0        0
  3  4  4  0        0
  4  5  4  0        0
  5  6  4  0        0
  1  6  4  0        0
  4  7  1  0        0
  1  8  1  0        0
M  END
$$$$

CDXL12

  9  8  0  0  0  0  0  0  0  0999 V2000
   -1.0717    0.6187    0.0000 O   0  0  0  0  0  0  0  2  0  0  0  0
   -1.0717   -0.2062    0.0000 C   0  0  0  0  0  0  0  2  0  0  0  0
   -0.3572   -0.6187    0.0000 O   0  0  0  0  0  0  0  2  0  0  0  0
    0.3572   -0.2062    0.0000 C   0  0  0  0  0  0  0  2  0  0  0  0
    1.0717   -0.6187    0.0000 C   0  0  0  0  0  0  0  2  0  0  0  0
    1.7862   -0.2062    0.0000 C   0  0  0  0  0  0  0  2  0  0  0  0
    2.5006   -0.6187    0.0000 C   0  0  0  0  0  0  0  2  0  0  0  0
   -1.7862   -0.6187    0.0000 C   0  0  0  0  0  0  0  2  0  0  0  0
   -2.5006   -0.2062    0.0000 C   0  0  0  0  0  0  0  2  0  0  0  0
  1  2  2  0        0
  2  3  1  0        0
  3  4  1  0        0
  4  5  1  0        0
  5  6  1  0        0
  6  7  1  0        0
  2  8  1  0        0
  8  9  1  0        0
M  END
$$$$

CDXL12

  4  3  0  0  0  0  0  0  0  0999 V2000
   -0.3572   -0.2062    0.0000 C   0  0  0  0  0  0  0  2  0  0  0  0
    0.3572    0.2062    0.0000 C   0  0  0  0  0  0  0  2  0  0  0  0
    1.0717   -0.2062    0.0000 C   0  0  0  0  0  0  0  2  0  0  0  0
   -1.0717    0.2062    0.0000 C   0  0  0  0  0  0  0  2  0  0  0  0
  1  2  2  0        0
  2  3  1  0        0
  1  4  1  0        0
M  END
$$$$

CDXL12

  7  6  0  0  0  0  0  0  0  0999 V2000
    0.7145   -0.2062    0.0000 C   0  0  0  0  0  0  0  2  0  0  0  0
    0.0000   -0.6188    0.0000 C   0  0  0  0  0  0  0  2  0  0  0  0
   -0.7145   -0.2063    0.0000 C   0  0  0  0  0  0  0  2  0  0  0  0
   -1.4289   -0.6188    0.0000 C   0  0  0  0  0  0  0  2  0  0  0  0
    0.7145    0.6188    0.0000 C   0  0  0  0  0  0  0  2  0  0  0  0
    1.4289    0.2062    0.0000 C   0  0  0  0  0  0  0  2  0  0  0  0
    1.4289   -0.6188    0.0000 C   0  0  0  0  0  0  0  2  0  0  0  0
  1  2  1  0        0
  2  3  1  0        0
  3  4  1  0        0
  1  5  1  0        0
  1  6  1  0        0
  1  7  1  0        0
M  END
$$$$

CDXL12

  7  6  0  0  0  0  0  0  0  0999 V2000
    1.4289    0.2062    0.0000 O   0  0  0  0  0  0  0  2  0  0  0  0
    0.7145   -0.2062    0.0000 C   0  0  0  0  0  0  0  2  0  0  0  0
    0.0000   -0.6188    0.0000 C   0  0  0  0  0  0  0  2  0  0  0  0
   -0.7145   -0.2063    0.0000 C   0  0  0  0  0  0  0  2  0  0  0  0
   -1.4289   -0.6188    0.0000 C   0  0  0  0  0  0  0  2  0  0  0  0
    0.7145    0.6188    0.0000 C   0  0  0  0  0  0  0  2  0  0  0  0
    1.4289   -0.6188    0.0000 C   0  0  0  0  0  0  0  2  0  0  0  0
  1  2  1  0        0
  2  3  1  0        0
  3  4  1  0        0
  4  5  1  0        0
  2  6  1  0        0
  2  7  1  0        0
M  END
$$$$

CDXL12

  8  7  0  0  0  0  0  0  0  0999 V2000
    1.0717    0.6188    0.0000 C   0  0  0  0  0  0  0  2  0  0  0  0
    1.0717   -0.2062    0.0000 C   0  0  0  0  0  0  0  2  0  0  0  0
    1.7862    0.2062    0.0000 C   0  0  0  0  0  0  0  2  0  0  0  0
    1.7862   -0.6188    0.0000 C   0  0  0  0  0  0  0  2  0  0  0  0
    0.3572   -0.6188    0.0000 C   0  0  0  0  0  0  0  2  0  0  0  0
   -0.3572   -0.2063    0.0000 C   0  0  0  0  0  0  0  2  0  0  0  0
   -1.0717   -0.6188    0.0000 C   0  0  0  0  0  0  0  2  0  0  0  0
   -1.7862   -0.2063    0.0000 C   0  0  0  0  0  0  0  2  0  0  0  0
  1  2  1  0        0
  2  3  1  0        0
  2  4  1  0        0
  2  5  1  0        0
  5  6  1  0        0
  6  7  1  0        0
  7  8  1  0        0
M  END
$$$$

CDXL12

  6  5  0  0  0  0  0  0  0  0999 V2000
   -1.4289   -0.6187    0.0000 O   0  0  0  0  0  0  0  2  0  0  0  0
   -0.7145   -0.2062    0.0000 C   0  0  0  0  0  0  0  2  0  0  0  0
    0.0000   -0.6187    0.0000 C   0  0  0  0  0  0  0  2  0  0  0  0
    0.7145   -0.2062    0.0000 C   0  0  0  0  0  0  0  2  0  0  0  0
    0.7145    0.6187    0.0000 C   0  0  0  0  0  0  0  2  0  0  0  0
    1.4289   -0.6187    0.0000 C   0  0  0  0  0  0  0  2  0  0  0  0
  1  2  2  0        0
  2  3  1  0        0
  3  4  1  0        0
  4  5  1  0        0
  4  6  1  0        0
M  END
$$$$

CDXL12

  8  8  0  0  0  0  0  0  0  0999 V2000
    0.7145    0.4125    0.0000 C   0  0  0  0  0  0  0  2  0  0  0  0
    0.7145   -0.4125    0.0000 C   0  0  0  0  0  0  0  2  0  0  0  0
    0.0000   -0.8250    0.0000 C   0  0  0  0  0  0  0  2  0  0  0  0
   -0.7145   -0.4125    0.0000 C   0  0  0  0  0  0  0  2  0  0  0  0
   -0.7145    0.4125    0.0000 C   0  0  0  0  0  0  0  2  0  0  0  0
   -1.4289    0.8250    0.0000 Br  0  0  0  0  0  0  0  2  0  0  0  0
    0.0000    0.8250    0.0000 C   0  0  0  0  0  0  0  2  0  0  0  0
    1.4289    0.8250    0.0000 C   0  0  0  0  0  0  0  2  0  0  0  0
  1  2  4  0        0
  2  3  4  0        0
  3  4  4  0        0
  4  5  4  0        0
  5  6  1  0        0
  5  7  4  0        0
  1  7  4  0        0
  1  8  1  0        0
M  END
$$$$

CDXL12

  8  8  0  0  0  0  0  0  0  0999 V2000
    1.4289    0.8250    0.0000 O   0  0  0  0  0  0  0  2  0  0  0  0
    0.7145    0.4125    0.0000 C   0  0  0  0  0  0  0  2  0  0  0  0
    0.7145   -0.4125    0.0000 C   0  0  0  0  0  0  0  2  0  0  0  0
    0.0000   -0.8250    0.0000 C   0  0  0  0  0  0  0  2  0  0  0  0
   -0.7145   -0.4125    0.0000 C   0  0  0  0  0  0  0  2  0  0  0  0
   -0.7145    0.4125    0.0000 C   0  0  0  0  0  0  0  2  0  0  0  0
   -1.4289    0.8250    0.0000 Br  0  0  0  0  0  0  0  2  0  0  0  0
    0.0000    0.8250    0.0000 C   0  0  0  0  0  0  0  2  0  0  0  0
  1  2  1  0        0
  2  3  4  0        0
  3  4  4  0        0
  4  5  4  0        0
  5  6  4  0        0
  6  7  1  0        0
  6  8  4  0        0
  2  8  4  0        0
M  END
$$$$

CDXL12

  8  8  0  0  0  0  0  0  0  0999 V2000
    1.4289    0.8250    0.0000 O   0  0  0  0  0  0  0  2  0  0  0  0
    0.7145    0.4125    0.0000 C   0  0  0  0  0  0  0  2  0  0  0  0
    0.7145   -0.4125    0.0000 C   0  0  0  0  0  0  0  2  0  0  0  0
    0.0000   -0.8250    0.0000 C   0  0  0  0  0  0  0  2  0  0  0  0
   -0.7145   -0.4125    0.0000 C   0  0  0  0  0  0  0  2  0  0  0  0
   -0.7145    0.4125    0.0000 C   0  0  0  0  0  0  0  2  0  0  0  0
   -1.4289    0.8250    0.0000 C   0  0  0  0  0  0  0  2  0  0  0  0
    0.0000    0.8250    0.0000 C   0  0  0  0  0  0  0  2  0  0  0  0
  1  2  2  0        0
  2  3  1  0        0
  3  4  1  0        0
  4  5  1  0        0
  5  6  1  0        0
  6  7  1  0        0
  6  8  1  0        0
  2  8  1  0        0
M  END
$$$$

CDXL12

  8  8  0  0  0  0  0  0  0  0999 V2000
    1.4289    0.8250    0.0000 O   0  0  0  0  0  0  0  2  0  0  0  0
    0.7145    0.4125    0.0000 C   0  0  0  0  0  0  0  2  0  0  0  0
    0.7145   -0.4125    0.0000 C   0  0  0  0  0  0  0  2  0  0  0  0
    0.0000   -0.8250    0.0000 C   0  0  0  0  0  0  0  2  0  0  0  0
   -0.7145   -0.4125    0.0000 C   0  0  0  0  0  0  0  2  0  0  0  0
   -0.7145    0.4125    0.0000 C   0  0  0  0  0  0  0  2  0  0  0  0
   -1.4289    0.8250    0.0000 N   0  0  0  0  0  0  0  2  0  0  0  0
    0.0000    0.8250    0.0000 C   0  0  0  0  0  0  0  2  0  0  0  0
  1  2  1  0        0
  2  3  4  0        0
  3  4  4  0        0
  4  5  4  0        0
  5  6  4  0        0
  6  7  1  0        0
  6  8  4  0        0
  2  8  4  0        0
M  END
$$$$

CDXL12

  0  0  0  0  0  0  0  0  0  0999 V2000
M  END
$$$$

CDXL12

  7  7  0  0  0  0  0  0  0  0999 V2000
    0.3572    0.4125    0.0000 C   0  0  0  0  0  0  0  2  0  0  0  0
    0.3572   -0.4125    0.0000 C   0  0  0  0  0  0  0  2  0  0  0  0
   -0.3572   -0.8250    0.0000 C   0  0  0  0  0  0  0  2  0  0  0  0
   -1.0717   -0.4125    0.0000 C   0  0  0  0  0  0  0  2  0  0  0  0
   -1.0717    0.4125    0.0000 C   0  0  0  0  0  0  0  2  0  0  0  0
   -0.3572    0.8250    0.0000 C   0  0  0  0  0  0  0  2  0  0  0  0
    1.0717    0.8250    0.0000 I   0  0  0  0  0  0  0  2  0  0  0  0
  1  2  4  0        0
  2  3  4  0        0
  3  4  4  0        0
  4  5  4  0        0
  5  6  4  0        0
  1  6  4  0        0
  1  7  1  0        0
M  END
$$$$

CDXL12

 11 10  0  0  0  0  0  0  0  0999 V2000
   -0.3572    0.6187    0.0000 O   0  0  0  0  0  0  0  2  0  0  0  0
   -0.3572   -0.2062    0.0000 C   0  0  0  0  0  0  0  2  0  0  0  0
    0.3572   -0.6187    0.0000 O   0  0  0  0  0  0  0  2  0  0  0  0
    1.0717   -0.2062    0.0000 C   0  0  0  0  0  0  0  2  0  0  0  0
    1.7862   -0.6187    0.0000 C   0  0  0  0  0  0  0  2  0  0  0  0
    2.5006   -0.2062    0.0000 C   0  0  0  0  0  0  0  2  0  0  0  0
    3.2151   -0.6187    0.0000 C   0  0  0  0  0  0  0  2  0  0  0  0
   -1.0717   -0.6187    0.0000 C   0  0  0  0  0  0  0  2  0  0  0  0
   -1.7862   -0.2062    0.0000 C   0  0  0  0  0  0  0  2  0  0  0  0
   -2.5006   -0.6187    0.0000 C   0  0  0  0  0  0  0  2  0  0  0  0
   -3.2151   -0.2062    0.0000 C   0  0  0  0  0  0  0  2  0  0  0  0
  1  2  2  0        0
  2  3  1  0        0
  3  4  1  0        0
  4  5  1  0        0
  5  6  1  0        0
  6  7  1  0        0
  2  8  1  0        0
  8  9  1  0        0
  9 10  1  0        0
 10 11  1  0        0
M  END
$$$$

CDXL12

  7  6  0  0  0  0  0  0  0  0999 V2000
    1.0717   -0.2062    0.0000 C   0  0  0  0  0  0  0  2  0  0  0  0
    0.3572   -0.6187    0.0000 C   0  0  0  0  0  0  0  2  0  0  0  0
   -0.3572   -0.2062    0.0000 C   0  0  0  0  0  0  0  2  0  0  0  0
   -1.0717   -0.6187    0.0000 C   0  0  0  0  0  0  0  2  0  0  0  0
   -1.7862   -0.2062    0.0000 C   0  0  0  0  0  0  0  2  0  0  0  0
    1.0717    0.6187    0.0000 C   0  0  0  0  0  0  0  2  0  0  0  0
    1.7862   -0.6187    0.0000 C   0  0  0  0  0  0  0  2  0  0  0  0
  1  2  1  0        0
  2  3  1  0        0
  3  4  1  0        0
  4  5  1  0        0
  1  6  1  0        0
  1  7  1  0        0
M  END
$$$$

CDXL12

  7  6  0  0  0  0  0  0  0  0999 V2000
    1.0717    0.6187    0.0000 O   0  0  0  0  0  0  0  2  0  0  0  0
    1.0717   -0.2062    0.0000 C   0  0  0  0  0  0  0  2  0  0  0  0
    0.3572   -0.6187    0.0000 C   0  0  0  0  0  0  0  2  0  0  0  0
   -0.3572   -0.2062    0.0000 C   0  0  0  0  0  0  0  2  0  0  0  0
   -1.0717   -0.6187    0.0000 C   0  0  0  0  0  0  0  2  0  0  0  0
   -1.7862   -0.2062    0.0000 C   0  0  0  0  0  0  0  2  0  0  0  0
    1.7862   -0.6187    0.0000 C   0  0  0  0  0  0  0  2  0  0  0  0
  1  2  2  0        0
  2  3  1  0        0
  3  4  1  0        0
  4  5  1  0        0
  5  6  1  0        0
  2  7  1  0        0
M  END
$$$$

CDXL12

  5  4  0  0  0  0  0  0  0  0999 V2000
   -0.7145    0.2062    0.0000 C   0  0  0  0  0  0  0  2  0  0  0  0
   -1.4289   -0.2062    0.0000 C   0  0  0  0  0  0  0  2  0  0  0  0
    0.0000   -0.2062    0.0000 C   0  0  0  0  0  0  0  2  0  0  0  0
    0.7145    0.2062    0.0000 C   0  0  0  0  0  0  0  2  0  0  0  0
    1.4289   -0.2062    0.0000 C   0  0  0  0  0  0  0  2  0  0  0  0
  1  2  2  0        0
  1  3  1  0        0
  3  4  1  0        0
  4  5  2  0        0
M  END
$$$$

CDXL12

  5  4  0  0  0  0  0  0  0  0999 V2000
    0.0000   -0.2062    0.0000 C   0  0  0  0  0  0  0  2  0  0  0  0
   -0.7145    0.2062    0.0000 C   0  0  0  0  0  0  0  2  0  0  0  0
   -1.4289   -0.2062    0.0000 C   0  0  0  0  0  0  0  2  0  0  0  0
    0.7145    0.2062    0.0000 C   0  0  0  0  0  0  0  2  0  0  0  0
    1.4289   -0.2062    0.0000 Cl  0  0  0  0  0  0  0  2  0  0  0  0
  1  2  2  0        0
  2  3  1  0        0
  1  4  1  0        0
  4  5  1  0        0
M  END
$$$$

CDXL12

  8  7  0  0  0  0  0  0  0  0999 V2000
   -1.4289    0.6187    0.0000 O   0  0  0  0  0  0  0  2  0  0  0  0
   -1.4289   -0.2062    0.0000 C   0  0  0  0  0  0  0  2  0  0  0  0
   -0.7145   -0.6187    0.0000 O   0  0  0  0  0  0  0  2  0  0  0  0
    0.0000   -0.2062    0.0000 C   0  0  0  0  0  0  0  2  0  0  0  0
    0.7145   -0.6187    0.0000 C   0  0  0  0  0  0  0  2  0  0  0  0
    1.4289   -0.2062    0.0000 C   0  0  0  0  0  0  0  2  0  0  0  0
    2.1434   -0.6187    0.0000 C   0  0  0  0  0  0  0  2  0  0  0  0
   -2.1434   -0.6187    0.0000 N   0  0  0  0  0  0  0  2  0  0  0  0
  1  2  2  0        0
  2  3  1  0        0
  3  4  1  0        0
  4  5  1  0        0
  5  6  1  0        0
  6  7  1  0        0
  2  8  1  0        0
M  END
$$$$

CDXL12

  6  5  0  0  0  0  0  0  0  0999 V2000
   -1.0717    0.2062    0.0000 C   0  0  0  0  0  0  0  2  0  0  0  0
   -1.7862   -0.2062    0.0000 C   0  0  0  0  0  0  0  2  0  0  0  0
   -0.3572   -0.2062    0.0000 C   0  0  0  0  0  0  0  2  0  0  0  0
    0.3572    0.2062    0.0000 C   0  0  0  0  0  0  0  2  0  0  0  0
    1.0717   -0.2062    0.0000 C   0  0  0  0  0  0  0  2  0  0  0  0
    1.7862    0.2062    0.0000 C   0  0  0  0  0  0  0  2  0  0  0  0
  1  2  2  0        0
  1  3  1  0        0
  3  4  1  0        0
  4  5  1  0        0
  5  6  1  0        0
M  END
$$$$

CDXL12

  6  5  0  0  0  0  0  0  0  0999 V2000
   -1.0717    0.2062    0.0000 C   0  0  0  0  0  0  0  2  0  0  0  0
   -1.7862   -0.2062    0.0000 C   0  0  0  0  0  0  0  2  0  0  0  0
   -0.3572   -0.2062    0.0000 C   0  0  0  0  0  0  0  2  0  0  0  0
    0.3572    0.2062    0.0000 C   0  0  0  0  0  0  0  2  0  0  0  0
    1.0717   -0.2062    0.0000 C   0  0  0  0  0  0  0  2  0  0  0  0
    1.7862    0.2062    0.0000 C   0  0  0  0  0  0  0  2  0  0  0  0
  1  2  2  0        0
  1  3  1  0        0
  3  4  1  0        0
  4  5  1  0        0
  5  6  2  0        0
M  END
$$$$

CDXL12

  7  6  0  0  0  0  0  0  0  0999 V2000
   -1.4289    0.2062    0.0000 C   0  0  0  0  0  0  0  2  0  0  0  0
   -2.1434   -0.2062    0.0000 C   0  0  0  0  0  0  0  2  0  0  0  0
   -0.7145   -0.2062    0.0000 C   0  0  0  0  0  0  0  2  0  0  0  0
    0.0000    0.2062    0.0000 C   0  0  0  0  0  0  0  2  0  0  0  0
    0.7145   -0.2062    0.0000 C   0  0  0  0  0  0  0  2  0  0  0  0
    1.4289    0.2062    0.0000 C   0  0  0  0  0  0  0  2  0  0  0  0
    2.1434   -0.2062    0.0000 C   0  0  0  0  0  0  0  2  0  0  0  0
  1  2  2  0        0
  1  3  1  0        0
  3  4  1  0        0
  4  5  1  0        0
  5  6  1  0        0
  6  7  1  0        0
M  END
$$$$

CDXL12

  7  6  0  0  0  0  0  0  0  0999 V2000
   -2.1434   -0.2062    0.0000 O   0  0  0  0  0  0  0  2  0  0  0  0
   -1.4289    0.2062    0.0000 C   0  0  0  0  0  0  0  2  0  0  0  0
   -0.7145   -0.2062    0.0000 O   0  0  0  0  0  0  0  2  0  0  0  0
    0.0000    0.2062    0.0000 C   0  0  0  0  0  0  0  2  0  0  0  0
    0.7145   -0.2062    0.0000 C   0  0  0  0  0  0  0  2  0  0  0  0
    1.4289    0.2062    0.0000 C   0  0  0  0  0  0  0  2  0  0  0  0
    2.1434   -0.2062    0.0000 C   0  0  0  0  0  0  0  2  0  0  0  0
  1  2  2  0        0
  2  3  1  0        0
  3  4  1  0        0
  4  5  1  0        0
  5  6  1  0        0
  6  7  1  0        0
M  END
$$$$

CDXL12

 18 17  0  0  0  0  0  0  0  0999 V2000
   -5.3585    0.2062    0.0000 C   0  0  0  0  0  0  0  2  0  0  0  0
   -4.6441   -0.2062    0.0000 C   0  0  0  0  0  0  0  2  0  0  0  0
   -3.9296    0.2062    0.0000 C   0  0  0  0  0  0  0  2  0  0  0  0
   -3.2151   -0.2062    0.0000 C   0  0  0  0  0  0  0  2  0  0  0  0
   -2.5006    0.2062    0.0000 C   0  0  0  0  0  0  0  2  0  0  0  0
   -1.7862   -0.2062    0.0000 C   0  0  0  0  0  0  0  2  0  0  0  0
   -1.0717    0.2062    0.0000 C   0  0  0  0  0  0  0  2  0  0  0  0
   -0.3572   -0.2062    0.0000 C   0  0  0  0  0  0  0  2  0  0  0  0
    0.3572    0.2062    0.0000 C   0  0  0  0  0  0  0  2  0  0  0  0
    1.0717   -0.2062    0.0000 C   0  0  0  0  0  0  0  2  0  0  0  0
    1.7862    0.2062    0.0000 C   0  0  0  0  0  0  0  2  0  0  0  0
    2.5006   -0.2062    0.0000 C   0  0  0  0  0  0  0  2  0  0  0  0
    3.2151    0.2062    0.0000 C   0  0  0  0  0  0  0  2  0  0  0  0
    3.9296   -0.2062    0.0000 C   0  0  0  0  0  0  0  2  0  0  0  0
    4.6441    0.2062    0.0000 C   0  0  0  0  0  0  0  2  0  0  0  0
    5.3585   -0.2062    0.0000 C   0  0  0  0  0  0  0  2  0  0  0  0
    6.0730    0.2062    0.0000 C   0  0  0  0  0  0  0  2  0  0  0  0
   -6.0730   -0.2062    0.0000 C   0  0  0  0  0  0  0  2  0  0  0  0
  1  2  1  0        0
  2  3  1  0        0
  3  4  1  0        0
  4  5  1  0        0
  5  6  1  0        0
  6  7  1  0        0
  7  8  1  0        0
  8  9  1  0        0
  9 10  1  0        0
 10 11  1  0        0
 11 12  1  0        0
 12 13  1  0        0
 13 14  1  0        0
 14 15  1  0        0
 15 16  1  0        0
 16 17  1  0        0
  1 18  1  0        0
M  END
$$$$

CDXL12

  2  1  0  0  0  0  0  0  0  0999 V2000
    0.4125    0.0000    0.0000 F   0  0  0  0  0  0  0  2  0  0  0  0
   -0.4125    0.0000    0.0000 C   0  0  0  0  0  0  0  2  0  0  0  0
  1  2  1  0        0
M  END
$$$$

CDXL12

  3  2  0  0  0  0  0  0  0  0999 V2000
   -0.7145   -0.2062    0.0000 F   0  0  0  0  0  0  0  2  0  0  0  0
    0.0000    0.2062    0.0000 C   0  0  0  0  0  0  0  2  0  0  0  0
    0.7145   -0.2062    0.0000 Cl  0  0  0  0  0  0  0  2  0  0  0  0
  1  2  1  0        0
  2  3  1  0        0
M  END
$$$$

CDXL12

  6  5  0  0  0  0  0  0  0  0999 V2000
    0.3572   -0.2062    0.0000 C   0  0  0  0  0  0  0  2  0  0  0  0
   -0.3572   -0.6188    0.0000 C   0  0  0  0  0  0  0  2  0  0  0  0
   -1.0717   -0.2063    0.0000 C   0  0  0  0  0  0  0  2  0  0  0  0
    1.0717    0.2062    0.0000 Cl  0  0  0  0  0  0  0  2  0  0  0  0
    1.0717   -0.6188    0.0000 C   0  0  0  0  0  0  0  2  0  0  0  0
    0.3572    0.6188    0.0000 C   0  0  0  0  0  0  0  2  0  0  0  0
  1  2  1  0        0
  2  3  1  0        0
  1  4  1  0        0
  1  5  1  0        0
  1  6  1  0        0
M  END
$$$$

CDXL12

  7  6  0  0  0  0  0  0  0  0999 V2000
    1.0717    0.1510    0.0000 C   0  0  0  0  0  0  0  2  0  0  0  0
    0.3572   -0.2615    0.0000 C   0  0  0  0  0  0  0  2  0  0  0  0
   -0.0553   -0.9760    0.0000 Cl  0  0  0  0  0  0  0  2  0  0  0  0
    0.7697   -0.9760    0.0000 Cl  0  0  0  0  0  0  0  2  0  0  0  0
   -0.3572    0.1510    0.0000 N   0  0  0  0  0  0  0  2  0  0  0  0
   -1.0717   -0.2615    0.0000 O   0  0  0  0  0  0  0  2  0  0  0  0
   -0.3572    0.9760    0.0000 O   0  0  0  0  0  0  0  2  0  0  0  0
  1  2  1  0        0
  2  3  1  0        0
  2  4  1  0        0
  2  5  1  0        0
  5  6  2  0        0
  5  7  2  0        0
M  END
$$$$

CDXL12

  8  7  0  0  0  0  0  0  0  0999 V2000
    0.8250    0.7145    0.0000 C   0  0  0  0  0  0  0  2  0  0  0  0
    0.4125   -0.0000    0.0000 C   0  0  0  0  0  0  0  2  0  0  0  0
    1.2375   -0.0000    0.0000 O   0  0  0  0  0  0  0  2  0  0  0  0
    0.8250   -0.7145    0.0000 C   0  0  0  0  0  0  0  2  0  0  0  0
   -0.4125   -0.0000    0.0000 C   0  0  0  0  0  0  0  2  0  0  0  0
   -0.8250   -0.7145    0.0000 C   0  0  0  0  0  0  0  2  0  0  0  0
   -1.2375   -0.0000    0.0000 C   0  0  0  0  0  0  0  2  0  0  0  0
   -0.8250    0.7145    0.0000 C   0  0  0  0  0  0  0  2  0  0  0  0
  1  2  1  0        0
  2  3  1  0        0
  2  4  1  0        0
  2  5  1  0        0
  5  6  1  0        0
  5  7  1  0        0
  5  8  1  0        0
M  END
$$$$

CDXL12

  8  7  0  0  0  0  0  0  0  0999 V2000
    0.7145    0.9760    0.0000 C   0  0  0  0  0  0  0  2  0  0  0  0
    0.7145    0.1510    0.0000 C   0  0  0  0  0  0  0  2  0  0  0  0
    1.4289   -0.2615    0.0000 C   0  0  0  0  0  0  0  2  0  0  0  0
    0.0000   -0.2615    0.0000 C   0  0  0  0  0  0  0  2  0  0  0  0
    0.4125   -0.9760    0.0000 O   0  0  0  0  0  0  0  2  0  0  0  0
   -0.4125   -0.9760    0.0000 C   0  0  0  0  0  0  0  2  0  0  0  0
   -0.7145    0.1510    0.0000 C   0  0  0  0  0  0  0  2  0  0  0  0
   -1.4289   -0.2615    0.0000 C   0  0  0  0  0  0  0  2  0  0  0  0
  1  2  1  0        0
  2  3  1  0        0
  2  4  1  0        0
  4  5  1  0        0
  4  6  1  0        0
  4  7  1  0        0
  7  8  1  0        0
M  END
$$$$

CDXL12

  9  8  0  0  0  0  0  0  0  0999 V2000
    0.7145    0.9760    0.0000 O   0  0  0  0  0  0  0  2  0  0  0  0
    0.7145    0.1510    0.0000 C   0  0  0  0  0  0  0  2  0  0  0  0
    1.4289   -0.2615    0.0000 O   0  0  0  0  0  0  0  2  0  0  0  0
    0.0000   -0.2615    0.0000 C   0  0  0  0  0  0  0  2  0  0  0  0
   -0.7145    0.1510    0.0000 C   0  0  0  0  0  0  0  2  0  0  0  0
   -0.7145    0.9760    0.0000 O   0  0  0  0  0  0  0  2  0  0  0  0
   -1.4289   -0.2615    0.0000 O   0  0  0  0  0  0  0  2  0  0  0  0
    0.4125   -0.9760    0.0000 C   0  0  0  0  0  0  0  2  0  0  0  0
   -0.4125   -0.9760    0.0000 C   0  0  0  0  0  0  0  2  0  0  0  0
  1  2  2  0        0
  2  3  1  0        0
  2  4  1  0        0
  4  5  1  0        0
  5  6  2  0        0
  5  7  1  0        0
  4  8  1  0        0
  4  9  1  0        0
M  END
$$$$

CDXL12

  7  6  0  0  0  0  0  0  0  0999 V2000
   -1.4289   -0.0000    0.0000 C   0  0  0  0  0  0  0  2  0  0  0  0
   -0.7145   -0.4125    0.0000 C   0  0  0  0  0  0  0  2  0  0  0  0
    0.0000    0.0000    0.0000 S   0  0  0  0  0  0  0  2  0  0  0  0
    0.4125   -0.7145    0.0000 O   0  0  0  0  0  0  0  2  0  0  0  0
   -0.4125    0.7145    0.0000 O   0  0  0  0  0  0  0  2  0  0  0  0
    0.7145    0.4125    0.0000 C   0  0  0  0  0  0  0  2  0  0  0  0
    1.4289   -0.0000    0.0000 C   0  0  0  0  0  0  0  2  0  0  0  0
  1  2  1  0        0
  2  3  1  0        0
  3  4  2  0        0
  3  5  2  0        0
  3  6  1  0        0
  6  7  1  0        0
M  END
$$$$

CDXL12

  8  7  0  0  0  0  0  0  0  0999 V2000
    0.0000   -1.0313    0.0000 O   0  0  0  0  0  0  0  2  0  0  0  0
    0.0000   -0.2063    0.0000 C   0  0  0  0  0  0  0  2  0  0  0  0
    0.7145   -0.6188    0.0000 C   0  0  0  0  0  0  0  2  0  0  0  0
    1.4289   -0.2062    0.0000 C   0  0  0  0  0  0  0  2  0  0  0  0
   -0.7145   -0.6188    0.0000 C   0  0  0  0  0  0  0  2  0  0  0  0
   -1.4289   -0.2063    0.0000 C   0  0  0  0  0  0  0  2  0  0  0  0
    0.0000    0.6188    0.0000 C   0  0  0  0  0  0  0  2  0  0  0  0
    0.7145    1.0313    0.0000 C   0  0  0  0  0  0  0  2  0  0  0  0
  1  2  1  0        0
  2  3  1  0        0
  3  4  1  0        0
  2  5  1  0        0
  5  6  1  0        0
  2  7  1  0        0
  7  8  1  0        0
M  END
$$$$

CDXL12

  8  7  0  0  0  0  0  0  0  0999 V2000
    1.7862   -0.1510    0.0000 C   0  0  0  0  0  0  0  2  0  0  0  0
    1.0717   -0.5635    0.0000 C   0  0  0  0  0  0  0  2  0  0  0  0
    0.3572   -0.1510    0.0000 C   0  0  0  0  0  0  0  2  0  0  0  0
   -0.0553    0.5635    0.0000 O   0  0  0  0  0  0  0  2  0  0  0  0
    0.7697    0.5635    0.0000 C   0  0  0  0  0  0  0  2  0  0  0  0
   -0.3572   -0.5635    0.0000 C   0  0  0  0  0  0  0  2  0  0  0  0
   -1.0717   -0.1510    0.0000 C   0  0  0  0  0  0  0  2  0  0  0  0
   -1.7862   -0.5635    0.0000 C   0  0  0  0  0  0  0  2  0  0  0  0
  1  2  1  0        0
  2  3  1  0        0
  3  4  1  0        0
  3  5  1  0        0
  3  6  1  0        0
  6  7  1  0        0
  7  8  1  0        0
M  END
$$$$

CDXL12

  5  4  0  0  0  0  0  0  0  0999 V2000
   -1.0717   -0.2062    0.0000 C   0  0  0  0  0  0  0  2  0  0  0  0
   -0.3572   -0.6187    0.0000 O   0  0  0  0  0  0  0  2  0  0  0  0
    0.3572   -0.2062    0.0000 C   0  0  0  0  0  0  0  2  0  0  0  0
    0.3572    0.6187    0.0000 C   0  0  0  0  0  0  0  2  0  0  0  0
    1.0717   -0.6187    0.0000 C   0  0  0  0  0  0  0  2  0  0  0  0
  1  2  1  0        0
  2  3  1  0        0
  3  4  1  0        0
  3  5  1  0        0
M  END
$$$$

CDXL12

  5  4  0  0  0  0  0  0  0  0999 V2000
   -0.3572    0.6187    0.0000 O   0  0  0  0  0  0  0  2  0  0  0  0
   -0.3572   -0.2062    0.0000 C   0  0  0  0  0  0  0  2  0  0  0  0
    0.3572   -0.6187    0.0000 O   0  0  0  0  0  0  0  2  0  0  0  0
    1.0717   -0.2062    0.0000 C   0  0  0  0  0  0  0  2  0  0  0  0
   -1.0717   -0.6187    0.0000 N   0  0  0  0  0  0  0  2  0  0  0  0
  1  2  2  0        0
  2  3  1  0        0
  3  4  1  0        0
  2  5  1  0        0
M  END
$$$$

CDXL12

  6  5  0  0  0  0  0  0  0  0999 V2000
   -0.3572   -1.0313    0.0000 O   0  0  0  0  0  0  0  2  0  0  0  0
   -0.3572   -0.2062    0.0000 C   0  0  0  0  0  0  0  2  0  0  0  0
    0.3572    0.2062    0.0000 C   0  0  0  0  0  0  0  2  0  0  0  0
    0.3572    1.0313    0.0000 C   0  0  0  0  0  0  0  2  0  0  0  0
    1.0717   -0.2062    0.0000 C   0  0  0  0  0  0  0  2  0  0  0  0
   -1.0717    0.2062    0.0000 C   0  0  0  0  0  0  0  2  0  0  0  0
  1  2  1  0        0
  2  3  1  0        0
  3  4  1  0        0
  3  5  1  0        0
  2  6  1  0        0
M  END
$$$$

CDXL12

  6  5  0  0  0  0  0  0  0  0999 V2000
   -0.3572   -0.2062    0.0000 C   0  0  0  0  0  0  0  2  0  0  0  0
    0.3572    0.2062    0.0000 C   0  0  0  0  0  0  0  2  0  0  0  0
    0.3572    1.0313    0.0000 Cl  0  0  0  0  0  0  0  2  0  0  0  0
    1.0717   -0.2062    0.0000 Cl  0  0  0  0  0  0  0  2  0  0  0  0
   -0.3572   -1.0313    0.0000 Cl  0  0  0  0  0  0  0  2  0  0  0  0
   -1.0717    0.2062    0.0000 C   0  0  0  0  0  0  0  2  0  0  0  0
  1  2  1  0        0
  2  3  1  0        0
  2  4  1  0        0
  1  5  1  0        0
  1  6  1  0        0
M  END
$$$$

CDXL12

  6  5  0  0  0  0  0  0  0  0999 V2000
    0.3572    1.0313    0.0000 O   0  0  0  0  0  0  0  2  0  0  0  0
    0.3572    0.2062    0.0000 C   0  0  0  0  0  0  0  2  0  0  0  0
    1.0717   -0.2062    0.0000 O   0  0  0  0  0  0  0  2  0  0  0  0
   -0.3572   -0.2062    0.0000 C   0  0  0  0  0  0  0  2  0  0  0  0
   -0.3572   -1.0313    0.0000 Cl  0  0  0  0  0  0  0  2  0  0  0  0
   -1.0717    0.2062    0.0000 C   0  0  0  0  0  0  0  2  0  0  0  0
  1  2  2  0        0
  2  3  1  0        0
  2  4  1  0        0
  4  5  1  0        0
  4  6  1  0        0
M  END
$$$$

CDXL12

  6  5  0  0  0  0  0  0  0  0999 V2000
    1.0717   -0.2062    0.0000 O   0  0  0  0  0  0  0  2  0  0  0  0
    0.3572    0.2062    0.0000 N   0  0  0  0  0  0  0  2  0  0  0  0
    0.3572    1.0313    0.0000 O   0  0  0  0  0  0  0  2  0  0  0  0
   -0.3572   -0.2062    0.0000 C   0  0  0  0  0  0  0  2  0  0  0  0
   -0.3572   -1.0313    0.0000 Cl  0  0  0  0  0  0  0  2  0  0  0  0
   -1.0717    0.2062    0.0000 C   0  0  0  0  0  0  0  2  0  0  0  0
  1  2  2  0        0
  2  3  2  0        0
  2  4  1  0        0
  4  5  1  0        0
  4  6  1  0        0
M  END
$$$$

CDXL12

  8  7  0  0  0  0  0  0  0  0999 V2000
    0.0000   -1.0313    0.0000 O   0  0  0  0  0  0  0  2  0  0  0  0
    0.0000   -0.2062    0.0000 C   0  0  0  0  0  0  0  2  0  0  0  0
    0.7145    0.2062    0.0000 C   0  0  0  0  0  0  0  2  0  0  0  0
    0.7145    1.0313    0.0000 C   0  0  0  0  0  0  0  2  0  0  0  0
    1.4289   -0.2062    0.0000 C   0  0  0  0  0  0  0  2  0  0  0  0
   -0.7145    0.2062    0.0000 C   0  0  0  0  0  0  0  2  0  0  0  0
   -1.4289   -0.2062    0.0000 C   0  0  0  0  0  0  0  2  0  0  0  0
   -0.7145    1.0313    0.0000 C   0  0  0  0  0  0  0  2  0  0  0  0
  1  2  1  0        0
  2  3  1  0        0
  3  4  1  0        0
  3  5  1  0        0
  2  6  1  0        0
  6  7  1  0        0
  6  8  1  0        0
M  END
$$$$

CDXL12

  9  8  0  0  0  0  0  0  0  0999 V2000
    0.7145   -1.2375    0.0000 C   0  0  0  0  0  0  0  2  0  0  0  0
    0.0000   -0.8250    0.0000 C   0  0  0  0  0  0  0  2  0  0  0  0
    0.0000   -0.0000    0.0000 C   0  0  0  0  0  0  0  2  0  0  0  0
   -0.7145    0.4125    0.0000 C   0  0  0  0  0  0  0  2  0  0  0  0
   -1.4289   -0.0000    0.0000 O   0  0  0  0  0  0  0  2  0  0  0  0
   -0.7145    1.2375    0.0000 O   0  0  0  0  0  0  0  2  0  0  0  0
    0.7145    0.4125    0.0000 C   0  0  0  0  0  0  0  2  0  0  0  0
    1.4289   -0.0000    0.0000 O   0  0  0  0  0  0  0  2  0  0  0  0
    0.7145    1.2375    0.0000 O   0  0  0  0  0  0  0  2  0  0  0  0
  1  2  1  0        0
  2  3  1  0        0
  3  4  1  0        0
  4  5  1  0        0
  4  6  2  0        0
  3  7  1  0        0
  7  8  1  0        0
  7  9  2  0        0
M  END
$$$$

CDXL12

  9  8  0  0  0  0  0  0  0  0999 V2000
    0.7145    1.2375    0.0000 C   0  0  0  0  0  0  0  2  0  0  0  0
    0.7145    0.4125    0.0000 C   0  0  0  0  0  0  0  2  0  0  0  0
    1.4289   -0.0000    0.0000 C   0  0  0  0  0  0  0  2  0  0  0  0
    0.0000   -0.0000    0.0000 N   0  0  0  0  0  0  0  2  0  0  0  0
   -0.7145    0.4125    0.0000 N   0  0  0  0  0  0  0  2  0  0  0  0
   -1.4289   -0.0000    0.0000 O   0  0  0  0  0  0  0  2  0  0  0  0
    0.0000   -0.8250    0.0000 C   0  0  0  0  0  0  0  2  0  0  0  0
    0.7145   -1.2375    0.0000 C   0  0  0  0  0  0  0  2  0  0  0  0
   -0.7145   -1.2375    0.0000 C   0  0  0  0  0  0  0  2  0  0  0  0
  1  2  1  0        0
  2  3  1  0        0
  2  4  1  0        0
  4  5  1  0        0
  5  6  2  0        0
  4  7  1  0        0
  7  8  1  0        0
  7  9  1  0        0
M  END
$$$$

CDXL12

 11 11  0  0  0  0  0  0  0  0999 V2000
   -0.7145    1.2375    0.0000 O   0  0  0  0  0  0  0  2  0  0  0  0
   -0.7145    0.4125    0.0000 N   0  0  0  0  0  0  0  2  0  0  0  0
   -1.4289    0.0000    0.0000 O   0  0  0  0  0  0  0  2  0  0  0  0
    0.0000    0.0000    0.0000 C   0  0  0  0  0  0  0  2  0  0  0  0
    0.7145    0.4125    0.0000 C   0  0  0  0  0  0  0  2  0  0  0  0
    0.7145    1.2375    0.0000 O   0  0  0  0  0  0  0  2  0  0  0  0
    1.4289   -0.0000    0.0000 C   0  0  0  0  0  0  0  2  0  0  0  0
    1.4289   -0.8250    0.0000 C   0  0  0  0  0  0  0  2  0  0  0  0
    0.7145   -1.2375    0.0000 C   0  0  0  0  0  0  0  2  0  0  0  0
    0.0000   -0.8250    0.0000 C   0  0  0  0  0  0  0  2  0  0  0  0
   -0.7145   -1.2375    0.0000 O   0  0  0  0  0  0  0  2  0  0  0  0
  1  2  2  0        0
  2  3  2  0        0
  2  4  1  0        0
  4  5  4  0        0
  5  6  1  0        0
  5  7  4  0        0
  7  8  4  0        0
  8  9  4  0        0
  9 10  4  0        0
  4 10  4  0        0
 10 11  1  0        0
M  END
$$$$

CDXL12

 16 17  0  0  0  0  0  0  0  0999 V2000
    0.2257    1.4964    0.0000 O   0  0  0  0  0  0  0  2  0  0  0  0
    0.8577    0.9661    0.0000 N   0  0  0  0  0  0  0  2  0  0  0  0
    1.6330    1.2482    0.0000 O   0  0  0  0  0  0  0  2  0  0  0  0
    0.7145    0.1536    0.0000 C   0  0  0  0  0  0  0  2  0  0  0  0
    0.0000   -0.2589    0.0000 C   0  0  0  0  0  0  0  2  0  0  0  0
    0.0000   -1.0839    0.0000 C   0  0  0  0  0  0  0  2  0  0  0  0
    0.7145   -1.4964    0.0000 C   0  0  0  0  0  0  0  2  0  0  0  0
    1.4289   -1.0839    0.0000 C   0  0  0  0  0  0  0  2  0  0  0  0
    1.4289   -0.2589    0.0000 C   0  0  0  0  0  0  0  2  0  0  0  0
   -0.7145   -1.4964    0.0000 C   0  0  0  0  0  0  0  2  0  0  0  0
   -1.4289   -1.0839    0.0000 C   0  0  0  0  0  0  0  2  0  0  0  0
   -1.4289   -0.2589    0.0000 C   0  0  0  0  0  0  0  2  0  0  0  0
   -0.7145    0.1536    0.0000 C   0  0  0  0  0  0  0  2  0  0  0  0
   -0.8577    0.9661    0.0000 N   0  0  0  0  0  0  0  2  0  0  0  0
   -0.2257    1.4964    0.0000 O   0  0  0  0  0  0  0  2  0  0  0  0
   -1.6330    1.2482    0.0000 O   0  0  0  0  0  0  0  2  0  0  0  0
  1  2  2  0        0
  2  3  2  0        0
  2  4  1  0        0
  4  5  4  0        0
  5  6  4  0        0
  6  7  4  0        0
  7  8  4  0        0
  8  9  4  0        0
  4  9  4  0        0
  6 10  4  0        0
 10 11  4  0        0
 11 12  4  0        0
 12 13  4  0        0
  5 13  4  0        0
 13 14  1  0        0
 14 15  2  0        0
 14 16  2  0        0
M  END
$$$$

CDXL12

 17 19  0  0  0  0  0  0  0  0999 V2000
   -2.1434    0.2062    0.0000 C   0  0  0  0  0  0  0  2  0  0  0  0
   -1.4289   -0.2062    0.0000 C   0  0  0  0  0  0  0  2  0  0  0  0
   -0.7145    0.2062    0.0000 C   0  0  0  0  0  0  0  2  0  0  0  0
    0.0000   -0.2062    0.0000 C   0  0  0  0  0  0  0  2  0  0  0  0
    0.0000   -1.0313    0.0000 N   0  0  0  0  0  0  0  2  0  0  0  0
   -0.7145   -1.4438    0.0000 O   0  0  0  0  0  0  0  2  0  0  0  0
    0.7145   -1.4438    0.0000 O   0  0  0  0  0  0  0  2  0  0  0  0
    0.7145    0.2063    0.0000 C   0  0  0  0  0  0  0  2  0  0  0  0
    1.4289   -0.2062    0.0000 C   0  0  0  0  0  0  0  2  0  0  0  0
    2.1434    0.2063    0.0000 C   0  0  0  0  0  0  0  2  0  0  0  0
    2.1434    1.0313    0.0000 C   0  0  0  0  0  0  0  2  0  0  0  0
    1.4289    1.4438    0.0000 C   0  0  0  0  0  0  0  2  0  0  0  0
    0.7145    1.0313    0.0000 C   0  0  0  0  0  0  0  2  0  0  0  0
    0.0000    1.4438    0.0000 C   0  0  0  0  0  0  0  2  0  0  0  0
   -0.7145    1.0312    0.0000 C   0  0  0  0  0  0  0  2  0  0  0  0
   -1.4289    1.4437    0.0000 C   0  0  0  0  0  0  0  2  0  0  0  0
   -2.1434    1.0312    0.0000 C   0  0  0  0  0  0  0  2  0  0  0  0
  1  2  4  0        0
  2  3  4  0        0
  3  4  4  0        0
  4  5  1  0        0
  5  6  2  0        0
  5  7  2  0        0
  4  8  4  0        0
  8  9  4  0        0
  9 10  4  0        0
 10 11  4  0        0
 11 12  4  0        0
 12 13  4  0        0
  8 13  4  0        0
 13 14  4  0        0
 14 15  4  0        0
  3 15  4  0        0
 15 16  4  0        0
 16 17  4  0        0
  1 17  4  0        0
M  END
$$$$

CDXL12

 15 15  0  0  0  0  0  0  0  0999 V2000
    1.4289    1.0312    0.0000 O   0  0  0  0  0  0  0  2  0  0  0  0
    1.4289    0.2062    0.0000 C   0  0  0  0  0  0  0  2  0  0  0  0
    2.1434   -0.2063    0.0000 O   0  0  0  0  0  0  0  2  0  0  0  0
    0.7145   -0.2063    0.0000 C   0  0  0  0  0  0  0  2  0  0  0  0
    0.0000    0.2062    0.0000 C   0  0  0  0  0  0  0  2  0  0  0  0
   -0.7145   -0.2063    0.0000 C   0  0  0  0  0  0  0  2  0  0  0  0
   -1.4289    0.2062    0.0000 N   0  0  0  0  0  0  0  2  0  0  0  0
   -1.4289    1.0312    0.0000 O   0  0  0  0  0  0  0  2  0  0  0  0
   -2.1434   -0.2063    0.0000 O   0  0  0  0  0  0  0  2  0  0  0  0
   -0.7145   -1.0313    0.0000 C   0  0  0  0  0  0  0  2  0  0  0  0
    0.0000   -1.4437    0.0000 C   0  0  0  0  0  0  0  2  0  0  0  0
    0.7145   -1.0312    0.0000 C   0  0  0  0  0  0  0  2  0  0  0  0
    0.0000    1.0312    0.0000 C   0  0  0  0  0  0  0  2  0  0  0  0
    0.7145    1.4437    0.0000 O   0  0  0  0  0  0  0  2  0  0  0  0
   -0.7145    1.4437    0.0000 O   0  0  0  0  0  0  0  2  0  0  0  0
  1  2  2  0        0
  2  3  1  0        0
  2  4  1  0        0
  4  5  4  0        0
  5  6  4  0        0
  6  7  1  0        0
  7  8  2  0        0
  7  9  2  0        0
  6 10  4  0        0
 10 11  4  0        0
 11 12  4  0        0
  4 12  4  0        0
  5 13  1  0        0
 13 14  2  0        0
 13 15  1  0        0
M  END
$$$$

CDXL12

 22 24  0  0  0  0  0  0  0  0999 V2000
    2.8579    2.4750    0.0000 O   0  0  0  0  0  0  0  2  0  0  0  0
    2.1434    2.0625    0.0000 C   0  0  0  0  0  0  0  2  0  0  0  0
    2.1434    1.2375    0.0000 C   0  0  0  0  0  0  0  2  0  0  0  0
    1.4289    0.8250    0.0000 C   0  0  0  0  0  0  0  2  0  0  0  0
    0.7145    1.2375    0.0000 C   0  0  0  0  0  0  0  2  0  0  0  0
    0.7145    2.0625    0.0000 C   0  0  0  0  0  0  0  2  0  0  0  0
    1.4289    2.4750    0.0000 C   0  0  0  0  0  0  0  2  0  0  0  0
    0.0000    0.8250    0.0000 C   0  0  0  0  0  0  0  2  0  0  0  0
    0.0000    0.0000    0.0000 C   0  0  0  0  0  0  0  2  0  0  0  0
    0.7145   -0.4125    0.0000 C   0  0  0  0  0  0  0  2  0  0  0  0
    0.7145   -1.2375    0.0000 C   0  0  0  0  0  0  0  2  0  0  0  0
    0.0000   -1.6500    0.0000 C   0  0  0  0  0  0  0  2  0  0  0  0
    0.0000   -2.4750    0.0000 O   0  0  0  0  0  0  0  2  0  0  0  0
   -0.7145   -1.2375    0.0000 C   0  0  0  0  0  0  0  2  0  0  0  0
   -0.7145   -0.4125    0.0000 C   0  0  0  0  0  0  0  2  0  0  0  0
   -0.7145    1.2375    0.0000 C   0  0  0  0  0  0  0  2  0  0  0  0
   -1.4289    0.8250    0.0000 C   0  0  0  0  0  0  0  2  0  0  0  0
   -2.1434    1.2375    0.0000 C   0  0  0  0  0  0  0  2  0  0  0  0
   -2.1434    2.0625    0.0000 C   0  0  0  0  0  0  0  2  0  0  0  0
   -2.8579    2.4750    0.0000 O   0  0  0  0  0  0  0  2  0  0  0  0
   -1.4289    2.4750    0.0000 C   0  0  0  0  0  0  0  2  0  0  0  0
   -0.7145    2.0625    0.0000 C   0  0  0  0  0  0  0  2  0  0  0  0
  1  2  1  0        0
  2  3  4  0        0
  3  4  4  0        0
  4  5  4  0        0
  5  6  4  0        0
  6  7  4  0        0
  2  7  4  0        0
  5  8  1  0        0
  8  9  2  0        0
  9 10  1  0        0
 10 11  2  0        0
 11 12  1  0        0
 12 13  2  0        0
 12 14  1  0        0
 14 15  2  0        0
  9 15  1  0        0
  8 16  1  0        0
 16 17  4  0        0
 17 18  4  0        0
 18 19  4  0        0
 19 20  1  0        0
 19 21  4  0        0
 21 22  4  0        0
 16 22  4  0        0
M  END
$$$$

CDXL12

 17 19  0  0  0  0  0  0  0  0999 V2000
   -0.3572    1.6500    0.0000 O   0  0  0  0  0  0  0  2  0  0  0  0
   -0.3572    0.8250    0.0000 C   0  0  0  0  0  0  0  2  0  0  0  0
    0.3572    0.4125    0.0000 C   0  0  0  0  0  0  0  2  0  0  0  0
    0.3572   -0.4125    0.0000 C   0  0  0  0  0  0  0  2  0  0  0  0
   -0.3572   -0.8250    0.0000 C   0  0  0  0  0  0  0  2  0  0  0  0
   -0.3572   -1.6500    0.0000 O   0  0  0  0  0  0  0  2  0  0  0  0
   -1.0717   -0.4125    0.0000 C   0  0  0  0  0  0  0  2  0  0  0  0
   -1.7862   -0.8250    0.0000 C   0  0  0  0  0  0  0  2  0  0  0  0
   -2.5006   -0.4125    0.0000 C   0  0  0  0  0  0  0  2  0  0  0  0
   -2.5006    0.4125    0.0000 C   0  0  0  0  0  0  0  2  0  0  0  0
   -1.7862    0.8250    0.0000 C   0  0  0  0  0  0  0  2  0  0  0  0
   -1.0717    0.4125    0.0000 C   0  0  0  0  0  0  0  2  0  0  0  0
    1.0717   -0.8250    0.0000 C   0  0  0  0  0  0  0  2  0  0  0  0
    1.7862   -0.4125    0.0000 C   0  0  0  0  0  0  0  2  0  0  0  0
    1.7862    0.4125    0.0000 C   0  0  0  0  0  0  0  2  0  0  0  0
    2.5006    0.8250    0.0000 O   0  0  0  0  0  0  0  2  0  0  0  0
    1.0717    0.8250    0.0000 C   0  0  0  0  0  0  0  2  0  0  0  0
  1  2  2  0        0
  2  3  1  0        0
  3  4  4  0        0
  4  5  1  0        0
  5  6  2  0        0
  5  7  1  0        0
  7  8  4  0        0
  8  9  4  0        0
  9 10  4  0        0
 10 11  4  0        0
 11 12  4  0        0
  2 12  1  0        0
  7 12  4  0        0
  4 13  4  0        0
 13 14  4  0        0
 14 15  4  0        0
 15 16  1  0        0
 15 17  4  0        0
  3 17  4  0        0
M  END
$$$$

CDXL12

 18 18  0  0  0  0  0  0  0  0999 V2000
    0.0000   -1.6500    0.0000 O   0  0  0  0  0  0  0  2  0  0  0  0
    0.0000   -0.8250    0.0000 C   0  0  0  0  0  0  0  2  0  0  0  0
    0.7145   -0.4125    0.0000 O   0  0  0  0  0  0  0  2  0  0  0  0
    1.4289   -0.8250    0.0000 C   0  0  0  0  0  0  0  2  0  0  0  0
    1.4289   -1.6500    0.0000 C   0  0  0  0  0  0  0  2  0  0  0  0
    2.1434   -0.4125    0.0000 C   0  0  0  0  0  0  0  2  0  0  0  0
   -0.7145   -0.4125    0.0000 C   0  0  0  0  0  0  0  2  0  0  0  0
   -0.7145    0.4125    0.0000 C   0  0  0  0  0  0  0  2  0  0  0  0
   -1.4289    0.8250    0.0000 C   0  0  0  0  0  0  0  2  0  0  0  0
   -2.1434    0.4125    0.0000 C   0  0  0  0  0  0  0  2  0  0  0  0
   -2.1434   -0.4125    0.0000 C   0  0  0  0  0  0  0  2  0  0  0  0
   -1.4289   -0.8250    0.0000 C   0  0  0  0  0  0  0  2  0  0  0  0
    0.0000    0.8250    0.0000 C   0  0  0  0  0  0  0  2  0  0  0  0
    0.0000    1.6500    0.0000 O   0  0  0  0  0  0  0  2  0  0  0  0
    0.7145    0.4125    0.0000 O   0  0  0  0  0  0  0  2  0  0  0  0
    1.4289    0.8250    0.0000 C   0  0  0  0  0  0  0  2  0  0  0  0
    1.4289    1.6500    0.0000 C   0  0  0  0  0  0  0  2  0  0  0  0
    2.1434    0.4125    0.0000 C   0  0  0  0  0  0  0  2  0  0  0  0
  1  2  2  0        0
  2  3  1  0        0
  3  4  1  0        0
  4  5  1  0        0
  4  6  1  0        0
  2  7  1  0        0
  7  8  4  0        0
  8  9  4  0        0
  9 10  4  0        0
 10 11  4  0        0
 11 12  4  0        0
  7 12  4  0        0
  8 13  1  0        0
 13 14  2  0        0
 13 15  1  0        0
 15 16  1  0        0
 16 17  1  0        0
 16 18  1  0        0
M  END
$$$$

CDXL12

 22 22  0  0  0  0  0  0  0  0999 V2000
   -2.5006    0.8250    0.0000 C   0  0  0  0  0  0  0  2  0  0  0  0
   -3.2151    0.4125    0.0000 C   0  0  0  0  0  0  0  2  0  0  0  0
   -3.2151   -0.4125    0.0000 C   0  0  0  0  0  0  0  2  0  0  0  0
   -2.5006   -0.8250    0.0000 C   0  0  0  0  0  0  0  2  0  0  0  0
   -1.7862   -0.4125    0.0000 C   0  0  0  0  0  0  0  2  0  0  0  0
   -1.0717   -0.8250    0.0000 C   0  0  0  0  0  0  0  2  0  0  0  0
   -1.0717   -1.6500    0.0000 O   0  0  0  0  0  0  0  2  0  0  0  0
   -0.3572   -0.4125    0.0000 O   0  0  0  0  0  0  0  2  0  0  0  0
    0.3572   -0.8250    0.0000 C   0  0  0  0  0  0  0  2  0  0  0  0
    1.0717   -0.4125    0.0000 C   0  0  0  0  0  0  0  2  0  0  0  0
    1.7862   -0.8250    0.0000 O   0  0  0  0  0  0  0  2  0  0  0  0
    2.5006   -0.4125    0.0000 C   0  0  0  0  0  0  0  2  0  0  0  0
    3.2151   -0.8250    0.0000 C   0  0  0  0  0  0  0  2  0  0  0  0
   -1.7862    0.4125    0.0000 C   0  0  0  0  0  0  0  2  0  0  0  0
   -1.0717    0.8250    0.0000 C   0  0  0  0  0  0  0  2  0  0  0  0
   -1.0717    1.6500    0.0000 O   0  0  0  0  0  0  0  2  0  0  0  0
   -0.3572    0.4125    0.0000 O   0  0  0  0  0  0  0  2  0  0  0  0
    0.3572    0.8250    0.0000 C   0  0  0  0  0  0  0  2  0  0  0  0
    1.0717    0.4125    0.0000 C   0  0  0  0  0  0  0  2  0  0  0  0
    1.7862    0.8250    0.0000 O   0  0  0  0  0  0  0  2  0  0  0  0
    2.5006    0.4125    0.0000 C   0  0  0  0  0  0  0  2  0  0  0  0
    3.2151    0.8250    0.0000 C   0  0  0  0  0  0  0  2  0  0  0  0
  1  2  4  0        0
  2  3  4  0        0
  3  4  4  0        0
  4  5  4  0        0
  5  6  1  0        0
  6  7  2  0        0
  6  8  1  0        0
  8  9  1  0        0
  9 10  1  0        0
 10 11  1  0        0
 11 12  1  0        0
 12 13  1  0        0
  5 14  4  0        0
  1 14  4  0        0
 14 15  1  0        0
 15 16  2  0        0
 15 17  1  0        0
 17 18  1  0        0
 18 19  1  0        0
 19 20  1  0        0
 20 21  1  0        0
 21 22  1  0        0
M  END
$$$$

CDXL12

 16 17  0  0  0  0  0  0  0  0999 V2000
   -1.4289    0.4125    0.0000 C   0  0  0  0  0  0  0  2  0  0  0  0
   -0.7145    0.8250    0.0000 C   0  0  0  0  0  0  0  2  0  0  0  0
    0.0000    0.4125    0.0000 C   0  0  0  0  0  0  0  2  0  0  0  0
    0.7145    0.8250    0.0000 C   0  0  0  0  0  0  0  2  0  0  0  0
    0.7145    1.6500    0.0000 N   0  0  0  0  0  0  0  2  0  0  0  0
    0.0000    2.0625    0.0000 O   0  0  0  0  0  0  0  2  0  0  0  0
    1.4289    2.0625    0.0000 O   0  0  0  0  0  0  0  2  0  0  0  0
    1.4289    0.4125    0.0000 C   0  0  0  0  0  0  0  2  0  0  0  0
    1.4289   -0.4125    0.0000 C   0  0  0  0  0  0  0  2  0  0  0  0
    0.7145   -0.8250    0.0000 C   0  0  0  0  0  0  0  2  0  0  0  0
    0.0000   -0.4125    0.0000 C   0  0  0  0  0  0  0  2  0  0  0  0
   -0.7145   -0.8250    0.0000 C   0  0  0  0  0  0  0  2  0  0  0  0
   -0.7145   -1.6500    0.0000 N   0  0  0  0  0  0  0  2  0  0  0  0
    0.0000   -2.0625    0.0000 O   0  0  0  0  0  0  0  2  0  0  0  0
   -1.4289   -2.0625    0.0000 O   0  0  0  0  0  0  0  2  0  0  0  0
   -1.4289   -0.4125    0.0000 C   0  0  0  0  0  0  0  2  0  0  0  0
  1  2  4  0        0
  2  3  4  0        0
  3  4  4  0        0
  4  5  1  0        0
  5  6  2  0        0
  5  7  2  0        0
  4  8  4  0        0
  8  9  4  0        0
  9 10  4  0        0
 10 11  4  0        0
  3 11  4  0        0
 11 12  4  0        0
 12 13  1  0        0
 13 14  2  0        0
 13 15  2  0        0
 12 16  4  0        0
  1 16  4  0        0
M  END
$$$$

CDXL12

 13 13  0  0  0  0  0  0  0  0999 V2000
   -1.4289    1.2375    0.0000 O   0  0  0  0  0  0  0  2  0  0  0  0
   -1.4289    0.4125    0.0000 N   0  0  0  0  0  0  0  2  0  0  0  0
   -2.1434    0.0000    0.0000 O   0  0  0  0  0  0  0  2  0  0  0  0
   -0.7145    0.0000    0.0000 C   0  0  0  0  0  0  0  2  0  0  0  0
    0.0000    0.4125    0.0000 C   0  0  0  0  0  0  0  2  0  0  0  0
    0.7145   -0.0000    0.0000 C   0  0  0  0  0  0  0  2  0  0  0  0
    1.4289    0.4125    0.0000 N   0  0  0  0  0  0  0  2  0  0  0  0
    1.4289    1.2375    0.0000 O   0  0  0  0  0  0  0  2  0  0  0  0
    2.1434   -0.0000    0.0000 O   0  0  0  0  0  0  0  2  0  0  0  0
    0.7145   -0.8250    0.0000 C   0  0  0  0  0  0  0  2  0  0  0  0
    0.0000   -1.2375    0.0000 C   0  0  0  0  0  0  0  2  0  0  0  0
   -0.7145   -0.8250    0.0000 C   0  0  0  0  0  0  0  2  0  0  0  0
    0.0000    1.2375    0.0000 C   0  0  0  0  0  0  0  2  0  0  0  0
  1  2  2  0        0
  2  3  2  0        0
  2  4  1  0        0
  4  5  4  0        0
  5  6  4  0        0
  6  7  1  0        0
  7  8  2  0        0
  7  9  2  0        0
  6 10  4  0        0
 10 11  4  0        0
 11 12  4  0        0
  4 12  4  0        0
  5 13  1  0        0
M  END
$$$$

CDXL12

 18 19  0  0  0  0  0  0  0  0999 V2000
    1.4289    1.0313    0.0000 O   0  0  0  0  0  0  0  2  0  0  0  0
    0.7145    1.4438    0.0000 C   0  0  0  0  0  0  0  2  0  0  0  0
    0.7145    2.2687    0.0000 O   0  0  0  0  0  0  0  2  0  0  0  0
    1.4289    2.6812    0.0000 C   0  0  0  0  0  0  0  2  0  0  0  0
    0.0000    1.0313    0.0000 C   0  0  0  0  0  0  0  2  0  0  0  0
    0.0000    0.2062    0.0000 C   0  0  0  0  0  0  0  2  0  0  0  0
   -0.7145   -0.2062    0.0000 C   0  0  0  0  0  0  0  2  0  0  0  0
   -1.4289    0.2062    0.0000 C   0  0  0  0  0  0  0  2  0  0  0  0
   -1.4289    1.0313    0.0000 C   0  0  0  0  0  0  0  2  0  0  0  0
   -0.7145    1.4438    0.0000 C   0  0  0  0  0  0  0  2  0  0  0  0
    0.7145   -0.2062    0.0000 C   0  0  0  0  0  0  0  2  0  0  0  0
    1.4289    0.2062    0.0000 O   0  0  0  0  0  0  0  2  0  0  0  0
    0.7145   -1.0313    0.0000 C   0  0  0  0  0  0  0  2  0  0  0  0
    0.0000   -1.4437    0.0000 C   0  0  0  0  0  0  0  2  0  0  0  0
    0.0000   -2.2687    0.0000 C   0  0  0  0  0  0  0  2  0  0  0  0
    0.7145   -2.6812    0.0000 C   0  0  0  0  0  0  0  2  0  0  0  0
    1.4289   -2.2687    0.0000 C   0  0  0  0  0  0  0  2  0  0  0  0
    1.4289   -1.4438    0.0000 C   0  0  0  0  0  0  0  2  0  0  0  0
  1  2  2  0        0
  2  3  1  0        0
  3  4  1  0        0
  2  5  1  0        0
  5  6  4  0        0
  6  7  4  0        0
  7  8  4  0        0
  8  9  4  0        0
  9 10  4  0        0
  5 10  4  0        0
  6 11  1  0        0
 11 12  2  0        0
 11 13  1  0        0
 13 14  4  0        0
 14 15  4  0        0
 15 16  4  0        0
 16 17  4  0        0
 17 18  4  0        0
 13 18  4  0        0
M  END
$$$$

CDXL12

 17 17  0  0  0  0  0  0  0  0999 V2000
   -1.4289    1.8562    0.0000 O   0  0  0  0  0  0  0  2  0  0  0  0
   -1.4289    1.0312    0.0000 N   0  0  0  0  0  0  0  2  0  0  0  0
   -2.1434    0.6187    0.0000 O   0  0  0  0  0  0  0  2  0  0  0  0
   -0.7145    0.6187    0.0000 C   0  0  0  0  0  0  0  2  0  0  0  0
   -0.7145   -0.2063    0.0000 C   0  0  0  0  0  0  0  2  0  0  0  0
    0.0000   -0.6188    0.0000 C   0  0  0  0  0  0  0  2  0  0  0  0
    0.0000   -1.4437    0.0000 N   0  0  0  0  0  0  0  2  0  0  0  0
   -0.7145   -1.8562    0.0000 O   0  0  0  0  0  0  0  2  0  0  0  0
    0.7145   -1.8562    0.0000 O   0  0  0  0  0  0  0  2  0  0  0  0
    0.7145   -0.2063    0.0000 C   0  0  0  0  0  0  0  2  0  0  0  0
    1.4289   -0.6188    0.0000 O   0  0  0  0  0  0  0  2  0  0  0  0
    2.1434   -0.2063    0.0000 C   0  0  0  0  0  0  0  2  0  0  0  0
    0.7145    0.6187    0.0000 C   0  0  0  0  0  0  0  2  0  0  0  0
    1.4289    1.0312    0.0000 N   0  0  0  0  0  0  0  2  0  0  0  0
    1.4289    1.8562    0.0000 O   0  0  0  0  0  0  0  2  0  0  0  0
    2.1434    0.6187    0.0000 O   0  0  0  0  0  0  0  2  0  0  0  0
    0.0000    1.0312    0.0000 C   0  0  0  0  0  0  0  2  0  0  0  0
  1  2  2  0        0
  2  3  2  0        0
  2  4  1  0        0
  4  5  4  0        0
  5  6  4  0        0
  6  7  1  0        0
  7  8  2  0        0
  7  9  2  0        0
  6 10  4  0        0
 10 11  1  0        0
 11 12  1  0        0
 10 13  4  0        0
 13 14  1  0        0
 14 15  2  0        0
 14 16  2  0        0
 13 17  4  0        0
  4 17  4  0        0
M  END
$$$$

CDXL12

 16 18  0  0  0  0  0  0  0  0999 V2000
    2.3518    0.9623    0.0000 O   0  0  0  0  0  0  0  2  0  0  0  0
    2.1382    0.1654    0.0000 N   0  0  0  0  0  0  0  2  0  0  0  0
    2.7216   -0.4180    0.0000 O   0  0  0  0  0  0  0  2  0  0  0  0
    1.3313   -0.0061    0.0000 C   0  0  0  0  0  0  0  2  0  0  0  0
    1.0763   -0.7908    0.0000 C   0  0  0  0  0  0  0  2  0  0  0  0
    0.2694   -0.9623    0.0000 C   0  0  0  0  0  0  0  2  0  0  0  0
   -0.2827   -0.3492    0.0000 C   0  0  0  0  0  0  0  2  0  0  0  0
   -0.0277    0.4354    0.0000 C   0  0  0  0  0  0  0  2  0  0  0  0
   -0.6952    0.9204    0.0000 C   0  0  0  0  0  0  0  2  0  0  0  0
   -1.3626    0.4354    0.0000 C   0  0  0  0  0  0  0  2  0  0  0  0
   -2.1696    0.6070    0.0000 C   0  0  0  0  0  0  0  2  0  0  0  0
   -2.7216   -0.0061    0.0000 C   0  0  0  0  0  0  0  2  0  0  0  0
   -2.4667   -0.7908    0.0000 C   0  0  0  0  0  0  0  2  0  0  0  0
   -1.6597   -0.9623    0.0000 C   0  0  0  0  0  0  0  2  0  0  0  0
   -1.1077   -0.3492    0.0000 C   0  0  0  0  0  0  0  2  0  0  0  0
    0.7792    0.6070    0.0000 C   0  0  0  0  0  0  0  2  0  0  0  0
  1  2  2  0        0
  2  3  2  0        0
  2  4  1  0        0
  4  5  4  0        0
  5  6  4  0        0
  6  7  4  0        0
  7  8  4  0        0
  8  9  1  0        0
  9 10  1  0        0
 10 11  4  0        0
 11 12  4  0        0
 12 13  4  0        0
 13 14  4  0        0
 14 15  4  0        0
  7 15  1  0        0
 10 15  4  0        0
  8 16  4  0        0
  4 16  4  0        0
M  END
$$$$

CDXL12

  9  9  0  0  0  0  0  0  0  0999 V2000
    1.0717    0.4125    0.0000 Br  0  0  0  0  0  0  0  2  0  0  0  0
    0.3572    0.0000    0.0000 C   0  0  0  0  0  0  0  2  0  0  0  0
    0.3572   -0.8250    0.0000 C   0  0  0  0  0  0  0  2  0  0  0  0
   -0.3572   -1.2375    0.0000 C   0  0  0  0  0  0  0  2  0  0  0  0
   -1.0717   -0.8250    0.0000 C   0  0  0  0  0  0  0  2  0  0  0  0
   -1.0717    0.0000    0.0000 C   0  0  0  0  0  0  0  2  0  0  0  0
   -0.3572    0.4125    0.0000 C   0  0  0  0  0  0  0  2  0  0  0  0
   -0.3572    1.2375    0.0000 Br  0  0  0  0  0  0  0  2  0  0  0  0
    1.0717   -1.2375    0.0000 Br  0  0  0  0  0  0  0  2  0  0  0  0
  1  2  1  0        0
  2  3  4  0        0
  3  4  4  0        0
  4  5  4  0        0
  5  6  4  0        0
  6  7  4  0        0
  2  7  4  0        0
  7  8  1  0        0
  3  9  1  0        0
M  END
$$$$

CDXL12

 12 11  0  0  0  0  0  0  0  0999 V2000
    2.5006    0.2062    0.0000 O   0  0  0  0  0  0  0  2  0  0  0  0
    1.7862   -0.2062    0.0000 C   0  0  0  0  0  0  0  2  0  0  0  0
    1.0717    0.2062    0.0000 C   0  0  0  0  0  0  0  2  0  0  0  0
    1.0717    1.0313    0.0000 O   0  0  0  0  0  0  0  2  0  0  0  0
    0.3572   -0.2062    0.0000 C   0  0  0  0  0  0  0  2  0  0  0  0
    0.3572   -1.0313    0.0000 O   0  0  0  0  0  0  0  2  0  0  0  0
   -0.3572    0.2062    0.0000 C   0  0  0  0  0  0  0  2  0  0  0  0
   -0.3572    1.0313    0.0000 O   0  0  0  0  0  0  0  2  0  0  0  0
   -1.0717   -0.2062    0.0000 C   0  0  0  0  0  0  0  2  0  0  0  0
   -1.0717   -1.0313    0.0000 O   0  0  0  0  0  0  0  2  0  0  0  0
   -1.7862    0.2062    0.0000 C   0  0  0  0  0  0  0  2  0  0  0  0
   -2.5006   -0.2062    0.0000 O   0  0  0  0  0  0  0  2  0  0  0  0
  1  2  1  0        0
  2  3  1  0        0
  3  4  1  0        0
  3  5  1  0        0
  5  6  1  0        0
  5  7  1  0        0
  7  8  1  0        0
  7  9  1  0        0
  9 10  1  0        0
  9 11  1  0        0
 11 12  1  0        0
M  END
$$$$

CDXL12

 12 12  0  0  0  0  0  0  0  0999 V2000
    1.4289   -0.8250    0.0000 Cl  0  0  0  0  0  0  0  2  0  0  0  0
    0.7145   -0.4125    0.0000 C   0  0  0  0  0  0  0  2  0  0  0  0
    0.0000   -0.8250    0.0000 C   0  0  0  0  0  0  0  2  0  0  0  0
    0.0000   -1.6500    0.0000 Cl  0  0  0  0  0  0  0  2  0  0  0  0
   -0.7145   -0.4125    0.0000 C   0  0  0  0  0  0  0  2  0  0  0  0
   -1.4289   -0.8250    0.0000 Cl  0  0  0  0  0  0  0  2  0  0  0  0
   -0.7145    0.4125    0.0000 C   0  0  0  0  0  0  0  2  0  0  0  0
   -1.4289    0.8250    0.0000 Cl  0  0  0  0  0  0  0  2  0  0  0  0
    0.0000    0.8250    0.0000 C   0  0  0  0  0  0  0  2  0  0  0  0
    0.0000    1.6500    0.0000 Cl  0  0  0  0  0  0  0  2  0  0  0  0
    0.7145    0.4125    0.0000 C   0  0  0  0  0  0  0  2  0  0  0  0
    1.4289    0.8250    0.0000 Cl  0  0  0  0  0  0  0  2  0  0  0  0
  1  2  1  0        0
  2  3  1  0        0
  3  4  1  0        0
  3  5  1  0        0
  5  6  1  0        0
  5  7  1  0        0
  7  8  1  0        0
  7  9  1  0        0
  9 10  1  0        0
  9 11  1  0        0
  2 11  1  0        0
 11 12  1  0        0
M  END
$$$$

CDXL12

 11 11  0  0  0  0  0  0  0  0999 V2000
   -0.7145   -0.8250    0.0000 C   0  0  0  0  0  0  0  2  0  0  0  0
   -0.7145    0.0000    0.0000 C   0  0  0  0  0  0  0  2  0  0  0  0
    0.0000    0.4125    0.0000 C   0  0  0  0  0  0  0  2  0  0  0  0
    0.7145   -0.0000    0.0000 C   0  0  0  0  0  0  0  2  0  0  0  0
    0.7145   -0.8250    0.0000 C   0  0  0  0  0  0  0  2  0  0  0  0
    1.4289   -1.2375    0.0000 Cl  0  0  0  0  0  0  0  2  0  0  0  0
    0.0000   -1.2375    0.0000 C   0  0  0  0  0  0  0  2  0  0  0  0
    1.4289    0.4125    0.0000 Cl  0  0  0  0  0  0  0  2  0  0  0  0
    0.0000    1.2375    0.0000 Cl  0  0  0  0  0  0  0  2  0  0  0  0
   -1.4289    0.4125    0.0000 Cl  0  0  0  0  0  0  0  2  0  0  0  0
   -1.4289   -1.2375    0.0000 Cl  0  0  0  0  0  0  0  2  0  0  0  0
  1  2  4  0        0
  2  3  4  0        0
  3  4  4  0        0
  4  5  4  0        0
  5  6  1  0        0
  5  7  4  0        0
  1  7  4  0        0
  4  8  1  0        0
  3  9  1  0        0
  2 10  1  0        0
  1 11  1  0        0
M  END
$$$$

CDXL12

  8  7  0  0  0  0  0  0  0  0999 V2000
    0.7145    1.2375    0.0000 O   0  0  0  0  0  0  0  2  0  0  0  0
    0.7145    0.4125    0.0000 N   0  0  0  0  0  0  0  2  0  0  0  0
    1.4289   -0.0000    0.0000 O   0  0  0  0  0  0  0  2  0  0  0  0
    0.0000   -0.0000    0.0000 C   0  0  0  0  0  0  0  2  0  0  0  0
   -0.7145    0.4125    0.0000 C   0  0  0  0  0  0  0  2  0  0  0  0
   -1.4289   -0.0000    0.0000 C   0  0  0  0  0  0  0  2  0  0  0  0
    0.0000   -0.8250    0.0000 C   0  0  0  0  0  0  0  2  0  0  0  0
    0.7145   -1.2375    0.0000 O   0  0  0  0  0  0  0  2  0  0  0  0
  1  2  2  0        0
  2  3  2  0        0
  2  4  1  0        0
  4  5  1  0        0
  5  6  1  0        0
  4  7  1  0        0
  7  8  1  0        0
M  END
$$$$

CDXL12

 12 12  0  0  0  0  0  0  0  0999 V2000
   -1.0717   -0.8250    0.0000 O   0  0  0  0  0  0  0  2  0  0  0  0
   -0.3572   -0.4125    0.0000 C   0  0  0  0  0  0  0  2  0  0  0  0
    0.3572   -0.8250    0.0000 C   0  0  0  0  0  0  0  2  0  0  0  0
    0.3572   -1.6500    0.0000 Cl  0  0  0  0  0  0  0  2  0  0  0  0
    1.0717   -0.4125    0.0000 C   0  0  0  0  0  0  0  2  0  0  0  0
    1.0717    0.4125    0.0000 C   0  0  0  0  0  0  0  2  0  0  0  0
    1.7862    0.8250    0.0000 Cl  0  0  0  0  0  0  0  2  0  0  0  0
    0.3572    0.8250    0.0000 C   0  0  0  0  0  0  0  2  0  0  0  0
   -0.3572    0.4125    0.0000 C   0  0  0  0  0  0  0  2  0  0  0  0
   -1.0717    0.8250    0.0000 N   0  0  0  0  0  0  0  2  0  0  0  0
   -1.0717    1.6500    0.0000 O   0  0  0  0  0  0  0  2  0  0  0  0
   -1.7862    0.4125    0.0000 O   0  0  0  0  0  0  0  2  0  0  0  0
  1  2  1  0        0
  2  3  4  0        0
  3  4  1  0        0
  3  5  4  0        0
  5  6  4  0        0
  6  7  1  0        0
  6  8  4  0        0
  8  9  4  0        0
  2  9  4  0        0
  9 10  1  0        0
 10 11  2  0        0
 10 12  2  0        0
M  END
$$$$

CDXL12

 12 12  0  0  0  0  0  0  0  0999 V2000
    1.7862    0.4125    0.0000 O   0  0  0  0  0  0  0  2  0  0  0  0
    1.0717    0.8250    0.0000 C   0  0  0  0  0  0  0  2  0  0  0  0
    1.0717    1.6500    0.0000 O   0  0  0  0  0  0  0  2  0  0  0  0
    0.3572    0.4125    0.0000 C   0  0  0  0  0  0  0  2  0  0  0  0
   -0.3572    0.8250    0.0000 C   0  0  0  0  0  0  0  2  0  0  0  0
   -1.0717    0.4125    0.0000 C   0  0  0  0  0  0  0  2  0  0  0  0
   -1.0717   -0.4125    0.0000 C   0  0  0  0  0  0  0  2  0  0  0  0
   -1.7862   -0.8250    0.0000 O   0  0  0  0  0  0  0  2  0  0  0  0
   -0.3572   -0.8250    0.0000 C   0  0  0  0  0  0  0  2  0  0  0  0
   -0.3572   -1.6500    0.0000 O   0  0  0  0  0  0  0  2  0  0  0  0
    0.3572   -0.4125    0.0000 C   0  0  0  0  0  0  0  2  0  0  0  0
    1.0717   -0.8250    0.0000 O   0  0  0  0  0  0  0  2  0  0  0  0
  1  2  1  0        0
  2  3  2  0        0
  2  4  1  0        0
  4  5  4  0        0
  5  6  4  0        0
  6  7  4  0        0
  7  8  1  0        0
  7  9  4  0        0
  9 10  1  0        0
  9 11  4  0        0
  4 11  4  0        0
 11 12  1  0        0
M  END
$$$$

CDXL12

 15 15  0  0  0  0  0  0  0  0999 V2000
    1.4289   -1.6500    0.0000 O   0  0  0  0  0  0  0  2  0  0  0  0
    1.4289   -0.8250    0.0000 C   0  0  0  0  0  0  0  2  0  0  0  0
    2.1434   -0.4125    0.0000 O   0  0  0  0  0  0  0  2  0  0  0  0
    0.7145   -0.4125    0.0000 C   0  0  0  0  0  0  0  2  0  0  0  0
    0.7145    0.4125    0.0000 C   0  0  0  0  0  0  0  2  0  0  0  0
    1.4289    0.8250    0.0000 N   0  0  0  0  0  0  0  2  0  0  0  0
    1.4289    1.6500    0.0000 O   0  0  0  0  0  0  0  2  0  0  0  0
    2.1434    0.4125    0.0000 O   0  0  0  0  0  0  0  2  0  0  0  0
    0.0000    0.8250    0.0000 C   0  0  0  0  0  0  0  2  0  0  0  0
   -0.7145    0.4125    0.0000 C   0  0  0  0  0  0  0  2  0  0  0  0
   -1.4289    0.8250    0.0000 N   0  0  0  0  0  0  0  2  0  0  0  0
   -1.4289    1.6500    0.0000 O   0  0  0  0  0  0  0  2  0  0  0  0
   -2.1434    0.4125    0.0000 O   0  0  0  0  0  0  0  2  0  0  0  0
   -0.7145   -0.4125    0.0000 C   0  0  0  0  0  0  0  2  0  0  0  0
    0.0000   -0.8250    0.0000 C   0  0  0  0  0  0  0  2  0  0  0  0
  1  2  2  0        0
  2  3  1  0        0
  2  4  1  0        0
  4  5  4  0        0
  5  6  1  0        0
  6  7  2  0        0
  6  8  2  0        0
  5  9  4  0        0
  9 10  4  0        0
 10 11  1  0        0
 11 12  2  0        0
 11 13  2  0        0
 10 14  4  0        0
 14 15  4  0        0
  4 15  4  0        0
M  END
$$$$

CDXL12

  9  9  0  0  0  0  0  0  0  0999 V2000
    0.0000   -0.4125    0.0000 C   0  0  0  0  0  0  0  2  0  0  0  0
    0.0000    0.4125    0.0000 C   0  0  0  0  0  0  0  2  0  0  0  0
   -0.7145    0.8250    0.0000 C   0  0  0  0  0  0  0  2  0  0  0  0
   -1.4289    0.4125    0.0000 C   0  0  0  0  0  0  0  2  0  0  0  0
   -1.4289   -0.4125    0.0000 C   0  0  0  0  0  0  0  2  0  0  0  0
   -0.7145   -0.8250    0.0000 C   0  0  0  0  0  0  0  2  0  0  0  0
    0.7145    0.8250    0.0000 C   0  0  0  0  0  0  0  2  0  0  0  0
    0.7145   -0.8250    0.0000 C   0  0  0  0  0  0  0  2  0  0  0  0
    1.4289   -0.4125    0.0000 C   0  0  0  0  0  0  0  2  0  0  0  0
  1  2  4  0        0
  2  3  4  0        0
  3  4  4  0        0
  4  5  4  0        0
  5  6  4  0        0
  1  6  4  0        0
  2  7  1  0        0
  1  8  1  0        0
  8  9  1  0        0
M  END
$$$$

CDXL12

 11 11  0  0  0  0  0  0  0  0999 V2000
    1.4289   -0.8250    0.0000 C   0  0  0  0  0  0  0  2  0  0  0  0
    0.7145   -1.2375    0.0000 C   0  0  0  0  0  0  0  2  0  0  0  0
    0.0000   -0.8250    0.0000 C   0  0  0  0  0  0  0  2  0  0  0  0
   -0.7145   -1.2375    0.0000 C   0  0  0  0  0  0  0  2  0  0  0  0
   -1.4289   -0.8250    0.0000 C   0  0  0  0  0  0  0  2  0  0  0  0
   -1.4289    0.0000    0.0000 C   0  0  0  0  0  0  0  2  0  0  0  0
   -0.7145    0.4125    0.0000 C   0  0  0  0  0  0  0  2  0  0  0  0
    0.0000    0.0000    0.0000 C   0  0  0  0  0  0  0  2  0  0  0  0
    0.7145    0.4125    0.0000 N   0  0  0  0  0  0  0  2  0  0  0  0
    0.7145    1.2375    0.0000 O   0  0  0  0  0  0  0  2  0  0  0  0
    1.4289   -0.0000    0.0000 O   0  0  0  0  0  0  0  2  0  0  0  0
  1  2  1  0        0
  2  3  1  0        0
  3  4  4  0        0
  4  5  4  0        0
  5  6  4  0        0
  6  7  4  0        0
  7  8  4  0        0
  3  8  4  0        0
  8  9  1  0        0
  9 10  2  0        0
  9 11  2  0        0
M  END
$$$$

CDXL12

 15 17  0  0  0  0  0  0  0  0999 V2000
    2.5006    0.8250    0.0000 C   0  0  0  0  0  0  0  2  0  0  0  0
    1.7862    0.4125    0.0000 C   0  0  0  0  0  0  0  2  0  0  0  0
    1.0717    0.8250    0.0000 C   0  0  0  0  0  0  0  2  0  0  0  0
    0.3572    0.4125    0.0000 C   0  0  0  0  0  0  0  2  0  0  0  0
   -0.3572    0.8250    0.0000 C   0  0  0  0  0  0  0  2  0  0  0  0
   -1.0717    0.4125    0.0000 C   0  0  0  0  0  0  0  2  0  0  0  0
   -1.7862    0.8250    0.0000 C   0  0  0  0  0  0  0  2  0  0  0  0
   -2.5006    0.4125    0.0000 C   0  0  0  0  0  0  0  2  0  0  0  0
   -2.5006   -0.4125    0.0000 C   0  0  0  0  0  0  0  2  0  0  0  0
   -1.7862   -0.8250    0.0000 C   0  0  0  0  0  0  0  2  0  0  0  0
   -1.0717   -0.4125    0.0000 C   0  0  0  0  0  0  0  2  0  0  0  0
   -0.3572   -0.8250    0.0000 C   0  0  0  0  0  0  0  2  0  0  0  0
    0.3572   -0.4125    0.0000 C   0  0  0  0  0  0  0  2  0  0  0  0
    1.0717   -0.8250    0.0000 C   0  0  0  0  0  0  0  2  0  0  0  0
    1.7862   -0.4125    0.0000 C   0  0  0  0  0  0  0  2  0  0  0  0
  1  2  1  0        0
  2  3  4  0        0
  3  4  4  0        0
  4  5  4  0        0
  5  6  4  0        0
  6  7  4  0        0
  7  8  4  0        0
  8  9  4  0        0
  9 10  4  0        0
 10 11  4  0        0
  6 11  4  0        0
 11 12  4  0        0
 12 13  4  0        0
  4 13  4  0        0
 13 14  4  0        0
 14 15  4  0        0
  2 15  4  0        0
M  END
$$$$

CDXL12

 15 17  0  0  0  0  0  0  0  0999 V2000
    2.5006    0.8250    0.0000 N   0  0  0  0  0  0  0  2  0  0  0  0
    1.7862    0.4125    0.0000 C   0  0  0  0  0  0  0  2  0  0  0  0
    1.7862   -0.4125    0.0000 C   0  0  0  0  0  0  0  2  0  0  0  0
    1.0717   -0.8250    0.0000 C   0  0  0  0  0  0  0  2  0  0  0  0
    0.3572   -0.4125    0.0000 C   0  0  0  0  0  0  0  2  0  0  0  0
   -0.3572   -0.8250    0.0000 C   0  0  0  0  0  0  0  2  0  0  0  0
   -1.0717   -0.4125    0.0000 C   0  0  0  0  0  0  0  2  0  0  0  0
   -1.7862   -0.8250    0.0000 C   0  0  0  0  0  0  0  2  0  0  0  0
   -2.5006   -0.4125    0.0000 C   0  0  0  0  0  0  0  2  0  0  0  0
   -2.5006    0.4125    0.0000 C   0  0  0  0  0  0  0  2  0  0  0  0
   -1.7862    0.8250    0.0000 C   0  0  0  0  0  0  0  2  0  0  0  0
   -1.0717    0.4125    0.0000 C   0  0  0  0  0  0  0  2  0  0  0  0
   -0.3572    0.8250    0.0000 C   0  0  0  0  0  0  0  2  0  0  0  0
    0.3572    0.4125    0.0000 C   0  0  0  0  0  0  0  2  0  0  0  0
    1.0717    0.8250    0.0000 C   0  0  0  0  0  0  0  2  0  0  0  0
  1  2  1  0        0
  2  3  4  0        0
  3  4  4  0        0
  4  5  4  0        0
  5  6  4  0        0
  6  7  4  0        0
  7  8  4  0        0
  8  9  4  0        0
  9 10  4  0        0
 10 11  4  0        0
 11 12  4  0        0
  7 12  4  0        0
 12 13  4  0        0
 13 14  4  0        0
  5 14  4  0        0
 14 15  4  0        0
  2 15  4  0        0
M  END
$$$$

CDXL12

 14 15  0  0  0  0  0  0  0  0999 V2000
   -0.3572   -1.0313    0.0000 C   0  0  0  0  0  0  0  2  0  0  0  0
   -1.0717   -1.4437    0.0000 C   0  0  0  0  0  0  0  2  0  0  0  0
   -1.7862   -1.0313    0.0000 C   0  0  0  0  0  0  0  2  0  0  0  0
   -2.5006   -1.4437    0.0000 C   0  0  0  0  0  0  0  2  0  0  0  0
   -1.7862   -0.2063    0.0000 C   0  0  0  0  0  0  0  2  0  0  0  0
   -1.0717    0.2062    0.0000 C   0  0  0  0  0  0  0  2  0  0  0  0
   -0.3572   -0.2063    0.0000 C   0  0  0  0  0  0  0  2  0  0  0  0
    0.3572    0.2062    0.0000 C   0  0  0  0  0  0  0  2  0  0  0  0
    0.3572    1.0312    0.0000 C   0  0  0  0  0  0  0  2  0  0  0  0
    1.0717    1.4437    0.0000 C   0  0  0  0  0  0  0  2  0  0  0  0
    1.7862    1.0312    0.0000 C   0  0  0  0  0  0  0  2  0  0  0  0
    2.5006    1.4437    0.0000 C   0  0  0  0  0  0  0  2  0  0  0  0
    1.7862    0.2062    0.0000 C   0  0  0  0  0  0  0  2  0  0  0  0
    1.0717   -0.2063    0.0000 C   0  0  0  0  0  0  0  2  0  0  0  0
  1  2  4  0        0
  2  3  4  0        0
  3  4  1  0        0
  3  5  4  0        0
  5  6  4  0        0
  6  7  4  0        0
  1  7  4  0        0
  7  8  1  0        0
  8  9  4  0        0
  9 10  4  0        0
 10 11  4  0        0
 11 12  1  0        0
 11 13  4  0        0
 13 14  4  0        0
  8 14  4  0        0
M  END
$$$$

CDXL12

 12 12  0  0  0  0  0  0  0  0999 V2000
    2.1434    0.0000    0.0000 O   0  0  0  0  0  0  0  2  0  0  0  0
    1.4289    0.4125    0.0000 C   0  0  0  0  0  0  0  2  0  0  0  0
    1.4289    1.2375    0.0000 O   0  0  0  0  0  0  0  2  0  0  0  0
    0.7145    0.0000    0.0000 C   0  0  0  0  0  0  0  2  0  0  0  0
    0.0000    0.4125    0.0000 O   0  0  0  0  0  0  0  2  0  0  0  0
   -0.7145    0.0000    0.0000 C   0  0  0  0  0  0  0  2  0  0  0  0
   -1.4289    0.4125    0.0000 C   0  0  0  0  0  0  0  2  0  0  0  0
   -2.1434   -0.0000    0.0000 C   0  0  0  0  0  0  0  2  0  0  0  0
   -2.1434   -0.8250    0.0000 C   0  0  0  0  0  0  0  2  0  0  0  0
   -1.4289   -1.2375    0.0000 C   0  0  0  0  0  0  0  2  0  0  0  0
   -0.7145   -0.8250    0.0000 C   0  0  0  0  0  0  0  2  0  0  0  0
    0.0000   -1.2375    0.0000 Cl  0  0  0  0  0  0  0  2  0  0  0  0
  1  2  1  0        0
  2  3  2  0        0
  2  4  1  0        0
  4  5  1  0        0
  5  6  1  0        0
  6  7  4  0        0
  7  8  4  0        0
  8  9  4  0        0
  9 10  4  0        0
 10 11  4  0        0
  6 11  4  0        0
 11 12  1  0        0
M  END
$$$$

CDXL12

 11 11  0  0  0  0  0  0  0  0999 V2000
   -1.0717    0.4125    0.0000 O   0  0  0  0  0  0  0  2  0  0  0  0
   -1.0717   -0.4125    0.0000 C   0  0  0  0  0  0  0  2  0  0  0  0
   -0.3572   -0.8250    0.0000 N   0  0  0  0  0  0  0  2  0  0  0  0
    0.3572   -0.4125    0.0000 C   0  0  0  0  0  0  0  2  0  0  0  0
    0.3572    0.4125    0.0000 C   0  0  0  0  0  0  0  2  0  0  0  0
   -0.3572    0.8250    0.0000 O   0  0  0  0  0  0  0  2  0  0  0  0
    1.0717    0.8250    0.0000 C   0  0  0  0  0  0  0  2  0  0  0  0
    1.7862    0.4125    0.0000 C   0  0  0  0  0  0  0  2  0  0  0  0
    1.7862   -0.4125    0.0000 C   0  0  0  0  0  0  0  2  0  0  0  0
    1.0717   -0.8250    0.0000 C   0  0  0  0  0  0  0  2  0  0  0  0
   -1.7862   -0.8250    0.0000 C   0  0  0  0  0  0  0  2  0  0  0  0
  1  2  2  0        0
  2  3  1  0        0
  3  4  1  0        0
  4  5  4  0        0
  5  6  1  0        0
  5  7  4  0        0
  7  8  4  0        0
  8  9  4  0        0
  9 10  4  0        0
  4 10  4  0        0
  2 11  1  0        0
M  END
$$$$

CDXL12

 10 11  0  0  0  0  0  0  0  0999 V2000
    0.4518   -0.6674    0.0000 N   0  0  0  0  0  0  0  2  0  0  0  0
   -0.3328   -0.4125    0.0000 C   0  0  0  0  0  0  0  2  0  0  0  0
   -0.3328    0.4125    0.0000 C   0  0  0  0  0  0  0  2  0  0  0  0
    0.4518    0.6674    0.0000 N   0  0  0  0  0  0  0  2  0  0  0  0
    0.9367   -0.0000    0.0000 C   0  0  0  0  0  0  0  2  0  0  0  0
    1.7617   -0.0000    0.0000 C   0  0  0  0  0  0  0  2  0  0  0  0
   -1.0473    0.8250    0.0000 C   0  0  0  0  0  0  0  2  0  0  0  0
   -1.7617    0.4125    0.0000 C   0  0  0  0  0  0  0  2  0  0  0  0
   -1.7617   -0.4125    0.0000 C   0  0  0  0  0  0  0  2  0  0  0  0
   -1.0473   -0.8250    0.0000 C   0  0  0  0  0  0  0  2  0  0  0  0
  1  2  4  0        0
  2  3  4  0        0
  3  4  4  0        0
  4  5  4  0        0
  1  5  4  0        0
  5  6  1  0        0
  3  7  4  0        0
  7  8  4  0        0
  8  9  4  0        0
  9 10  4  0        0
  2 10  4  0        0
M  END
$$$$

CDXL12

 11 12  0  0  0  0  0  0  0  0999 V2000
    0.2456   -0.6674    0.0000 N   0  0  0  0  0  0  0  2  0  0  0  0
   -0.5391   -0.4125    0.0000 C   0  0  0  0  0  0  0  2  0  0  0  0
   -0.5391    0.4125    0.0000 C   0  0  0  0  0  0  0  2  0  0  0  0
    0.2456    0.6674    0.0000 S   0  0  0  0  0  0  0  2  0  0  0  0
    0.7305   -0.0000    0.0000 C   0  0  0  0  0  0  0  2  0  0  0  0
    1.5555   -0.0000    0.0000 S   0  0  0  0  0  0  0  2  0  0  0  0
    1.9680    0.7145    0.0000 C   0  0  0  0  0  0  0  2  0  0  0  0
   -1.2535    0.8250    0.0000 C   0  0  0  0  0  0  0  2  0  0  0  0
   -1.9680    0.4125    0.0000 C   0  0  0  0  0  0  0  2  0  0  0  0
   -1.9680   -0.4125    0.0000 C   0  0  0  0  0  0  0  2  0  0  0  0
   -1.2535   -0.8250    0.0000 C   0  0  0  0  0  0  0  2  0  0  0  0
  1  2  4  0        0
  2  3  4  0        0
  3  4  4  0        0
  4  5  4  0        0
  1  5  4  0        0
  5  6  1  0        0
  6  7  1  0        0
  3  8  4  0        0
  8  9  4  0        0
  9 10  4  0        0
 10 11  4  0        0
  2 11  4  0        0
M  END
$$$$

CDXL12

  8  8  0  0  0  0  0  0  0  0999 V2000
    0.3572    0.4125    0.0000 C   0  0  0  0  0  0  0  2  0  0  0  0
    0.3572   -0.4125    0.0000 C   0  0  0  0  0  0  0  2  0  0  0  0
   -0.3572   -0.8250    0.0000 C   0  0  0  0  0  0  0  2  0  0  0  0
   -1.0717   -0.4125    0.0000 C   0  0  0  0  0  0  0  2  0  0  0  0
   -1.0717    0.4125    0.0000 C   0  0  0  0  0  0  0  2  0  0  0  0
   -0.3572    0.8250    0.0000 C   0  0  0  0  0  0  0  2  0  0  0  0
    1.0717   -0.8250    0.0000 Cl  0  0  0  0  0  0  0  2  0  0  0  0
    1.0717    0.8250    0.0000 I   0  0  0  0  0  0  0  2  0  0  0  0
  1  2  4  0        0
  2  3  4  0        0
  3  4  4  0        0
  4  5  4  0        0
  5  6  4  0        0
  1  6  4  0        0
  2  7  1  0        0
  1  8  1  0        0
M  END
$$$$

CDXL12

  8  8  0  0  0  0  0  0  0  0999 V2000
    0.3572    0.4125    0.0000 C   0  0  0  0  0  0  0  2  0  0  0  0
    0.3572   -0.4125    0.0000 C   0  0  0  0  0  0  0  2  0  0  0  0
   -0.3572   -0.8250    0.0000 C   0  0  0  0  0  0  0  2  0  0  0  0
   -1.0717   -0.4125    0.0000 C   0  0  0  0  0  0  0  2  0  0  0  0
   -1.0717    0.4125    0.0000 C   0  0  0  0  0  0  0  2  0  0  0  0
   -0.3572    0.8250    0.0000 C   0  0  0  0  0  0  0  2  0  0  0  0
    1.0717   -0.8250    0.0000 I   0  0  0  0  0  0  0  2  0  0  0  0
    1.0717    0.8250    0.0000 I   0  0  0  0  0  0  0  2  0  0  0  0
  1  2  4  0        0
  2  3  4  0        0
  3  4  4  0        0
  4  5  4  0        0
  5  6  4  0        0
  1  6  4  0        0
  2  7  1  0        0
  1  8  1  0        0
M  END
$$$$

CDXL12

  9  8  0  0  0  0  0  0  0  0999 V2000
    0.0000    1.0312    0.0000 O   0  0  0  0  0  0  0  2  0  0  0  0
    0.0000    0.2062    0.0000 C   0  0  0  0  0  0  0  2  0  0  0  0
    0.7145   -0.2063    0.0000 O   0  0  0  0  0  0  0  2  0  0  0  0
    1.4289    0.2062    0.0000 C   0  0  0  0  0  0  0  2  0  0  0  0
    2.1434   -0.2063    0.0000 C   0  0  0  0  0  0  0  2  0  0  0  0
   -0.7145   -0.2063    0.0000 N   0  0  0  0  0  0  0  2  0  0  0  0
   -1.4289    0.2062    0.0000 N   0  0  0  0  0  0  0  2  0  0  0  0
   -2.1434   -0.2063    0.0000 O   0  0  0  0  0  0  0  2  0  0  0  0
   -0.7145   -1.0312    0.0000 C   0  0  0  0  0  0  0  2  0  0  0  0
  1  2  2  0        0
  2  3  1  0        0
  3  4  1  0        0
  4  5  1  0        0
  2  6  1  0        0
  6  7  1  0        0
  7  8  2  0        0
  6  9  1  0        0
M  END
$$$$

CDXL12

  9  9  0  0  0  0  0  0  0  0999 V2000
   -0.7145   -0.4125    0.0000 C   0  0  0  0  0  0  0  2  0  0  0  0
   -0.7145    0.4125    0.0000 C   0  0  0  0  0  0  0  2  0  0  0  0
    0.0000    0.8250    0.0000 C   0  0  0  0  0  0  0  2  0  0  0  0
    0.7145    0.4125    0.0000 C   0  0  0  0  0  0  0  2  0  0  0  0
    0.7145   -0.4125    0.0000 C   0  0  0  0  0  0  0  2  0  0  0  0
    1.4289   -0.8250    0.0000 Br  0  0  0  0  0  0  0  2  0  0  0  0
    0.0000   -0.8250    0.0000 C   0  0  0  0  0  0  0  2  0  0  0  0
    1.4289    0.8250    0.0000 Br  0  0  0  0  0  0  0  2  0  0  0  0
   -1.4289   -0.8250    0.0000 Br  0  0  0  0  0  0  0  2  0  0  0  0
  1  2  4  0        0
  2  3  4  0        0
  3  4  4  0        0
  4  5  4  0        0
  5  6  1  0        0
  5  7  4  0        0
  1  7  4  0        0
  4  8  1  0        0
  1  9  1  0        0
M  END
$$$$

CDXL12

  9  9  0  0  0  0  0  0  0  0999 V2000
    1.4289    0.8250    0.0000 O   0  0  0  0  0  0  0  2  0  0  0  0
    0.7145    0.4125    0.0000 C   0  0  0  0  0  0  0  2  0  0  0  0
    0.7145   -0.4125    0.0000 C   0  0  0  0  0  0  0  2  0  0  0  0
    0.0000   -0.8250    0.0000 C   0  0  0  0  0  0  0  2  0  0  0  0
   -0.7145   -0.4125    0.0000 C   0  0  0  0  0  0  0  2  0  0  0  0
   -0.7145    0.4125    0.0000 C   0  0  0  0  0  0  0  2  0  0  0  0
    0.0000    0.8250    0.0000 C   0  0  0  0  0  0  0  2  0  0  0  0
   -1.4289   -0.8250    0.0000 Br  0  0  0  0  0  0  0  2  0  0  0  0
    1.4289   -0.8250    0.0000 Br  0  0  0  0  0  0  0  2  0  0  0  0
  1  2  1  0        0
  2  3  4  0        0
  3  4  4  0        0
  4  5  4  0        0
  5  6  4  0        0
  6  7  4  0        0
  2  7  4  0        0
  5  8  1  0        0
  3  9  1  0        0
M  END
$$$$

CDXL12

  9  9  0  0  0  0  0  0  0  0999 V2000
    0.0000    0.8250    0.0000 C   0  0  0  0  0  0  0  2  0  0  0  0
   -0.7145    0.4125    0.0000 C   0  0  0  0  0  0  0  2  0  0  0  0
   -0.7145   -0.4125    0.0000 C   0  0  0  0  0  0  0  2  0  0  0  0
   -1.4289   -0.8250    0.0000 O   0  0  0  0  0  0  0  2  0  0  0  0
    0.0000   -0.8250    0.0000 N   0  0  0  0  0  0  0  2  0  0  0  0
    0.7145   -0.4125    0.0000 C   0  0  0  0  0  0  0  2  0  0  0  0
    1.4289   -0.8250    0.0000 O   0  0  0  0  0  0  0  2  0  0  0  0
    0.7145    0.4125    0.0000 N   0  0  0  0  0  0  0  2  0  0  0  0
    1.4289    0.8250    0.0000 C   0  0  0  0  0  0  0  2  0  0  0  0
  1  2  2  0        0
  2  3  1  0        0
  3  4  2  0        0
  3  5  1  0        0
  5  6  1  0        0
  6  7  2  0        0
  6  8  1  0        0
  1  8  1  0        0
  8  9  1  0        0
M  END
$$$$

CDXL12

  6  5  0  0  0  0  0  0  0  0999 V2000
    0.0000   -0.2062    0.0000 C   0  0  0  0  0  0  0  2  0  0  0  0
    0.0000    0.6188    0.0000 Cl  0  0  0  0  0  0  0  2  0  0  0  0
    0.7145   -0.6188    0.0000 C   0  0  0  0  0  0  0  2  0  0  0  0
    1.4289   -0.2062    0.0000 C   0  0  0  0  0  0  0  2  0  0  0  0
   -0.7145   -0.6187    0.0000 C   0  0  0  0  0  0  0  2  0  0  0  0
   -1.4289   -0.2062    0.0000 C   0  0  0  0  0  0  0  2  0  0  0  0
  1  2  1  0        0
  1  3  1  0        0
  3  4  1  0        0
  1  5  1  0        0
  5  6  1  0        0
M  END
$$$$

CDXL12

  6  5  0  0  0  0  0  0  0  0999 V2000
    0.0000    0.6188    0.0000 O   0  0  0  0  0  0  0  2  0  0  0  0
    0.0000   -0.2062    0.0000 C   0  0  0  0  0  0  0  2  0  0  0  0
    0.7145   -0.6188    0.0000 C   0  0  0  0  0  0  0  2  0  0  0  0
    1.4289   -0.2062    0.0000 C   0  0  0  0  0  0  0  2  0  0  0  0
   -0.7145   -0.6187    0.0000 C   0  0  0  0  0  0  0  2  0  0  0  0
   -1.4289   -0.2062    0.0000 C   0  0  0  0  0  0  0  2  0  0  0  0
  1  2  1  0        0
  2  3  1  0        0
  3  4  2  0        0
  2  5  1  0        0
  5  6  1  0        0
M  END
$$$$

CDXL12

  6  6  0  0  0  0  0  0  0  0999 V2000
    0.2751    0.1498    0.0000 C   0  0  0  0  0  0  0  2  0  0  0  0
    1.0597    0.4048    0.0000 C   0  0  0  0  0  0  0  2  0  0  0  0
    0.0202   -0.6348    0.0000 C   0  0  0  0  0  0  0  2  0  0  0  0
   -0.8048   -0.6348    0.0000 S   0  0  0  0  0  0  0  2  0  0  0  0
   -1.0597    0.1498    0.0000 C   0  0  0  0  0  0  0  2  0  0  0  0
   -0.3923    0.6348    0.0000 C   0  0  0  0  0  0  0  2  0  0  0  0
  1  2  1  0        0
  1  3  4  0        0
  3  4  4  0        0
  4  5  4  0        0
  5  6  4  0        0
  1  6  4  0        0
M  END
$$$$

CDXL12

  6  6  0  0  0  0  0  0  0  0999 V2000
   -0.8048   -0.6348    0.0000 N   0  0  0  0  0  0  0  2  0  0  0  0
   -1.0597    0.1498    0.0000 C   0  0  0  0  0  0  0  2  0  0  0  0
   -0.3923    0.6348    0.0000 C   0  0  0  0  0  0  0  2  0  0  0  0
    0.2751    0.1498    0.0000 N   0  0  0  0  0  0  0  2  0  0  0  0
    1.0597    0.4048    0.0000 C   0  0  0  0  0  0  0  2  0  0  0  0
    0.0202   -0.6348    0.0000 C   0  0  0  0  0  0  0  2  0  0  0  0
  1  2  4  0        0
  2  3  4  0        0
  3  4  4  0        0
  4  5  1  0        0
  4  6  4  0        0
  1  6  4  0        0
M  END
$$$$

CDXL12

 12 11  0  0  0  0  0  0  0  0999 V2000
    1.7862    1.2375    0.0000 O   0  0  0  0  0  0  0  2  0  0  0  0
    1.7862    0.4125    0.0000 C   0  0  0  0  0  0  0  2  0  0  0  0
    1.0717   -0.0000    0.0000 C   0  0  0  0  0  0  0  2  0  0  0  0
    1.0717   -0.8250    0.0000 C   0  0  0  0  0  0  0  2  0  0  0  0
    0.3572   -1.2375    0.0000 O   0  0  0  0  0  0  0  2  0  0  0  0
    1.7862   -1.2375    0.0000 O   0  0  0  0  0  0  0  2  0  0  0  0
    0.3572    0.4125    0.0000 C   0  0  0  0  0  0  0  2  0  0  0  0
   -0.3572   -0.0000    0.0000 C   0  0  0  0  0  0  0  2  0  0  0  0
   -1.0717    0.4125    0.0000 C   0  0  0  0  0  0  0  2  0  0  0  0
   -1.7862   -0.0000    0.0000 C   0  0  0  0  0  0  0  2  0  0  0  0
   -2.5006    0.4125    0.0000 C   0  0  0  0  0  0  0  2  0  0  0  0
    2.5006   -0.0000    0.0000 O   0  0  0  0  0  0  0  2  0  0  0  0
  1  2  2  0        0
  2  3  1  0        0
  3  4  1  0        0
  4  5  2  0        0
  4  6  1  0        0
  3  7  1  0        0
  7  8  1  0        0
  8  9  1  0        0
  9 10  1  0        0
 10 11  1  0        0
  2 12  1  0        0
M  END
$$$$

CDXL12

  8  7  0  0  0  0  0  0  0  0999 V2000
    1.0717    1.0313    0.0000 C   0  0  0  0  0  0  0  2  0  0  0  0
    1.0717    0.2062    0.0000 C   0  0  0  0  0  0  0  2  0  0  0  0
    1.7862   -0.2062    0.0000 C   0  0  0  0  0  0  0  2  0  0  0  0
    0.3572   -0.2062    0.0000 C   0  0  0  0  0  0  0  2  0  0  0  0
    0.3572   -1.0313    0.0000 O   0  0  0  0  0  0  0  2  0  0  0  0
   -0.3572    0.2062    0.0000 C   0  0  0  0  0  0  0  2  0  0  0  0
   -1.0717   -0.2062    0.0000 C   0  0  0  0  0  0  0  2  0  0  0  0
   -1.7862    0.2062    0.0000 C   0  0  0  0  0  0  0  2  0  0  0  0
  1  2  1  0        0
  2  3  1  0        0
  2  4  1  0        0
  4  5  1  0        0
  4  6  1  0        0
  6  7  1  0        0
  7  8  1  0        0
M  END
$$$$

CDXL12

  7  6  0  0  0  0  0  0  0  0999 V2000
    1.4289   -0.4125    0.0000 O   0  0  0  0  0  0  0  2  0  0  0  0
    0.7145   -0.8250    0.0000 C   0  0  0  0  0  0  0  2  0  0  0  0
    0.0000   -0.4125    0.0000 N   0  0  0  0  0  0  0  2  0  0  0  0
   -0.7145   -0.8250    0.0000 C   0  0  0  0  0  0  0  2  0  0  0  0
   -1.4289   -0.4125    0.0000 C   0  0  0  0  0  0  0  2  0  0  0  0
    0.0000    0.4125    0.0000 C   0  0  0  0  0  0  0  2  0  0  0  0
   -0.7145    0.8250    0.0000 C   0  0  0  0  0  0  0  2  0  0  0  0
  1  2  2  0        0
  2  3  1  0        0
  3  4  1  0        0
  4  5  1  0        0
  3  6  1  0        0
  6  7  1  0        0
M  END
$$$$

CDXL12

 10 10  0  0  0  0  0  0  0  0999 V2000
    1.0717    1.2375    0.0000 O   0  0  0  0  0  0  0  2  0  0  0  0
    1.0717    0.4125    0.0000 C   0  0  0  0  0  0  0  2  0  0  0  0
    1.7862   -0.0000    0.0000 O   0  0  0  0  0  0  0  2  0  0  0  0
    0.3572   -0.0000    0.0000 C   0  0  0  0  0  0  0  2  0  0  0  0
    0.3572   -0.8250    0.0000 C   0  0  0  0  0  0  0  2  0  0  0  0
   -0.3572   -1.2375    0.0000 C   0  0  0  0  0  0  0  2  0  0  0  0
   -1.0717   -0.8250    0.0000 C   0  0  0  0  0  0  0  2  0  0  0  0
   -1.0717    0.0000    0.0000 C   0  0  0  0  0  0  0  2  0  0  0  0
   -1.7862    0.4125    0.0000 I   0  0  0  0  0  0  0  2  0  0  0  0
   -0.3572    0.4125    0.0000 C   0  0  0  0  0  0  0  2  0  0  0  0
  1  2  2  0        0
  2  3  1  0        0
  2  4  1  0        0
  4  5  4  0        0
  5  6  4  0        0
  6  7  4  0        0
  7  8  4  0        0
  8  9  1  0        0
  8 10  4  0        0
  4 10  4  0        0
M  END
$$$$

CDXL12

 11 11  0  0  0  0  0  0  0  0999 V2000
    0.7145    1.2375    0.0000 O   0  0  0  0  0  0  0  2  0  0  0  0
    0.7145    0.4125    0.0000 C   0  0  0  0  0  0  0  2  0  0  0  0
    1.4289    0.0000    0.0000 O   0  0  0  0  0  0  0  2  0  0  0  0
    2.1434    0.4125    0.0000 C   0  0  0  0  0  0  0  2  0  0  0  0
    0.0000    0.0000    0.0000 C   0  0  0  0  0  0  0  2  0  0  0  0
   -0.7145    0.4125    0.0000 C   0  0  0  0  0  0  0  2  0  0  0  0
   -1.4289    0.0000    0.0000 C   0  0  0  0  0  0  0  2  0  0  0  0
   -1.4289   -0.8250    0.0000 C   0  0  0  0  0  0  0  2  0  0  0  0
   -2.1434   -1.2375    0.0000 N   0  0  0  0  0  0  0  2  0  0  0  0
   -0.7145   -1.2375    0.0000 C   0  0  0  0  0  0  0  2  0  0  0  0
    0.0000   -0.8250    0.0000 C   0  0  0  0  0  0  0  2  0  0  0  0
  1  2  2  0        0
  2  3  1  0        0
  3  4  1  0        0
  2  5  1  0        0
  5  6  4  0        0
  6  7  4  0        0
  7  8  4  0        0
  8  9  1  0        0
  8 10  4  0        0
 10 11  4  0        0
  5 11  4  0        0
M  END
$$$$

CDXL12

 10 10  0  0  0  0  0  0  0  0999 V2000
    1.0717    1.2375    0.0000 O   0  0  0  0  0  0  0  2  0  0  0  0
    1.0717    0.4125    0.0000 C   0  0  0  0  0  0  0  2  0  0  0  0
    1.7862   -0.0000    0.0000 O   0  0  0  0  0  0  0  2  0  0  0  0
    0.3572   -0.0000    0.0000 C   0  0  0  0  0  0  0  2  0  0  0  0
   -0.3572    0.4125    0.0000 C   0  0  0  0  0  0  0  2  0  0  0  0
   -1.0717   -0.0000    0.0000 C   0  0  0  0  0  0  0  2  0  0  0  0
   -1.0717   -0.8250    0.0000 C   0  0  0  0  0  0  0  2  0  0  0  0
   -0.3572   -1.2375    0.0000 C   0  0  0  0  0  0  0  2  0  0  0  0
    0.3572   -0.8250    0.0000 C   0  0  0  0  0  0  0  2  0  0  0  0
   -1.7862   -1.2375    0.0000 I   0  0  0  0  0  0  0  2  0  0  0  0
  1  2  2  0        0
  2  3  1  0        0
  2  4  1  0        0
  4  5  4  0        0
  5  6  4  0        0
  6  7  4  0        0
  7  8  4  0        0
  8  9  4  0        0
  4  9  4  0        0
  7 10  1  0        0
M  END
$$$$

CDXL12

 12 12  0  0  0  0  0  0  0  0999 V2000
    2.1434    0.4125    0.0000 O   0  0  0  0  0  0  0  2  0  0  0  0
    1.4289    0.8250    0.0000 C   0  0  0  0  0  0  0  2  0  0  0  0
    1.4289    1.6500    0.0000 O   0  0  0  0  0  0  0  2  0  0  0  0
    0.7145    0.4125    0.0000 C   0  0  0  0  0  0  0  2  0  0  0  0
    0.0000    0.8250    0.0000 C   0  0  0  0  0  0  0  2  0  0  0  0
   -0.7145    0.4125    0.0000 C   0  0  0  0  0  0  0  2  0  0  0  0
   -0.7145   -0.4125    0.0000 C   0  0  0  0  0  0  0  2  0  0  0  0
   -1.4289   -0.8250    0.0000 N   0  0  0  0  0  0  0  2  0  0  0  0
   -1.4289   -1.6500    0.0000 C   0  0  0  0  0  0  0  2  0  0  0  0
   -2.1434   -0.4125    0.0000 C   0  0  0  0  0  0  0  2  0  0  0  0
    0.0000   -0.8250    0.0000 C   0  0  0  0  0  0  0  2  0  0  0  0
    0.7145   -0.4125    0.0000 C   0  0  0  0  0  0  0  2  0  0  0  0
  1  2  1  0        0
  2  3  2  0        0
  2  4  1  0        0
  4  5  4  0        0
  5  6  4  0        0
  6  7  4  0        0
  7  8  1  0        0
  8  9  1  0        0
  8 10  1  0        0
  7 11  4  0        0
 11 12  4  0        0
  4 12  4  0        0
M  END
$$$$

CDXL12

  9  8  0  0  0  0  0  0  0  0999 V2000
   -0.7145    0.8250    0.0000 O   0  0  0  0  0  0  0  2  0  0  0  0
    0.0000    0.4125    0.0000 N   0  0  0  0  0  0  0  2  0  0  0  0
    0.0000   -0.4125    0.0000 N   0  0  0  0  0  0  0  2  0  0  0  0
   -0.7145   -0.8250    0.0000 C   0  0  0  0  0  0  0  2  0  0  0  0
   -1.4289   -0.4125    0.0000 C   0  0  0  0  0  0  0  2  0  0  0  0
   -2.1434   -0.8250    0.0000 C   0  0  0  0  0  0  0  2  0  0  0  0
    0.7145   -0.8250    0.0000 C   0  0  0  0  0  0  0  2  0  0  0  0
    1.4289   -0.4125    0.0000 C   0  0  0  0  0  0  0  2  0  0  0  0
    2.1434   -0.8250    0.0000 C   0  0  0  0  0  0  0  2  0  0  0  0
  1  2  2  0        0
  2  3  1  0        0
  3  4  1  0        0
  4  5  1  0        0
  5  6  1  0        0
  3  7  1  0        0
  7  8  1  0        0
  8  9  1  0        0
M  END
$$$$

CDXL12

 27 26  0  0  0  0  0  0  0  0999 V2000
    2.1434   -1.6500    0.0000 O   0  0  0  0  0  0  0  2  0  0  0  0
    2.1434   -0.8250    0.0000 C   0  0  0  0  0  0  0  2  0  0  0  0
    1.4289   -0.4125    0.0000 O   0  0  0  0  0  0  0  2  0  0  0  0
    0.7145   -0.8250    0.0000 C   0  0  0  0  0  0  0  2  0  0  0  0
    0.0000   -0.4125    0.0000 C   0  0  0  0  0  0  0  2  0  0  0  0
    0.0000    0.4125    0.0000 O   0  0  0  0  0  0  0  2  0  0  0  0
   -0.7145    0.8250    0.0000 C   0  0  0  0  0  0  0  2  0  0  0  0
   -0.7145    1.6500    0.0000 O   0  0  0  0  0  0  0  2  0  0  0  0
   -1.4289    0.4125    0.0000 C   0  0  0  0  0  0  0  2  0  0  0  0
   -2.1434    0.8250    0.0000 C   0  0  0  0  0  0  0  2  0  0  0  0
   -2.8579    0.4125    0.0000 C   0  0  0  0  0  0  0  2  0  0  0  0
   -3.5724    0.8250    0.0000 C   0  0  0  0  0  0  0  2  0  0  0  0
   -4.2868    0.4125    0.0000 C   0  0  0  0  0  0  0  2  0  0  0  0
   -0.7145   -0.8250    0.0000 C   0  0  0  0  0  0  0  2  0  0  0  0
   -1.4289   -0.4125    0.0000 O   0  0  0  0  0  0  0  2  0  0  0  0
   -2.1434   -0.8250    0.0000 C   0  0  0  0  0  0  0  2  0  0  0  0
   -2.1434   -1.6500    0.0000 O   0  0  0  0  0  0  0  2  0  0  0  0
   -2.8579   -0.4125    0.0000 C   0  0  0  0  0  0  0  2  0  0  0  0
   -3.5724   -0.8250    0.0000 C   0  0  0  0  0  0  0  2  0  0  0  0
   -4.2868   -0.4125    0.0000 C   0  0  0  0  0  0  0  2  0  0  0  0
   -5.0013   -0.8250    0.0000 C   0  0  0  0  0  0  0  2  0  0  0  0
   -5.7158   -0.4125    0.0000 C   0  0  0  0  0  0  0  2  0  0  0  0
    2.8579   -0.4125    0.0000 C   0  0  0  0  0  0  0  2  0  0  0  0
    3.5724   -0.8250    0.0000 C   0  0  0  0  0  0  0  2  0  0  0  0
    4.2868   -0.4125    0.0000 C   0  0  0  0  0  0  0  2  0  0  0  0
    5.0013   -0.8250    0.0000 C   0  0  0  0  0  0  0  2  0  0  0  0
    5.7158   -0.4125    0.0000 C   0  0  0  0  0  0  0  2  0  0  0  0
  1  2  2  0        0
  2  3  1  0        0
  3  4  1  0        0
  4  5  1  0        0
  5  6  1  0        0
  6  7  1  0        0
  7  8  2  0        0
  7  9  1  0        0
  9 10  1  0        0
 10 11  1  0        0
 11 12  1  0        0
 12 13  1  0        0
  5 14  1  0        0
 14 15  1  0        0
 15 16  1  0        0
 16 17  2  0        0
 16 18  1  0        0
 18 19  1  0        0
 19 20  1  0        0
 20 21  1  0        0
 21 22  1  0        0
  2 23  1  0        0
 23 24  1  0        0
 24 25  1  0        0
 25 26  1  0        0
 26 27  1  0        0
M  END
$$$$

CDXL12

 11 11  0  0  0  0  0  0  0  0999 V2000
    1.4289    1.2375    0.0000 O   0  0  0  0  0  0  0  2  0  0  0  0
    1.4289    0.4125    0.0000 C   0  0  0  0  0  0  0  2  0  0  0  0
    2.1434    0.0000    0.0000 O   0  0  0  0  0  0  0  2  0  0  0  0
    0.7145    0.0000    0.0000 C   0  0  0  0  0  0  0  2  0  0  0  0
    0.0000    0.4125    0.0000 C   0  0  0  0  0  0  0  2  0  0  0  0
   -0.7145    0.0000    0.0000 C   0  0  0  0  0  0  0  2  0  0  0  0
   -0.7145   -0.8250    0.0000 C   0  0  0  0  0  0  0  2  0  0  0  0
   -1.4289   -1.2375    0.0000 C   0  0  0  0  0  0  0  2  0  0  0  0
   -2.1434   -0.8250    0.0000 C   0  0  0  0  0  0  0  2  0  0  0  0
   -2.1434   -0.0000    0.0000 C   0  0  0  0  0  0  0  2  0  0  0  0
   -1.4289    0.4125    0.0000 C   0  0  0  0  0  0  0  2  0  0  0  0
  1  2  2  0        0
  2  3  1  0        0
  2  4  1  0        0
  4  5  2  0        0
  5  6  1  0        0
  6  7  4  0        0
  7  8  4  0        0
  8  9  4  0        0
  9 10  4  0        0
 10 11  4  0        0
  6 11  4  0        0
M  END
$$$$

CDXL12

 11 11  0  0  0  0  0  0  0  0999 V2000
   -2.1434    0.0000    0.0000 N   0  0  0  0  0  0  0  2  0  0  0  0
   -1.4289    0.4125    0.0000 C   0  0  0  0  0  0  0  2  0  0  0  0
   -1.4289    1.2375    0.0000 O   0  0  0  0  0  0  0  2  0  0  0  0
   -0.7145    0.0000    0.0000 O   0  0  0  0  0  0  0  2  0  0  0  0
    0.0000    0.4125    0.0000 C   0  0  0  0  0  0  0  2  0  0  0  0
    0.7145    0.0000    0.0000 C   0  0  0  0  0  0  0  2  0  0  0  0
    1.4289    0.4125    0.0000 C   0  0  0  0  0  0  0  2  0  0  0  0
    2.1434   -0.0000    0.0000 C   0  0  0  0  0  0  0  2  0  0  0  0
    2.1434   -0.8250    0.0000 C   0  0  0  0  0  0  0  2  0  0  0  0
    1.4289   -1.2375    0.0000 C   0  0  0  0  0  0  0  2  0  0  0  0
    0.7145   -0.8250    0.0000 C   0  0  0  0  0  0  0  2  0  0  0  0
  1  2  1  0        0
  2  3  2  0        0
  2  4  1  0        0
  4  5  1  0        0
  5  6  1  0        0
  6  7  4  0        0
  7  8  4  0        0
  8  9  4  0        0
  9 10  4  0        0
 10 11  4  0        0
  6 11  4  0        0
M  END
$$$$

CDXL12

 10 10  0  0  0  0  0  0  0  0999 V2000
    0.7145   -0.2062    0.0000 N   0  0  0  0  0  0  0  2  0  0  0  0
    1.4289   -0.6188    0.0000 C   0  0  0  0  0  0  0  2  0  0  0  0
    2.1434   -1.0313    0.0000 S   0  0  0  0  0  0  0  2  0  0  0  0
    0.0000   -0.6188    0.0000 C   0  0  0  0  0  0  0  2  0  0  0  0
   -0.7145   -0.2063    0.0000 C   0  0  0  0  0  0  0  2  0  0  0  0
   -1.4289   -0.6188    0.0000 C   0  0  0  0  0  0  0  2  0  0  0  0
   -2.1434   -0.2062    0.0000 C   0  0  0  0  0  0  0  2  0  0  0  0
   -2.1434    0.6188    0.0000 C   0  0  0  0  0  0  0  2  0  0  0  0
   -1.4289    1.0313    0.0000 C   0  0  0  0  0  0  0  2  0  0  0  0
   -0.7145    0.6188    0.0000 C   0  0  0  0  0  0  0  2  0  0  0  0
  1  2  2  0        0
  2  3  2  0        0
  1  4  1  0        0
  4  5  1  0        0
  5  6  4  0        0
  6  7  4  0        0
  7  8  4  0        0
  8  9  4  0        0
  9 10  4  0        0
  5 10  4  0        0
M  END
$$$$

CDXL12

  9  9  0  0  0  0  0  0  0  0999 V2000
    0.3572   -0.4125    0.0000 C   0  0  0  0  0  0  0  2  0  0  0  0
   -0.3572   -0.8250    0.0000 C   0  0  0  0  0  0  0  2  0  0  0  0
   -1.0717   -0.4125    0.0000 C   0  0  0  0  0  0  0  2  0  0  0  0
   -1.0717    0.4125    0.0000 C   0  0  0  0  0  0  0  2  0  0  0  0
   -0.3572    0.8250    0.0000 C   0  0  0  0  0  0  0  2  0  0  0  0
    0.3572    0.4125    0.0000 C   0  0  0  0  0  0  0  2  0  0  0  0
   -1.7862    0.8250    0.0000 C   0  0  0  0  0  0  0  2  0  0  0  0
    1.0717   -0.8250    0.0000 C   0  0  0  0  0  0  0  2  0  0  0  0
    1.7862   -0.4125    0.0000 C   0  0  0  0  0  0  0  2  0  0  0  0
  1  2  4  0        0
  2  3  4  0        0
  3  4  4  0        0
  4  5  4  0        0
  5  6  4  0        0
  1  6  4  0        0
  4  7  1  0        0
  1  8  1  0        0
  8  9  1  0        0
M  END
$$$$

CDXL12

  7  6  0  0  0  0  0  0  0  0999 V2000
    0.3572    0.6187    0.0000 O   0  0  0  0  0  0  0  2  0  0  0  0
    0.3572   -0.2062    0.0000 C   0  0  0  0  0  0  0  2  0  0  0  0
   -0.3572   -0.6187    0.0000 C   0  0  0  0  0  0  0  2  0  0  0  0
   -1.0717   -0.2062    0.0000 C   0  0  0  0  0  0  0  2  0  0  0  0
   -1.7862   -0.6187    0.0000 C   0  0  0  0  0  0  0  2  0  0  0  0
    1.0717   -0.6187    0.0000 C   0  0  0  0  0  0  0  2  0  0  0  0
    1.7862   -0.2062    0.0000 C   0  0  0  0  0  0  0  2  0  0  0  0
  1  2  1  0        0
  2  3  1  0        0
  3  4  1  0        0
  4  5  1  0        0
  2  6  1  0        0
  6  7  1  0        0
M  END
$$$$

CDXL12

  7  6  0  0  0  0  0  0  0  0999 V2000
    0.3572    0.6187    0.0000 O   0  0  0  0  0  0  0  2  0  0  0  0
    0.3572   -0.2062    0.0000 C   0  0  0  0  0  0  0  2  0  0  0  0
    1.0717   -0.6187    0.0000 O   0  0  0  0  0  0  0  2  0  0  0  0
    1.7862   -0.2062    0.0000 C   0  0  0  0  0  0  0  2  0  0  0  0
   -0.3572   -0.6187    0.0000 C   0  0  0  0  0  0  0  2  0  0  0  0
   -1.0717   -0.2062    0.0000 C   0  0  0  0  0  0  0  2  0  0  0  0
   -1.7862   -0.6187    0.0000 C   0  0  0  0  0  0  0  2  0  0  0  0
  1  2  2  0        0
  2  3  1  0        0
  3  4  1  0        0
  2  5  1  0        0
  5  6  1  0        0
  6  7  1  0        0
M  END
$$$$

CDXL12

  8  7  0  0  0  0  0  0  0  0999 V2000
    0.3572    0.6187    0.0000 O   0  0  0  0  0  0  0  2  0  0  0  0
    0.3572   -0.2062    0.0000 C   0  0  0  0  0  0  0  2  0  0  0  0
   -0.3572   -0.6187    0.0000 N   0  0  0  0  0  0  0  2  0  0  0  0
   -1.0717   -0.2062    0.0000 C   0  0  0  0  0  0  0  2  0  0  0  0
   -1.0717    0.6187    0.0000 O   0  0  0  0  0  0  0  2  0  0  0  0
   -1.7862   -0.6187    0.0000 C   0  0  0  0  0  0  0  2  0  0  0  0
    1.0717   -0.6187    0.0000 N   0  0  0  0  0  0  0  2  0  0  0  0
    1.7862   -0.2062    0.0000 C   0  0  0  0  0  0  0  2  0  0  0  0
  1  2  2  0        0
  2  3  1  0        0
  3  4  1  0        0
  4  5  2  0        0
  4  6  1  0        0
  2  7  1  0        0
  7  8  1  0        0
M  END
$$$$

CDXL12

  8  7  0  0  0  0  0  0  0  0999 V2000
    0.0000    0.6188    0.0000 O   0  0  0  0  0  0  0  2  0  0  0  0
    0.0000   -0.2062    0.0000 C   0  0  0  0  0  0  0  2  0  0  0  0
    0.7145   -0.6187    0.0000 O   0  0  0  0  0  0  0  2  0  0  0  0
    1.4289   -0.2062    0.0000 C   0  0  0  0  0  0  0  2  0  0  0  0
    2.1434   -0.6187    0.0000 C   0  0  0  0  0  0  0  2  0  0  0  0
   -0.7145   -0.6188    0.0000 N   0  0  0  0  0  0  0  2  0  0  0  0
   -1.4289   -0.2062    0.0000 C   0  0  0  0  0  0  0  2  0  0  0  0
   -2.1434   -0.6187    0.0000 C   0  0  0  0  0  0  0  2  0  0  0  0
  1  2  2  0        0
  2  3  1  0        0
  3  4  1  0        0
  4  5  1  0        0
  2  6  1  0        0
  6  7  1  0        0
  7  8  1  0        0
M  END
$$$$

CDXL12

 10  9  0  0  0  0  0  0  0  0999 V2000
    2.8579   -0.2062    0.0000 C   0  0  0  0  0  0  0  2  0  0  0  0
    2.1434   -0.6188    0.0000 C   0  0  0  0  0  0  0  2  0  0  0  0
    1.4289   -0.2062    0.0000 C   0  0  0  0  0  0  0  2  0  0  0  0
    0.7145   -0.6188    0.0000 C   0  0  0  0  0  0  0  2  0  0  0  0
    0.0000   -0.2062    0.0000 C   0  0  0  0  0  0  0  2  0  0  0  0
    0.0000    0.6188    0.0000 O   0  0  0  0  0  0  0  2  0  0  0  0
   -0.7145   -0.6187    0.0000 C   0  0  0  0  0  0  0  2  0  0  0  0
   -1.4289   -0.2062    0.0000 C   0  0  0  0  0  0  0  2  0  0  0  0
   -2.1434   -0.6187    0.0000 C   0  0  0  0  0  0  0  2  0  0  0  0
   -2.8579   -0.2062    0.0000 C   0  0  0  0  0  0  0  2  0  0  0  0
  1  2  1  0        0
  2  3  1  0        0
  3  4  1  0        0
  4  5  1  0        0
  5  6  1  0        0
  5  7  1  0        0
  7  8  1  0        0
  8  9  1  0        0
  9 10  1  0        0
M  END
$$$$

CDXL12

 17 16  0  0  0  0  0  0  0  0999 V2000
   -2.8579    0.6187    0.0000 O   0  0  0  0  0  0  0  2  0  0  0  0
   -2.8579   -0.2062    0.0000 C   0  0  0  0  0  0  0  2  0  0  0  0
   -3.5724   -0.6187    0.0000 O   0  0  0  0  0  0  0  2  0  0  0  0
   -4.2868   -0.2062    0.0000 C   0  0  0  0  0  0  0  2  0  0  0  0
   -5.0013   -0.6187    0.0000 C   0  0  0  0  0  0  0  2  0  0  0  0
   -2.1434   -0.6187    0.0000 C   0  0  0  0  0  0  0  2  0  0  0  0
   -1.4289   -0.2062    0.0000 C   0  0  0  0  0  0  0  2  0  0  0  0
   -0.7145   -0.6187    0.0000 C   0  0  0  0  0  0  0  2  0  0  0  0
    0.0000   -0.2062    0.0000 C   0  0  0  0  0  0  0  2  0  0  0  0
    0.7145   -0.6187    0.0000 C   0  0  0  0  0  0  0  2  0  0  0  0
    1.4289   -0.2062    0.0000 C   0  0  0  0  0  0  0  2  0  0  0  0
    2.1434   -0.6187    0.0000 C   0  0  0  0  0  0  0  2  0  0  0  0
    2.8579   -0.2062    0.0000 C   0  0  0  0  0  0  0  2  0  0  0  0
    2.8579    0.6187    0.0000 O   0  0  0  0  0  0  0  2  0  0  0  0
    3.5724   -0.6187    0.0000 O   0  0  0  0  0  0  0  2  0  0  0  0
    4.2868   -0.2062    0.0000 C   0  0  0  0  0  0  0  2  0  0  0  0
    5.0013   -0.6187    0.0000 C   0  0  0  0  0  0  0  2  0  0  0  0
  1  2  2  0        0
  2  3  1  0        0
  3  4  1  0        0
  4  5  1  0        0
  2  6  1  0        0
  6  7  1  0        0
  7  8  1  0        0
  8  9  1  0        0
  9 10  1  0        0
 10 11  1  0        0
 11 12  1  0        0
 12 13  1  0        0
 13 14  2  0        0
 13 15  1  0        0
 15 16  1  0        0
 16 17  1  0        0
M  END
$$$$

CDXL12

  8  7  0  0  0  0  0  0  0  0999 V2000
    0.7145    0.6187    0.0000 O   0  0  0  0  0  0  0  2  0  0  0  0
    0.7145   -0.2062    0.0000 C   0  0  0  0  0  0  0  2  0  0  0  0
    1.4289   -0.6187    0.0000 O   0  0  0  0  0  0  0  2  0  0  0  0
    2.1434   -0.2062    0.0000 C   0  0  0  0  0  0  0  2  0  0  0  0
    0.0000   -0.6187    0.0000 C   0  0  0  0  0  0  0  2  0  0  0  0
   -0.7145   -0.2062    0.0000 C   0  0  0  0  0  0  0  2  0  0  0  0
   -1.4289   -0.6187    0.0000 C   0  0  0  0  0  0  0  2  0  0  0  0
   -2.1434   -0.2062    0.0000 C   0  0  0  0  0  0  0  2  0  0  0  0
  1  2  2  0        0
  2  3  1  0        0
  3  4  1  0        0
  2  5  1  0        0
  5  6  1  0        0
  6  7  1  0        0
  7  8  1  0        0
M  END
$$$$

CDXL12

  8  8  0  0  0  0  0  0  0  0999 V2000
    0.7145    0.4125    0.0000 C   0  0  0  0  0  0  0  2  0  0  0  0
    0.7145   -0.4125    0.0000 C   0  0  0  0  0  0  0  2  0  0  0  0
    0.0000   -0.8250    0.0000 C   0  0  0  0  0  0  0  2  0  0  0  0
   -0.7145   -0.4125    0.0000 C   0  0  0  0  0  0  0  2  0  0  0  0
   -0.7145    0.4125    0.0000 C   0  0  0  0  0  0  0  2  0  0  0  0
    0.0000    0.8250    0.0000 C   0  0  0  0  0  0  0  2  0  0  0  0
   -1.4289   -0.8250    0.0000 I   0  0  0  0  0  0  0  2  0  0  0  0
    1.4289    0.8250    0.0000 I   0  0  0  0  0  0  0  2  0  0  0  0
  1  2  4  0        0
  2  3  4  0        0
  3  4  4  0        0
  4  5  4  0        0
  5  6  4  0        0
  1  6  4  0        0
  4  7  1  0        0
  1  8  1  0        0
M  END
$$$$

CDXL12

 10  9  0  0  0  0  0  0  0  0999 V2000
   -1.0717   -1.0312    0.0000 O   0  0  0  0  0  0  0  2  0  0  0  0
   -1.0717   -0.2062    0.0000 C   0  0  0  0  0  0  0  2  0  0  0  0
   -1.7862    0.2062    0.0000 O   0  0  0  0  0  0  0  2  0  0  0  0
   -2.5006   -0.2062    0.0000 C   0  0  0  0  0  0  0  2  0  0  0  0
   -0.3572    0.2063    0.0000 C   0  0  0  0  0  0  0  2  0  0  0  0
    0.3572   -0.2062    0.0000 C   0  0  0  0  0  0  0  2  0  0  0  0
    1.0717    0.2062    0.0000 C   0  0  0  0  0  0  0  2  0  0  0  0
    1.0717    1.0312    0.0000 O   0  0  0  0  0  0  0  2  0  0  0  0
    1.7862   -0.2062    0.0000 O   0  0  0  0  0  0  0  2  0  0  0  0
    2.5006    0.2062    0.0000 C   0  0  0  0  0  0  0  2  0  0  0  0
  1  2  2  0        0
  2  3  1  0        0
  3  4  1  0        0
  2  5  1  0        0
  5  6  2  0        0
  6  7  1  0        0
  7  8  2  0        0
  7  9  1  0        0
  9 10  1  0        0
M  END
$$$$

CDXL12

 10  9  0  0  0  0  0  0  0  0999 V2000
   -1.4289    0.6187    0.0000 O   0  0  0  0  0  0  0  2  0  0  0  0
   -1.4289   -0.2062    0.0000 C   0  0  0  0  0  0  0  2  0  0  0  0
   -0.7145   -0.6187    0.0000 C   0  0  0  0  0  0  0  2  0  0  0  0
    0.0000   -0.2062    0.0000 C   0  0  0  0  0  0  0  2  0  0  0  0
    0.7145   -0.6187    0.0000 C   0  0  0  0  0  0  0  2  0  0  0  0
    1.4289   -0.2062    0.0000 C   0  0  0  0  0  0  0  2  0  0  0  0
    2.1434   -0.6187    0.0000 C   0  0  0  0  0  0  0  2  0  0  0  0
    2.8579   -0.2062    0.0000 C   0  0  0  0  0  0  0  2  0  0  0  0
   -2.1434   -0.6187    0.0000 C   0  0  0  0  0  0  0  2  0  0  0  0
   -2.8579   -0.2062    0.0000 C   0  0  0  0  0  0  0  2  0  0  0  0
  1  2  1  0        0
  2  3  1  0        0
  3  4  1  0        0
  4  5  1  0        0
  5  6  1  0        0
  6  7  1  0        0
  7  8  1  0        0
  2  9  1  0        0
  9 10  1  0        0
M  END
$$$$

CDXL12

  4  3  0  0  0  0  0  0  0  0999 V2000
   -0.3572   -0.2062    0.0000 C   0  0  0  0  0  0  0  2  0  0  0  0
    0.3572    0.2062    0.0000 C   0  0  0  0  0  0  0  2  0  0  0  0
    1.0717   -0.2062    0.0000 C   0  0  0  0  0  0  0  2  0  0  0  0
   -1.0717    0.2062    0.0000 C   0  0  0  0  0  0  0  2  0  0  0  0
  1  2  2  0        0
  2  3  1  0        0
  1  4  1  0        0
M  END
$$$$

CDXL12

  7  6  0  0  0  0  0  0  0  0999 V2000
   -1.4289   -0.6188    0.0000 O   0  0  0  0  0  0  0  2  0  0  0  0
   -0.7145   -0.2063    0.0000 C   0  0  0  0  0  0  0  2  0  0  0  0
    0.0000   -0.6188    0.0000 C   0  0  0  0  0  0  0  2  0  0  0  0
    0.7145   -0.2062    0.0000 C   0  0  0  0  0  0  0  2  0  0  0  0
    0.7145    0.6188    0.0000 C   0  0  0  0  0  0  0  2  0  0  0  0
    1.4289    0.2062    0.0000 C   0  0  0  0  0  0  0  2  0  0  0  0
    1.4289   -0.6188    0.0000 C   0  0  0  0  0  0  0  2  0  0  0  0
  1  2  1  0        0
  2  3  1  0        0
  3  4  1  0        0
  4  5  1  0        0
  4  6  1  0        0
  4  7  1  0        0
M  END
$$$$

CDXL12

  8  7  0  0  0  0  0  0  0  0999 V2000
    0.7145    0.6188    0.0000 C   0  0  0  0  0  0  0  2  0  0  0  0
    0.7145   -0.2062    0.0000 C   0  0  0  0  0  0  0  2  0  0  0  0
    1.4289    0.2062    0.0000 O   0  0  0  0  0  0  0  2  0  0  0  0
    1.4289   -0.6188    0.0000 C   0  0  0  0  0  0  0  2  0  0  0  0
    0.0000   -0.6188    0.0000 C   0  0  0  0  0  0  0  2  0  0  0  0
   -0.7145   -0.2063    0.0000 C   0  0  0  0  0  0  0  2  0  0  0  0
   -1.4289   -0.6188    0.0000 C   0  0  0  0  0  0  0  2  0  0  0  0
   -0.7145    0.6188    0.0000 C   0  0  0  0  0  0  0  2  0  0  0  0
  1  2  1  0        0
  2  3  1  0        0
  2  4  1  0        0
  2  5  1  0        0
  5  6  1  0        0
  6  7  1  0        0
  6  8  1  0        0
M  END
$$$$

CDXL12

  8  7  0  0  0  0  0  0  0  0999 V2000
    1.7862   -0.2063    0.0000 C   0  0  0  0  0  0  0  2  0  0  0  0
    1.0717   -0.6188    0.0000 C   0  0  0  0  0  0  0  2  0  0  0  0
    0.3572   -0.2062    0.0000 C   0  0  0  0  0  0  0  2  0  0  0  0
   -0.3572   -0.6188    0.0000 C   0  0  0  0  0  0  0  2  0  0  0  0
   -1.0717   -0.2063    0.0000 C   0  0  0  0  0  0  0  2  0  0  0  0
   -1.7862   -0.6188    0.0000 C   0  0  0  0  0  0  0  2  0  0  0  0
   -1.0717    0.6188    0.0000 C   0  0  0  0  0  0  0  2  0  0  0  0
   -1.7862    0.2062    0.0000 O   0  0  0  0  0  0  0  2  0  0  0  0
  1  2  1  0        0
  2  3  1  0        0
  3  4  1  0        0
  4  5  1  0        0
  5  6  1  0        0
  5  7  1  0        0
  5  8  1  0        0
M  END
$$$$

CDXL12

  9  8  0  0  0  0  0  0  0  0999 V2000
    1.4289    0.6188    0.0000 C   0  0  0  0  0  0  0  2  0  0  0  0
    1.4289   -0.2062    0.0000 C   0  0  0  0  0  0  0  2  0  0  0  0
    2.1434    0.2062    0.0000 O   0  0  0  0  0  0  0  2  0  0  0  0
    2.1434   -0.6188    0.0000 C   0  0  0  0  0  0  0  2  0  0  0  0
    0.7145   -0.6188    0.0000 C   0  0  0  0  0  0  0  2  0  0  0  0
    0.0000   -0.2063    0.0000 C   0  0  0  0  0  0  0  2  0  0  0  0
   -0.7145   -0.6188    0.0000 C   0  0  0  0  0  0  0  2  0  0  0  0
   -1.4289   -0.2063    0.0000 C   0  0  0  0  0  0  0  2  0  0  0  0
   -2.1434   -0.6188    0.0000 C   0  0  0  0  0  0  0  2  0  0  0  0
  1  2  1  0        0
  2  3  1  0        0
  2  4  1  0        0
  2  5  1  0        0
  5  6  1  0        0
  6  7  1  0        0
  7  8  1  0        0
  8  9  1  0        0
M  END
$$$$

CDXL12

  6  5  0  0  0  0  0  0  0  0999 V2000
    0.7145   -0.2062    0.0000 C   0  0  0  0  0  0  0  2  0  0  0  0
    0.7145    0.6187    0.0000 Cl  0  0  0  0  0  0  0  2  0  0  0  0
    0.0000   -0.6187    0.0000 C   0  0  0  0  0  0  0  2  0  0  0  0
   -0.7145   -0.2062    0.0000 C   0  0  0  0  0  0  0  2  0  0  0  0
   -1.4289   -0.6187    0.0000 C   0  0  0  0  0  0  0  2  0  0  0  0
    1.4289   -0.6187    0.0000 C   0  0  0  0  0  0  0  2  0  0  0  0
  1  2  1  0        0
  1  3  1  0        0
  3  4  1  0        0
  4  5  1  0        0
  1  6  1  0        0
M  END
$$$$

CDXL12

  6  5  0  0  0  0  0  0  0  0999 V2000
   -1.4289   -0.6187    0.0000 O   0  0  0  0  0  0  0  2  0  0  0  0
   -0.7145   -0.2062    0.0000 C   0  0  0  0  0  0  0  2  0  0  0  0
    0.0000   -0.6187    0.0000 O   0  0  0  0  0  0  0  2  0  0  0  0
    0.7145   -0.2062    0.0000 C   0  0  0  0  0  0  0  2  0  0  0  0
    0.7145    0.6187    0.0000 C   0  0  0  0  0  0  0  2  0  0  0  0
    1.4289   -0.6187    0.0000 C   0  0  0  0  0  0  0  2  0  0  0  0
  1  2  2  0        0
  2  3  1  0        0
  3  4  1  0        0
  4  5  1  0        0
  4  6  1  0        0
M  END
$$$$

CDXL12

  6  5  0  0  0  0  0  0  0  0999 V2000
    1.4289   -0.6187    0.0000 C   0  0  0  0  0  0  0  2  0  0  0  0
    0.7145   -0.2062    0.0000 C   0  0  0  0  0  0  0  2  0  0  0  0
    0.0000   -0.6188    0.0000 O   0  0  0  0  0  0  0  2  0  0  0  0
   -0.7145   -0.2062    0.0000 N   0  0  0  0  0  0  0  2  0  0  0  0
   -0.7145    0.6188    0.0000 O   0  0  0  0  0  0  0  2  0  0  0  0
   -1.4289   -0.6188    0.0000 O   0  0  0  0  0  0  0  2  0  0  0  0
  1  2  1  0        0
  2  3  1  0        0
  3  4  1  0        0
  4  5  2  0        0
  4  6  2  0        0
M  END
$$$$

CDXL12

  8  8  0  0  0  0  0  0  0  0999 V2000
    0.7145    0.4125    0.0000 C   0  0  0  0  0  0  0  2  0  0  0  0
    0.7145   -0.4125    0.0000 C   0  0  0  0  0  0  0  2  0  0  0  0
    0.0000   -0.8250    0.0000 C   0  0  0  0  0  0  0  2  0  0  0  0
   -0.7145   -0.4125    0.0000 C   0  0  0  0  0  0  0  2  0  0  0  0
   -0.7145    0.4125    0.0000 C   0  0  0  0  0  0  0  2  0  0  0  0
   -1.4289    0.8250    0.0000 Cl  0  0  0  0  0  0  0  2  0  0  0  0
    0.0000    0.8250    0.0000 C   0  0  0  0  0  0  0  2  0  0  0  0
    1.4289    0.8250    0.0000 I   0  0  0  0  0  0  0  2  0  0  0  0
  1  2  4  0        0
  2  3  4  0        0
  3  4  4  0        0
  4  5  4  0        0
  5  6  1  0        0
  5  7  4  0        0
  1  7  4  0        0
  1  8  1  0        0
M  END
$$$$

CDXL12

  8  8  0  0  0  0  0  0  0  0999 V2000
    0.7145    0.4125    0.0000 C   0  0  0  0  0  0  0  2  0  0  0  0
    0.7145   -0.4125    0.0000 C   0  0  0  0  0  0  0  2  0  0  0  0
    0.0000   -0.8250    0.0000 C   0  0  0  0  0  0  0  2  0  0  0  0
   -0.7145   -0.4125    0.0000 C   0  0  0  0  0  0  0  2  0  0  0  0
   -0.7145    0.4125    0.0000 C   0  0  0  0  0  0  0  2  0  0  0  0
   -1.4289    0.8250    0.0000 I   0  0  0  0  0  0  0  2  0  0  0  0
    0.0000    0.8250    0.0000 C   0  0  0  0  0  0  0  2  0  0  0  0
    1.4289    0.8250    0.0000 I   0  0  0  0  0  0  0  2  0  0  0  0
  1  2  4  0        0
  2  3  4  0        0
  3  4  4  0        0
  4  5  4  0        0
  5  6  1  0        0
  5  7  4  0        0
  1  7  4  0        0
  1  8  1  0        0
M  END
$$$$

CDXL12

  9  9  0  0  0  0  0  0  0  0999 V2000
    0.7145    0.8250    0.0000 C   0  0  0  0  0  0  0  2  0  0  0  0
    0.7145   -0.0000    0.0000 C   0  0  0  0  0  0  0  2  0  0  0  0
    0.0000   -0.4125    0.0000 C   0  0  0  0  0  0  0  2  0  0  0  0
   -0.7145   -0.0000    0.0000 C   0  0  0  0  0  0  0  2  0  0  0  0
   -0.7145    0.8250    0.0000 C   0  0  0  0  0  0  0  2  0  0  0  0
   -1.4289    1.2375    0.0000 Br  0  0  0  0  0  0  0  2  0  0  0  0
    0.0000    1.2375    0.0000 C   0  0  0  0  0  0  0  2  0  0  0  0
    0.0000   -1.2375    0.0000 Br  0  0  0  0  0  0  0  2  0  0  0  0
    1.4289    1.2375    0.0000 Br  0  0  0  0  0  0  0  2  0  0  0  0
  1  2  4  0        0
  2  3  4  0        0
  3  4  4  0        0
  4  5  4  0        0
  5  6  1  0        0
  5  7  4  0        0
  1  7  4  0        0
  3  8  1  0        0
  1  9  1  0        0
M  END
$$$$

CDXL12

  7  7  0  0  0  0  0  0  0  0999 V2000
   -1.0717   -0.4125    0.0000 N   0  0  0  0  0  0  0  2  0  0  0  0
   -1.0717    0.4125    0.0000 C   0  0  0  0  0  0  0  2  0  0  0  0
   -0.3572    0.8250    0.0000 C   0  0  0  0  0  0  0  2  0  0  0  0
    0.3572    0.4125    0.0000 C   0  0  0  0  0  0  0  2  0  0  0  0
    1.0717    0.8250    0.0000 O   0  0  0  0  0  0  0  2  0  0  0  0
    0.3572   -0.4125    0.0000 C   0  0  0  0  0  0  0  2  0  0  0  0
   -0.3572   -0.8250    0.0000 C   0  0  0  0  0  0  0  2  0  0  0  0
  1  2  4  0        0
  2  3  4  0        0
  3  4  4  0        0
  4  5  1  0        0
  4  6  4  0        0
  6  7  4  0        0
  1  7  4  0        0
M  END
$$$$

CDXL12

  7  6  0  0  0  0  0  0  0  0999 V2000
    1.7862   -0.2062    0.0000 O   0  0  0  0  0  0  0  2  0  0  0  0
    1.0717   -0.6187    0.0000 C   0  0  0  0  0  0  0  2  0  0  0  0
    0.3572   -0.2062    0.0000 C   0  0  0  0  0  0  0  2  0  0  0  0
   -0.3572   -0.6187    0.0000 C   0  0  0  0  0  0  0  2  0  0  0  0
   -1.0717   -0.2062    0.0000 C   0  0  0  0  0  0  0  2  0  0  0  0
   -1.7862   -0.6187    0.0000 C   0  0  0  0  0  0  0  2  0  0  0  0
   -1.0717    0.6187    0.0000 C   0  0  0  0  0  0  0  2  0  0  0  0
  1  2  1  0        0
  2  3  1  0        0
  3  4  1  0        0
  4  5  1  0        0
  5  6  1  0        0
  5  7  1  0        0
M  END
$$$$

CDXL12

  7  6  0  0  0  0  0  0  0  0999 V2000
    1.0717    0.6187    0.0000 O   0  0  0  0  0  0  0  2  0  0  0  0
    1.0717   -0.2062    0.0000 C   0  0  0  0  0  0  0  2  0  0  0  0
    0.3572   -0.6187    0.0000 C   0  0  0  0  0  0  0  2  0  0  0  0
   -0.3572   -0.2062    0.0000 C   0  0  0  0  0  0  0  2  0  0  0  0
   -1.0717   -0.6187    0.0000 C   0  0  0  0  0  0  0  2  0  0  0  0
   -1.7862   -0.2062    0.0000 C   0  0  0  0  0  0  0  2  0  0  0  0
    1.7862   -0.6187    0.0000 C   0  0  0  0  0  0  0  2  0  0  0  0
  1  2  1  0        0
  2  3  1  0        0
  3  4  1  0        0
  4  5  1  0        0
  5  6  1  0        0
  2  7  1  0        0
M  END
$$$$

CDXL12

  7  6  0  0  0  0  0  0  0  0999 V2000
    1.0717    0.6187    0.0000 O   0  0  0  0  0  0  0  2  0  0  0  0
    1.0717   -0.2062    0.0000 C   0  0  0  0  0  0  0  2  0  0  0  0
    1.7862   -0.6187    0.0000 N   0  0  0  0  0  0  0  2  0  0  0  0
    0.3572   -0.6187    0.0000 C   0  0  0  0  0  0  0  2  0  0  0  0
   -0.3572   -0.2062    0.0000 C   0  0  0  0  0  0  0  2  0  0  0  0
   -1.0717   -0.6187    0.0000 C   0  0  0  0  0  0  0  2  0  0  0  0
   -1.7862   -0.2062    0.0000 C   0  0  0  0  0  0  0  2  0  0  0  0
  1  2  2  0        0
  2  3  1  0        0
  2  4  1  0        0
  4  5  1  0        0
  5  6  1  0        0
  6  7  1  0        0
M  END
$$$$

CDXL12

  7  6  0  0  0  0  0  0  0  0999 V2000
    1.7862   -0.2062    0.0000 C   0  0  0  0  0  0  0  2  0  0  0  0
    1.0717   -0.6187    0.0000 C   0  0  0  0  0  0  0  2  0  0  0  0
    0.3572   -0.2062    0.0000 C   0  0  0  0  0  0  0  2  0  0  0  0
   -0.3572   -0.6187    0.0000 C   0  0  0  0  0  0  0  2  0  0  0  0
   -1.0717   -0.2062    0.0000 N   0  0  0  0  0  0  0  2  0  0  0  0
   -1.7862   -0.6187    0.0000 O   0  0  0  0  0  0  0  2  0  0  0  0
   -1.0717    0.6187    0.0000 O   0  0  0  0  0  0  0  2  0  0  0  0
  1  2  1  0        0
  2  3  1  0        0
  3  4  1  0        0
  4  5  1  0        0
  5  6  2  0        0
  5  7  2  0        0
M  END
$$$$

CDXL12

  7  6  0  0  0  0  0  0  0  0999 V2000
   -1.0717    0.6187    0.0000 O   0  0  0  0  0  0  0  2  0  0  0  0
   -1.0717   -0.2062    0.0000 C   0  0  0  0  0  0  0  2  0  0  0  0
   -0.3572   -0.6187    0.0000 O   0  0  0  0  0  0  0  2  0  0  0  0
    0.3572   -0.2062    0.0000 C   0  0  0  0  0  0  0  2  0  0  0  0
    1.0717   -0.6187    0.0000 C   0  0  0  0  0  0  0  2  0  0  0  0
    1.7862   -0.2062    0.0000 C   0  0  0  0  0  0  0  2  0  0  0  0
   -1.7862   -0.6187    0.0000 N   0  0  0  0  0  0  0  2  0  0  0  0
  1  2  2  0        0
  2  3  1  0        0
  3  4  1  0        0
  4  5  1  0        0
  5  6  1  0        0
  2  7  1  0        0
M  END
$$$$

CDXL12

  5  4  0  0  0  0  0  0  0  0999 V2000
   -1.4289   -0.2062    0.0000 O   0  0  0  0  0  0  0  2  0  0  0  0
   -0.7145    0.2062    0.0000 C   0  0  0  0  0  0  0  2  0  0  0  0
    0.0000   -0.2062    0.0000 C   0  0  0  0  0  0  0  2  0  0  0  0
    0.7145    0.2062    0.0000 C   0  0  0  0  0  0  0  2  0  0  0  0
    1.4289   -0.2062    0.0000 Br  0  0  0  0  0  0  0  2  0  0  0  0
  1  2  1  0        0
  2  3  1  0        0
  3  4  1  0        0
  4  5  1  0        0
M  END
$$$$

CDXL12

  5  4  0  0  0  0  0  0  0  0999 V2000
    0.7145   -0.0000    0.0000 C   0  0  0  0  0  0  0  2  0  0  0  0
    1.4289   -0.4125    0.0000 C   0  0  0  0  0  0  0  2  0  0  0  0
    0.0000    0.4125    0.0000 C   0  0  0  0  0  0  0  2  0  0  0  0
   -0.7145   -0.0000    0.0000 C   0  0  0  0  0  0  0  2  0  0  0  0
   -1.4289    0.4125    0.0000 C   0  0  0  0  0  0  0  2  0  0  0  0
  1  2  3  0        0
  1  3  1  0        0
  3  4  1  0        0
  4  5  1  0        0
M  END
$$$$

CDXL12

  5  4  0  0  0  0  0  0  0  0999 V2000
    0.0000   -0.2062    0.0000 C   0  0  0  0  0  0  0  2  0  0  0  0
   -0.7145    0.2062    0.0000 C   0  0  0  0  0  0  0  2  0  0  0  0
   -1.4289   -0.2062    0.0000 C   0  0  0  0  0  0  0  2  0  0  0  0
    0.7145    0.2062    0.0000 C   0  0  0  0  0  0  0  2  0  0  0  0
    1.4289   -0.2062    0.0000 C   0  0  0  0  0  0  0  2  0  0  0  0
  1  2  2  0        0
  2  3  1  0        0
  1  4  1  0        0
  4  5  1  0        0
M  END
$$$$

CDXL12

  5  4  0  0  0  0  0  0  0  0999 V2000
   -1.4289   -0.2062    0.0000 O   0  0  0  0  0  0  0  2  0  0  0  0
   -0.7145    0.2062    0.0000 C   0  0  0  0  0  0  0  2  0  0  0  0
    0.0000   -0.2062    0.0000 C   0  0  0  0  0  0  0  2  0  0  0  0
    0.7145    0.2062    0.0000 C   0  0  0  0  0  0  0  2  0  0  0  0
    1.4289   -0.2062    0.0000 Cl  0  0  0  0  0  0  0  2  0  0  0  0
  1  2  1  0        0
  2  3  1  0        0
  3  4  1  0        0
  4  5  1  0        0
M  END
$$$$

CDXL12

  5  4  0  0  0  0  0  0  0  0999 V2000
   -1.4289   -0.2062    0.0000 C   0  0  0  0  0  0  0  2  0  0  0  0
   -0.7145    0.2062    0.0000 C   0  0  0  0  0  0  0  2  0  0  0  0
    0.0000   -0.2062    0.0000 S   0  0  0  0  0  0  0  2  0  0  0  0
    0.7145    0.2062    0.0000 C   0  0  0  0  0  0  0  2  0  0  0  0
    1.4289   -0.2062    0.0000 C   0  0  0  0  0  0  0  2  0  0  0  0
  1  2  2  0        0
  2  3  1  0        0
  3  4  1  0        0
  4  5  2  0        0
M  END
$$$$

CDXL12

 12 11  0  0  0  0  0  0  0  0999 V2000
   -1.7862   -1.0312    0.0000 O   0  0  0  0  0  0  0  2  0  0  0  0
   -1.7862   -0.2062    0.0000 C   0  0  0  0  0  0  0  2  0  0  0  0
   -2.5006    0.2062    0.0000 O   0  0  0  0  0  0  0  2  0  0  0  0
   -3.2151   -0.2062    0.0000 C   0  0  0  0  0  0  0  2  0  0  0  0
   -1.0717    0.2063    0.0000 C   0  0  0  0  0  0  0  2  0  0  0  0
   -0.3572   -0.2062    0.0000 C   0  0  0  0  0  0  0  2  0  0  0  0
    0.3572    0.2062    0.0000 C   0  0  0  0  0  0  0  2  0  0  0  0
    1.0717   -0.2062    0.0000 C   0  0  0  0  0  0  0  2  0  0  0  0
    1.7862    0.2062    0.0000 C   0  0  0  0  0  0  0  2  0  0  0  0
    1.7862    1.0312    0.0000 O   0  0  0  0  0  0  0  2  0  0  0  0
    2.5006   -0.2062    0.0000 O   0  0  0  0  0  0  0  2  0  0  0  0
    3.2151    0.2062    0.0000 C   0  0  0  0  0  0  0  2  0  0  0  0
  1  2  2  0        0
  2  3  1  0        0
  3  4  1  0        0
  2  5  1  0        0
  5  6  1  0        0
  6  7  1  0        0
  7  8  1  0        0
  8  9  1  0        0
  9 10  2  0        0
  9 11  1  0        0
 11 12  1  0        0
M  END
$$$$

CDXL12

  8  7  0  0  0  0  0  0  0  0999 V2000
   -2.1434   -0.6187    0.0000 C   0  0  0  0  0  0  0  2  0  0  0  0
   -1.4289   -0.2062    0.0000 C   0  0  0  0  0  0  0  2  0  0  0  0
   -0.7145   -0.6187    0.0000 C   0  0  0  0  0  0  0  2  0  0  0  0
   -0.0000   -0.2062    0.0000 C   0  0  0  0  0  0  0  2  0  0  0  0
    0.7145   -0.6187    0.0000 C   0  0  0  0  0  0  0  2  0  0  0  0
    1.4289   -0.2062    0.0000 N   0  0  0  0  0  0  0  2  0  0  0  0
    1.4289    0.6187    0.0000 O   0  0  0  0  0  0  0  2  0  0  0  0
    2.1434   -0.6187    0.0000 O   0  0  0  0  0  0  0  2  0  0  0  0
  1  2  1  0        0
  2  3  1  0        0
  3  4  1  0        0
  4  5  1  0        0
  5  6  1  0        0
  6  7  2  0        0
  6  8  2  0        0
M  END
$$$$

CDXL12

  6  5  0  0  0  0  0  0  0  0999 V2000
   -1.7862   -0.2062    0.0000 C   0  0  0  0  0  0  0  2  0  0  0  0
   -1.0717    0.2062    0.0000 O   0  0  0  0  0  0  0  2  0  0  0  0
   -0.3572   -0.2062    0.0000 C   0  0  0  0  0  0  0  2  0  0  0  0
    0.3572    0.2062    0.0000 C   0  0  0  0  0  0  0  2  0  0  0  0
    1.0717   -0.2062    0.0000 C   0  0  0  0  0  0  0  2  0  0  0  0
    1.7862    0.2062    0.0000 C   0  0  0  0  0  0  0  2  0  0  0  0
  1  2  1  0        0
  2  3  1  0        0
  3  4  1  0        0
  4  5  1  0        0
  5  6  1  0        0
M  END
$$$$

CDXL12

  6  5  0  0  0  0  0  0  0  0999 V2000
   -1.7862   -0.2062    0.0000 C   0  0  0  0  0  0  0  2  0  0  0  0
   -1.0717    0.2062    0.0000 C   0  0  0  0  0  0  0  2  0  0  0  0
   -0.3572   -0.2062    0.0000 C   0  0  0  0  0  0  0  2  0  0  0  0
    0.3572    0.2062    0.0000 O   0  0  0  0  0  0  0  2  0  0  0  0
    1.0717   -0.2062    0.0000 C   0  0  0  0  0  0  0  2  0  0  0  0
    1.7862    0.2062    0.0000 C   0  0  0  0  0  0  0  2  0  0  0  0
  1  2  1  0        0
  2  3  1  0        0
  3  4  1  0        0
  4  5  1  0        0
  5  6  1  0        0
M  END
$$$$

CDXL12

  9  8  0  0  0  0  0  0  0  0999 V2000
   -1.7862    0.6187    0.0000 O   0  0  0  0  0  0  0  2  0  0  0  0
   -1.7862   -0.2062    0.0000 C   0  0  0  0  0  0  0  2  0  0  0  0
   -1.0717   -0.6187    0.0000 O   0  0  0  0  0  0  0  2  0  0  0  0
   -0.3572   -0.2062    0.0000 C   0  0  0  0  0  0  0  2  0  0  0  0
    0.3572   -0.6187    0.0000 C   0  0  0  0  0  0  0  2  0  0  0  0
    1.0717   -0.2062    0.0000 C   0  0  0  0  0  0  0  2  0  0  0  0
    1.7862   -0.6187    0.0000 C   0  0  0  0  0  0  0  2  0  0  0  0
    2.5006   -0.2062    0.0000 C   0  0  0  0  0  0  0  2  0  0  0  0
   -2.5006   -0.6187    0.0000 C   0  0  0  0  0  0  0  2  0  0  0  0
  1  2  2  0        0
  2  3  1  0        0
  3  4  1  0        0
  4  5  1  0        0
  5  6  1  0        0
  6  7  1  0        0
  7  8  1  0        0
  2  9  1  0        0
M  END
$$$$

CDXL12

  7  6  0  0  0  0  0  0  0  0999 V2000
   -1.4289   -0.0000    0.0000 C   0  0  0  0  0  0  0  2  0  0  0  0
   -2.1434    0.4125    0.0000 C   0  0  0  0  0  0  0  2  0  0  0  0
   -0.7145   -0.4125    0.0000 C   0  0  0  0  0  0  0  2  0  0  0  0
    0.0000   -0.0000    0.0000 C   0  0  0  0  0  0  0  2  0  0  0  0
    0.7145   -0.4125    0.0000 C   0  0  0  0  0  0  0  2  0  0  0  0
    1.4289   -0.0000    0.0000 C   0  0  0  0  0  0  0  2  0  0  0  0
    2.1434   -0.4125    0.0000 C   0  0  0  0  0  0  0  2  0  0  0  0
  1  2  3  0        0
  1  3  1  0        0
  3  4  1  0        0
  4  5  1  0        0
  5  6  1  0        0
  6  7  1  0        0
M  END
$$$$

CDXL12

 10  9  0  0  0  0  0  0  0  0999 V2000
    2.1434    0.6187    0.0000 O   0  0  0  0  0  0  0  2  0  0  0  0
    2.1434   -0.2062    0.0000 C   0  0  0  0  0  0  0  2  0  0  0  0
    1.4289   -0.6187    0.0000 C   0  0  0  0  0  0  0  2  0  0  0  0
    0.7145   -0.2062    0.0000 C   0  0  0  0  0  0  0  2  0  0  0  0
   -0.0000   -0.6187    0.0000 C   0  0  0  0  0  0  0  2  0  0  0  0
   -0.7145   -0.2062    0.0000 C   0  0  0  0  0  0  0  2  0  0  0  0
   -1.4289   -0.6187    0.0000 C   0  0  0  0  0  0  0  2  0  0  0  0
   -2.1434   -0.2062    0.0000 C   0  0  0  0  0  0  0  2  0  0  0  0
   -2.8579   -0.6187    0.0000 C   0  0  0  0  0  0  0  2  0  0  0  0
    2.8579   -0.6187    0.0000 C   0  0  0  0  0  0  0  2  0  0  0  0
  1  2  1  0        0
  2  3  1  0        0
  3  4  1  0        0
  4  5  1  0        0
  5  6  1  0        0
  6  7  1  0        0
  7  8  1  0        0
  8  9  1  0        0
  2 10  1  0        0
M  END
$$$$

CDXL12

  8  7  0  0  0  0  0  0  0  0999 V2000
    2.5006    0.2062    0.0000 Br  0  0  0  0  0  0  0  2  0  0  0  0
    1.7862   -0.2062    0.0000 C   0  0  0  0  0  0  0  2  0  0  0  0
    1.0717    0.2062    0.0000 C   0  0  0  0  0  0  0  2  0  0  0  0
    0.3572   -0.2062    0.0000 C   0  0  0  0  0  0  0  2  0  0  0  0
   -0.3572    0.2062    0.0000 C   0  0  0  0  0  0  0  2  0  0  0  0
   -1.0717   -0.2062    0.0000 C   0  0  0  0  0  0  0  2  0  0  0  0
   -1.7862    0.2062    0.0000 C   0  0  0  0  0  0  0  2  0  0  0  0
   -2.5006   -0.2062    0.0000 C   0  0  0  0  0  0  0  2  0  0  0  0
  1  2  1  0        0
  2  3  1  0        0
  3  4  1  0        0
  4  5  1  0        0
  5  6  1  0        0
  6  7  1  0        0
  7  8  1  0        0
M  END
$$$$

CDXL12

  8  7  0  0  0  0  0  0  0  0999 V2000
   -1.7862   -0.0000    0.0000 C   0  0  0  0  0  0  0  2  0  0  0  0
   -2.5006    0.4125    0.0000 C   0  0  0  0  0  0  0  2  0  0  0  0
   -1.0717   -0.4125    0.0000 C   0  0  0  0  0  0  0  2  0  0  0  0
   -0.3572   -0.0000    0.0000 C   0  0  0  0  0  0  0  2  0  0  0  0
    0.3572   -0.4125    0.0000 C   0  0  0  0  0  0  0  2  0  0  0  0
    1.0717   -0.0000    0.0000 C   0  0  0  0  0  0  0  2  0  0  0  0
    1.7862   -0.4125    0.0000 C   0  0  0  0  0  0  0  2  0  0  0  0
    2.5006   -0.0000    0.0000 C   0  0  0  0  0  0  0  2  0  0  0  0
  1  2  3  0        0
  1  3  1  0        0
  3  4  1  0        0
  4  5  1  0        0
  5  6  1  0        0
  6  7  1  0        0
  7  8  1  0        0
M  END
$$$$

CDXL12

  8  7  0  0  0  0  0  0  0  0999 V2000
    2.5006    0.2062    0.0000 Cl  0  0  0  0  0  0  0  2  0  0  0  0
    1.7862   -0.2062    0.0000 C   0  0  0  0  0  0  0  2  0  0  0  0
    1.0717    0.2062    0.0000 C   0  0  0  0  0  0  0  2  0  0  0  0
    0.3572   -0.2062    0.0000 C   0  0  0  0  0  0  0  2  0  0  0  0
   -0.3572    0.2062    0.0000 C   0  0  0  0  0  0  0  2  0  0  0  0
   -1.0717   -0.2062    0.0000 C   0  0  0  0  0  0  0  2  0  0  0  0
   -1.7862    0.2062    0.0000 C   0  0  0  0  0  0  0  2  0  0  0  0
   -2.5006   -0.2062    0.0000 C   0  0  0  0  0  0  0  2  0  0  0  0
  1  2  1  0        0
  2  3  1  0        0
  3  4  1  0        0
  4  5  1  0        0
  5  6  1  0        0
  6  7  1  0        0
  7  8  1  0        0
M  END
$$$$

CDXL12

  8  7  0  0  0  0  0  0  0  0999 V2000
    1.0717    0.2062    0.0000 O   0  0  0  0  0  0  0  2  0  0  0  0
    0.3572   -0.2062    0.0000 C   0  0  0  0  0  0  0  2  0  0  0  0
   -0.3572    0.2062    0.0000 C   0  0  0  0  0  0  0  2  0  0  0  0
   -1.0717   -0.2062    0.0000 O   0  0  0  0  0  0  0  2  0  0  0  0
   -1.7862    0.2062    0.0000 C   0  0  0  0  0  0  0  2  0  0  0  0
   -2.5006   -0.2062    0.0000 C   0  0  0  0  0  0  0  2  0  0  0  0
    1.7862   -0.2062    0.0000 C   0  0  0  0  0  0  0  2  0  0  0  0
    2.5006    0.2062    0.0000 C   0  0  0  0  0  0  0  2  0  0  0  0
  1  2  1  0        0
  2  3  1  0        0
  3  4  1  0        0
  4  5  1  0        0
  5  6  1  0        0
  1  7  1  0        0
  7  8  1  0        0
M  END
$$$$

CDXL12

 16 15  0  0  0  0  0  0  0  0999 V2000
   -5.3585   -0.2062    0.0000 O   0  0  0  0  0  0  0  2  0  0  0  0
   -4.6441    0.2062    0.0000 C   0  0  0  0  0  0  0  2  0  0  0  0
   -3.9296   -0.2062    0.0000 C   0  0  0  0  0  0  0  2  0  0  0  0
   -3.2151    0.2062    0.0000 C   0  0  0  0  0  0  0  2  0  0  0  0
   -2.5006   -0.2062    0.0000 C   0  0  0  0  0  0  0  2  0  0  0  0
   -1.7862    0.2062    0.0000 C   0  0  0  0  0  0  0  2  0  0  0  0
   -1.0717   -0.2062    0.0000 C   0  0  0  0  0  0  0  2  0  0  0  0
   -0.3572    0.2062    0.0000 C   0  0  0  0  0  0  0  2  0  0  0  0
    0.3572   -0.2062    0.0000 C   0  0  0  0  0  0  0  2  0  0  0  0
    1.0717    0.2062    0.0000 C   0  0  0  0  0  0  0  2  0  0  0  0
    1.7862   -0.2062    0.0000 C   0  0  0  0  0  0  0  2  0  0  0  0
    2.5006    0.2062    0.0000 C   0  0  0  0  0  0  0  2  0  0  0  0
    3.2151   -0.2062    0.0000 C   0  0  0  0  0  0  0  2  0  0  0  0
    3.9296    0.2062    0.0000 C   0  0  0  0  0  0  0  2  0  0  0  0
    4.6441   -0.2062    0.0000 C   0  0  0  0  0  0  0  2  0  0  0  0
    5.3585    0.2062    0.0000 C   0  0  0  0  0  0  0  2  0  0  0  0
  1  2  1  0        0
  2  3  1  0        0
  3  4  1  0        0
  4  5  1  0        0
  5  6  1  0        0
  6  7  1  0        0
  7  8  1  0        0
  8  9  1  0        0
  9 10  1  0        0
 10 11  1  0        0
 11 12  1  0        0
 12 13  1  0        0
 13 14  1  0        0
 14 15  1  0        0
 15 16  1  0        0
M  END
$$$$

CDXL12

 22 21  0  0  0  0  0  0  0  0999 V2000
   -6.7875    0.2062    0.0000 C   0  0  0  0  0  0  0  2  0  0  0  0
   -6.0730   -0.2062    0.0000 C   0  0  0  0  0  0  0  2  0  0  0  0
   -5.3585    0.2062    0.0000 C   0  0  0  0  0  0  0  2  0  0  0  0
   -4.6441   -0.2062    0.0000 C   0  0  0  0  0  0  0  2  0  0  0  0
   -3.9296    0.2062    0.0000 C   0  0  0  0  0  0  0  2  0  0  0  0
   -3.2151   -0.2062    0.0000 C   0  0  0  0  0  0  0  2  0  0  0  0
   -2.5006    0.2062    0.0000 C   0  0  0  0  0  0  0  2  0  0  0  0
   -1.7862   -0.2062    0.0000 C   0  0  0  0  0  0  0  2  0  0  0  0
   -1.0717    0.2062    0.0000 C   0  0  0  0  0  0  0  2  0  0  0  0
   -0.3572   -0.2062    0.0000 C   0  0  0  0  0  0  0  2  0  0  0  0
    0.3572    0.2062    0.0000 C   0  0  0  0  0  0  0  2  0  0  0  0
    1.0717   -0.2062    0.0000 C   0  0  0  0  0  0  0  2  0  0  0  0
    1.7862    0.2062    0.0000 C   0  0  0  0  0  0  0  2  0  0  0  0
    2.5006   -0.2062    0.0000 C   0  0  0  0  0  0  0  2  0  0  0  0
    3.2151    0.2062    0.0000 C   0  0  0  0  0  0  0  2  0  0  0  0
    3.9296   -0.2062    0.0000 C   0  0  0  0  0  0  0  2  0  0  0  0
    4.6441    0.2062    0.0000 C   0  0  0  0  0  0  0  2  0  0  0  0
    5.3585   -0.2062    0.0000 C   0  0  0  0  0  0  0  2  0  0  0  0
    6.0730    0.2062    0.0000 C   0  0  0  0  0  0  0  2  0  0  0  0
    6.7875   -0.2062    0.0000 C   0  0  0  0  0  0  0  2  0  0  0  0
    7.5019    0.2062    0.0000 C   0  0  0  0  0  0  0  2  0  0  0  0
   -7.5019   -0.2062    0.0000 C   0  0  0  0  0  0  0  2  0  0  0  0
  1  2  1  0        0
  2  3  1  0        0
  3  4  1  0        0
  4  5  1  0        0
  5  6  1  0        0
  6  7  1  0        0
  7  8  1  0        0
  8  9  1  0        0
  9 10  1  0        0
 10 11  1  0        0
 11 12  1  0        0
 12 13  1  0        0
 13 14  1  0        0
 14 15  1  0        0
 15 16  1  0        0
 16 17  1  0        0
 17 18  1  0        0
 18 19  1  0        0
 19 20  1  0        0
 20 21  1  0        0
  1 22  1  0        0
M  END
$$$$

CDXL12

 26 25  0  0  0  0  0  0  0  0999 V2000
   -8.2164    0.2062    0.0000 C   0  0  0  0  0  0  0  2  0  0  0  0
   -7.5019   -0.2062    0.0000 C   0  0  0  0  0  0  0  2  0  0  0  0
   -6.7875    0.2062    0.0000 C   0  0  0  0  0  0  0  2  0  0  0  0
   -6.0730   -0.2062    0.0000 C   0  0  0  0  0  0  0  2  0  0  0  0
   -5.3585    0.2062    0.0000 C   0  0  0  0  0  0  0  2  0  0  0  0
   -4.6441   -0.2062    0.0000 C   0  0  0  0  0  0  0  2  0  0  0  0
   -3.9296    0.2062    0.0000 C   0  0  0  0  0  0  0  2  0  0  0  0
   -3.2151   -0.2062    0.0000 C   0  0  0  0  0  0  0  2  0  0  0  0
   -2.5006    0.2062    0.0000 C   0  0  0  0  0  0  0  2  0  0  0  0
   -1.7862   -0.2062    0.0000 C   0  0  0  0  0  0  0  2  0  0  0  0
   -1.0717    0.2062    0.0000 C   0  0  0  0  0  0  0  2  0  0  0  0
   -0.3572   -0.2062    0.0000 C   0  0  0  0  0  0  0  2  0  0  0  0
    0.3572    0.2062    0.0000 C   0  0  0  0  0  0  0  2  0  0  0  0
    1.0717   -0.2062    0.0000 C   0  0  0  0  0  0  0  2  0  0  0  0
    1.7862    0.2062    0.0000 C   0  0  0  0  0  0  0  2  0  0  0  0
    2.5006   -0.2062    0.0000 C   0  0  0  0  0  0  0  2  0  0  0  0
    3.2151    0.2062    0.0000 C   0  0  0  0  0  0  0  2  0  0  0  0
    3.9296   -0.2062    0.0000 C   0  0  0  0  0  0  0  2  0  0  0  0
    4.6441    0.2062    0.0000 C   0  0  0  0  0  0  0  2  0  0  0  0
    5.3585   -0.2062    0.0000 C   0  0  0  0  0  0  0  2  0  0  0  0
    6.0730    0.2062    0.0000 C   0  0  0  0  0  0  0  2  0  0  0  0
    6.7875   -0.2062    0.0000 C   0  0  0  0  0  0  0  2  0  0  0  0
    7.5019    0.2062    0.0000 C   0  0  0  0  0  0  0  2  0  0  0  0
    8.2164   -0.2062    0.0000 C   0  0  0  0  0  0  0  2  0  0  0  0
    8.9309    0.2062    0.0000 C   0  0  0  0  0  0  0  2  0  0  0  0
   -8.9309   -0.2062    0.0000 C   0  0  0  0  0  0  0  2  0  0  0  0
  1  2  1  0        0
  2  3  1  0        0
  3  4  1  0        0
  4  5  1  0        0
  5  6  1  0        0
  6  7  1  0        0
  7  8  1  0        0
  8  9  1  0        0
  9 10  1  0        0
 10 11  1  0        0
 11 12  1  0        0
 12 13  1  0        0
 13 14  1  0        0
 14 15  1  0        0
 15 16  1  0        0
 16 17  1  0        0
 17 18  1  0        0
 18 19  1  0        0
 19 20  1  0        0
 20 21  1  0        0
 21 22  1  0        0
 22 23  1  0        0
 23 24  1  0        0
 24 25  1  0        0
  1 26  1  0        0
M  END
$$$$

CDXL12

 36 35  0  0  0  0  0  0  0  0999 V2000
  -11.7888    0.2062    0.0000 C   0  0  0  0  0  0  0  2  0  0  0  0
  -11.0743   -0.2062    0.0000 C   0  0  0  0  0  0  0  2  0  0  0  0
  -10.3598    0.2062    0.0000 C   0  0  0  0  0  0  0  2  0  0  0  0
   -9.6454   -0.2062    0.0000 C   0  0  0  0  0  0  0  2  0  0  0  0
   -8.9309    0.2062    0.0000 C   0  0  0  0  0  0  0  2  0  0  0  0
   -8.2164   -0.2062    0.0000 C   0  0  0  0  0  0  0  2  0  0  0  0
   -7.5019    0.2062    0.0000 C   0  0  0  0  0  0  0  2  0  0  0  0
   -6.7875   -0.2062    0.0000 C   0  0  0  0  0  0  0  2  0  0  0  0
   -6.0730    0.2062    0.0000 C   0  0  0  0  0  0  0  2  0  0  0  0
   -5.3585   -0.2062    0.0000 C   0  0  0  0  0  0  0  2  0  0  0  0
   -4.6441    0.2062    0.0000 C   0  0  0  0  0  0  0  2  0  0  0  0
   -3.9296   -0.2062    0.0000 C   0  0  0  0  0  0  0  2  0  0  0  0
   -3.2151    0.2062    0.0000 C   0  0  0  0  0  0  0  2  0  0  0  0
   -2.5006   -0.2062    0.0000 C   0  0  0  0  0  0  0  2  0  0  0  0
   -1.7862    0.2062    0.0000 C   0  0  0  0  0  0  0  2  0  0  0  0
   -1.0717   -0.2062    0.0000 C   0  0  0  0  0  0  0  2  0  0  0  0
   -0.3572    0.2062    0.0000 C   0  0  0  0  0  0  0  2  0  0  0  0
    0.3572   -0.2062    0.0000 C   0  0  0  0  0  0  0  2  0  0  0  0
    1.0717    0.2062    0.0000 C   0  0  0  0  0  0  0  2  0  0  0  0
    1.7862   -0.2062    0.0000 C   0  0  0  0  0  0  0  2  0  0  0  0
    2.5006    0.2062    0.0000 C   0  0  0  0  0  0  0  2  0  0  0  0
    3.2151   -0.2062    0.0000 C   0  0  0  0  0  0  0  2  0  0  0  0
    3.9296    0.2062    0.0000 C   0  0  0  0  0  0  0  2  0  0  0  0
    4.6441   -0.2062    0.0000 C   0  0  0  0  0  0  0  2  0  0  0  0
    5.3585    0.2062    0.0000 C   0  0  0  0  0  0  0  2  0  0  0  0
    6.0730   -0.2062    0.0000 C   0  0  0  0  0  0  0  2  0  0  0  0
    6.7875    0.2062    0.0000 C   0  0  0  0  0  0  0  2  0  0  0  0
    7.5019   -0.2062    0.0000 C   0  0  0  0  0  0  0  2  0  0  0  0
    8.2164    0.2062    0.0000 C   0  0  0  0  0  0  0  2  0  0  0  0
    8.9309   -0.2062    0.0000 C   0  0  0  0  0  0  0  2  0  0  0  0
    9.6454    0.2062    0.0000 C   0  0  0  0  0  0  0  2  0  0  0  0
   10.3598   -0.2062    0.0000 C   0  0  0  0  0  0  0  2  0  0  0  0
   11.0743    0.2062    0.0000 C   0  0  0  0  0  0  0  2  0  0  0  0
   11.7888   -0.2062    0.0000 C   0  0  0  0  0  0  0  2  0  0  0  0
   12.5032    0.2062    0.0000 C   0  0  0  0  0  0  0  2  0  0  0  0
  -12.5032   -0.2062    0.0000 C   0  0  0  0  0  0  0  2  0  0  0  0
  1  2  1  0        0
  2  3  1  0        0
  3  4  1  0        0
  4  5  1  0        0
  5  6  1  0        0
  6  7  1  0        0
  7  8  1  0        0
  8  9  1  0        0
  9 10  1  0        0
 10 11  1  0        0
 11 12  1  0        0
 12 13  1  0        0
 13 14  1  0        0
 14 15  1  0        0
 15 16  1  0        0
 16 17  1  0        0
 17 18  1  0        0
 18 19  1  0        0
 19 20  1  0        0
 20 21  1  0        0
 21 22  1  0        0
 22 23  1  0        0
 23 24  1  0        0
 24 25  1  0        0
 25 26  1  0        0
 26 27  1  0        0
 27 28  1  0        0
 28 29  1  0        0
 29 30  1  0        0
 30 31  1  0        0
 31 32  1  0        0
 32 33  1  0        0
 33 34  1  0        0
 34 35  1  0        0
  1 36  1  0        0
M  END
$$$$

CDXL12

  6  5  0  0  0  0  0  0  0  0999 V2000
   -0.3572   -0.2063    0.0000 C   0  0  0  0  0  0  0  2  0  0  0  0
    0.3572   -0.6188    0.0000 C   0  0  0  0  0  0  0  2  0  0  0  0
    1.0717   -0.2062    0.0000 Cl  0  0  0  0  0  0  0  2  0  0  0  0
   -1.0717   -0.6188    0.0000 Cl  0  0  0  0  0  0  0  2  0  0  0  0
   -0.3572    0.6188    0.0000 Cl  0  0  0  0  0  0  0  2  0  0  0  0
   -1.0717    0.2062    0.0000 Cl  0  0  0  0  0  0  0  2  0  0  0  0
  1  2  1  0        0
  2  3  1  0        0
  1  4  1  0        0
  1  5  1  0        0
  1  6  1  0        0
M  END
$$$$

CDXL12

  8  7  0  0  0  0  0  0  0  0999 V2000
    0.0000    1.0313    0.0000 O   0  0  0  0  0  0  0  2  0  0  0  0
    0.0000    0.2062    0.0000 C   0  0  0  0  0  0  0  2  0  0  0  0
   -0.7145   -0.2062    0.0000 N   0  0  0  0  0  0  0  2  0  0  0  0
   -0.7145   -1.0312    0.0000 C   0  0  0  0  0  0  0  2  0  0  0  0
   -1.4289    0.2062    0.0000 C   0  0  0  0  0  0  0  2  0  0  0  0
    0.7145   -0.2062    0.0000 N   0  0  0  0  0  0  0  2  0  0  0  0
    1.4289    0.2062    0.0000 C   0  0  0  0  0  0  0  2  0  0  0  0
    0.7145   -1.0313    0.0000 C   0  0  0  0  0  0  0  2  0  0  0  0
  1  2  2  0        0
  2  3  1  0        0
  3  4  1  0        0
  3  5  1  0        0
  2  6  1  0        0
  6  7  1  0        0
  6  8  1  0        0
M  END
$$$$

CDXL12

 26 28  0  0  0  0  0  0  0  0999 V2000
    3.2151    0.4125    0.0000 C   0  0  0  0  0  0  0  2  0  0  0  0
    2.5006    0.8250    0.0000 C   0  0  0  0  0  0  0  2  0  0  0  0
    1.7862    0.4125    0.0000 C   0  0  0  0  0  0  0  2  0  0  0  0
    1.0717    0.8250    0.0000 C   0  0  0  0  0  0  0  2  0  0  0  0
    1.0717    1.6500    0.0000 C   0  0  0  0  0  0  0  2  0  0  0  0
    1.7862    2.0625    0.0000 C   0  0  0  0  0  0  0  2  0  0  0  0
    2.5006    1.6500    0.0000 C   0  0  0  0  0  0  0  2  0  0  0  0
    3.2151    2.0625    0.0000 N   0  0  0  0  0  0  0  2  0  0  0  0
    0.3572    0.4125    0.0000 C   0  0  0  0  0  0  0  2  0  0  0  0
   -0.3572    0.8250    0.0000 C   0  0  0  0  0  0  0  2  0  0  0  0
   -1.0717    0.4125    0.0000 C   0  0  0  0  0  0  0  2  0  0  0  0
   -1.7862    0.8250    0.0000 C   0  0  0  0  0  0  0  2  0  0  0  0
   -1.7862    1.6500    0.0000 C   0  0  0  0  0  0  0  2  0  0  0  0
   -2.5006    2.0625    0.0000 N   0  0  0  0  0  0  0  2  0  0  0  0
   -2.5006    2.8875    0.0000 H   0  0  0  0  0  0  0  2  0  0  0  0
   -3.2151    2.4750    0.0000 H   0  0  0  0  0  0  0  2  0  0  0  0
   -3.2151    1.6500    0.0000 Cl  0  0  0  0  0  0  0  2  0  0  0  0
   -1.0717    2.0625    0.0000 C   0  0  0  0  0  0  0  2  0  0  0  0
   -0.3572    1.6500    0.0000 C   0  0  0  0  0  0  0  2  0  0  0  0
    0.3572   -0.4125    0.0000 C   0  0  0  0  0  0  0  2  0  0  0  0
    1.0717   -0.8250    0.0000 C   0  0  0  0  0  0  0  2  0  0  0  0
    1.0717   -1.6500    0.0000 C   0  0  0  0  0  0  0  2  0  0  0  0
    0.3572   -2.0625    0.0000 C   0  0  0  0  0  0  0  2  0  0  0  0
    0.3572   -2.8875    0.0000 N   0  0  0  0  0  0  0  2  0  0  0  0
   -0.3572   -1.6500    0.0000 C   0  0  0  0  0  0  0  2  0  0  0  0
   -0.3572   -0.8250    0.0000 C   0  0  0  0  0  0  0  2  0  0  0  0
  1  2  1  0        0
  2  3  4  0        0
  3  4  4  0        0
  4  5  4  0        0
  5  6  4  0        0
  6  7  4  0        0
  2  7  4  0        0
  7  8  1  0        0
  4  9  1  0        0
  9 10  2  0        0
 10 11  1  0        0
 11 12  2  0        0
 12 13  1  0        0
 13 14  2  0        0
 14 15  1  0        0
 14 16  1  0        0
 14 17  1  0        0
 13 18  1  0        0
 18 19  2  0        0
 10 19  1  0        0
  9 20  1  0        0
 20 21  4  0        0
 21 22  4  0        0
 22 23  4  0        0
 23 24  1  0        0
 23 25  4  0        0
 25 26  4  0        0
 20 26  4  0        0
M  END
$$$$

CDXL12

 10 10  0  0  0  0  0  0  0  0999 V2000
    0.7145    0.8250    0.0000 C   0  0  0  0  0  0  0  2  0  0  0  0
    0.7145   -0.0000    0.0000 C   0  0  0  0  0  0  0  2  0  0  0  0
    0.0000   -0.4125    0.0000 C   0  0  0  0  0  0  0  2  0  0  0  0
   -0.7145   -0.0000    0.0000 C   0  0  0  0  0  0  0  2  0  0  0  0
   -0.7145    0.8250    0.0000 C   0  0  0  0  0  0  0  2  0  0  0  0
    0.0000    1.2375    0.0000 C   0  0  0  0  0  0  0  2  0  0  0  0
   -1.4289   -0.4125    0.0000 Cl  0  0  0  0  0  0  0  2  0  0  0  0
    0.0000   -1.2375    0.0000 Cl  0  0  0  0  0  0  0  2  0  0  0  0
    1.4289   -0.4125    0.0000 Cl  0  0  0  0  0  0  0  2  0  0  0  0
    1.4289    1.2375    0.0000 Cl  0  0  0  0  0  0  0  2  0  0  0  0
  1  2  4  0        0
  2  3  4  0        0
  3  4  4  0        0
  4  5  4  0        0
  5  6  4  0        0
  1  6  4  0        0
  4  7  1  0        0
  3  8  1  0        0
  2  9  1  0        0
  1 10  1  0        0
M  END
$$$$

CDXL12

 10 10  0  0  0  0  0  0  0  0999 V2000
   -0.7145   -0.8250    0.0000 C   0  0  0  0  0  0  0  2  0  0  0  0
   -0.7145    0.0000    0.0000 C   0  0  0  0  0  0  0  2  0  0  0  0
    0.0000    0.4125    0.0000 C   0  0  0  0  0  0  0  2  0  0  0  0
    0.7145   -0.0000    0.0000 C   0  0  0  0  0  0  0  2  0  0  0  0
    0.7145   -0.8250    0.0000 C   0  0  0  0  0  0  0  2  0  0  0  0
    1.4289   -1.2375    0.0000 Cl  0  0  0  0  0  0  0  2  0  0  0  0
    0.0000   -1.2375    0.0000 C   0  0  0  0  0  0  0  2  0  0  0  0
    1.4289    0.4125    0.0000 Cl  0  0  0  0  0  0  0  2  0  0  0  0
    0.0000    1.2375    0.0000 Cl  0  0  0  0  0  0  0  2  0  0  0  0
   -1.4289   -1.2375    0.0000 Cl  0  0  0  0  0  0  0  2  0  0  0  0
  1  2  4  0        0
  2  3  4  0        0
  3  4  4  0        0
  4  5  4  0        0
  5  6  1  0        0
  5  7  4  0        0
  1  7  4  0        0
  4  8  1  0        0
  3  9  1  0        0
  1 10  1  0        0
M  END
$$$$

CDXL12

 10 10  0  0  0  0  0  0  0  0999 V2000
    1.4289    0.4125    0.0000 N   0  0  0  0  0  0  0  2  0  0  0  0
    0.7145    0.0000    0.0000 C   0  0  0  0  0  0  0  2  0  0  0  0
    0.7145   -0.8250    0.0000 C   0  0  0  0  0  0  0  2  0  0  0  0
    0.0000   -1.2375    0.0000 C   0  0  0  0  0  0  0  2  0  0  0  0
   -0.7145   -0.8250    0.0000 C   0  0  0  0  0  0  0  2  0  0  0  0
   -0.7145    0.0000    0.0000 C   0  0  0  0  0  0  0  2  0  0  0  0
    0.0000    0.4125    0.0000 C   0  0  0  0  0  0  0  2  0  0  0  0
    0.0000    1.2375    0.0000 Cl  0  0  0  0  0  0  0  2  0  0  0  0
   -1.4289   -1.2375    0.0000 Cl  0  0  0  0  0  0  0  2  0  0  0  0
    1.4289   -1.2375    0.0000 Cl  0  0  0  0  0  0  0  2  0  0  0  0
  1  2  1  0        0
  2  3  4  0        0
  3  4  4  0        0
  4  5  4  0        0
  5  6  4  0        0
  6  7  4  0        0
  2  7  4  0        0
  7  8  1  0        0
  5  9  1  0        0
  3 10  1  0        0
M  END
$$$$

CDXL12

 10 10  0  0  0  0  0  0  0  0999 V2000
    0.7145    0.4125    0.0000 C   0  0  0  0  0  0  0  2  0  0  0  0
    0.7145   -0.4125    0.0000 C   0  0  0  0  0  0  0  2  0  0  0  0
    0.0000   -0.8250    0.0000 C   0  0  0  0  0  0  0  2  0  0  0  0
   -0.7145   -0.4125    0.0000 C   0  0  0  0  0  0  0  2  0  0  0  0
   -0.7145    0.4125    0.0000 C   0  0  0  0  0  0  0  2  0  0  0  0
   -1.4289    0.8250    0.0000 Br  0  0  0  0  0  0  0  2  0  0  0  0
    0.0000    0.8250    0.0000 C   0  0  0  0  0  0  0  2  0  0  0  0
   -1.4289   -0.8250    0.0000 Br  0  0  0  0  0  0  0  2  0  0  0  0
    1.4289   -0.8250    0.0000 Br  0  0  0  0  0  0  0  2  0  0  0  0
    1.4289    0.8250    0.0000 Br  0  0  0  0  0  0  0  2  0  0  0  0
  1  2  4  0        0
  2  3  4  0        0
  3  4  4  0        0
  4  5  4  0        0
  5  6  1  0        0
  5  7  4  0        0
  1  7  4  0        0
  4  8  1  0        0
  2  9  1  0        0
  1 10  1  0        0
M  END
$$$$

CDXL12

  8  7  0  0  0  0  0  0  0  0999 V2000
    1.4289   -0.2062    0.0000 C   0  0  0  0  0  0  0  2  0  0  0  0
    0.7145   -0.6188    0.0000 C   0  0  0  0  0  0  0  2  0  0  0  0
    0.0000   -0.2063    0.0000 N   0  0  0  0  0  0  0  2  0  0  0  0
   -0.7145   -0.6188    0.0000 C   0  0  0  0  0  0  0  2  0  0  0  0
   -1.4289   -0.2063    0.0000 C   0  0  0  0  0  0  0  2  0  0  0  0
    0.0000    0.6188    0.0000 C   0  0  0  0  0  0  0  2  0  0  0  0
    0.7145    1.0313    0.0000 C   0  0  0  0  0  0  0  2  0  0  0  0
    0.0000   -1.0313    0.0000 Br  0  0  0  0  0  0  0  2  0  0  0  0
  1  2  1  0        0
  2  3  1  0        0
  3  4  1  0        0
  4  5  1  0        0
  3  6  1  0        0
  6  7  1  0        0
  3  8  1  0        0
M  END
$$$$

CDXL12

  8  7  0  0  0  0  0  0  0  0999 V2000
   -0.3572    0.6187    0.0000 O   0  0  0  0  0  0  0  2  0  0  0  0
   -0.3572   -0.2062    0.0000 C   0  0  0  0  0  0  0  2  0  0  0  0
    0.3572   -0.6187    0.0000 O   0  0  0  0  0  0  0  2  0  0  0  0
    1.0717   -0.2062    0.0000 C   0  0  0  0  0  0  0  2  0  0  0  0
    1.0717    0.6187    0.0000 C   0  0  0  0  0  0  0  2  0  0  0  0
    1.7862   -0.6187    0.0000 C   0  0  0  0  0  0  0  2  0  0  0  0
   -1.0717   -0.6187    0.0000 C   0  0  0  0  0  0  0  2  0  0  0  0
   -1.7862   -0.2062    0.0000 C   0  0  0  0  0  0  0  2  0  0  0  0
  1  2  2  0        0
  2  3  1  0        0
  3  4  1  0        0
  4  5  1  0        0
  4  6  1  0        0
  2  7  1  0        0
  7  8  1  0        0
M  END
$$$$

CDXL12

  8  8  0  0  0  0  0  0  0  0999 V2000
    0.7145    0.4125    0.0000 C   0  0  0  0  0  0  0  2  0  0  0  0
    0.7145   -0.4125    0.0000 C   0  0  0  0  0  0  0  2  0  0  0  0
    0.0000   -0.8250    0.0000 C   0  0  0  0  0  0  0  2  0  0  0  0
   -0.7145   -0.4125    0.0000 C   0  0  0  0  0  0  0  2  0  0  0  0
   -0.7145    0.4125    0.0000 C   0  0  0  0  0  0  0  2  0  0  0  0
    0.0000    0.8250    0.0000 C   0  0  0  0  0  0  0  2  0  0  0  0
   -1.4289   -0.8250    0.0000 Cl  0  0  0  0  0  0  0  2  0  0  0  0
    1.4289    0.8250    0.0000 I   0  0  0  0  0  0  0  2  0  0  0  0
  1  2  4  0        0
  2  3  4  0        0
  3  4  4  0        0
  4  5  4  0        0
  5  6  4  0        0
  1  6  4  0        0
  4  7  1  0        0
  1  8  1  0        0
M  END
$$$$

CDXL12

  7  6  0  0  0  0  0  0  0  0999 V2000
    0.0000   -0.6188    0.0000 O   0  0  0  0  0  0  0  2  0  0  0  0
    0.7145   -0.2062    0.0000 C   0  0  0  0  0  0  0  2  0  0  0  0
    0.7145    0.6188    0.0000 C   0  0  0  0  0  0  0  2  0  0  0  0
    1.4289    0.2062    0.0000 C   0  0  0  0  0  0  0  2  0  0  0  0
    1.4289   -0.6188    0.0000 C   0  0  0  0  0  0  0  2  0  0  0  0
   -0.7145   -0.2063    0.0000 C   0  0  0  0  0  0  0  2  0  0  0  0
   -1.4289   -0.6188    0.0000 C   0  0  0  0  0  0  0  2  0  0  0  0
  1  2  1  0        0
  2  3  1  0        0
  2  4  1  0        0
  2  5  1  0        0
  1  6  1  0        0
  6  7  1  0        0
M  END
$$$$

CDXL12

 15 14  0  0  0  0  0  0  0  0999 V2000
    3.9296    0.6187    0.0000 O   0  0  0  0  0  0  0  2  0  0  0  0
    3.9296   -0.2062    0.0000 C   0  0  0  0  0  0  0  2  0  0  0  0
    4.6441   -0.6187    0.0000 O   0  0  0  0  0  0  0  2  0  0  0  0
    3.2151   -0.6187    0.0000 C   0  0  0  0  0  0  0  2  0  0  0  0
    2.5006   -0.2062    0.0000 C   0  0  0  0  0  0  0  2  0  0  0  0
    1.7862   -0.6187    0.0000 C   0  0  0  0  0  0  0  2  0  0  0  0
    1.0717   -0.2062    0.0000 C   0  0  0  0  0  0  0  2  0  0  0  0
    0.3572   -0.6187    0.0000 C   0  0  0  0  0  0  0  2  0  0  0  0
   -0.3572   -0.2062    0.0000 C   0  0  0  0  0  0  0  2  0  0  0  0
   -1.0717   -0.6187    0.0000 C   0  0  0  0  0  0  0  2  0  0  0  0
   -1.7862   -0.2062    0.0000 C   0  0  0  0  0  0  0  2  0  0  0  0
   -2.5006   -0.6187    0.0000 C   0  0  0  0  0  0  0  2  0  0  0  0
   -3.2151   -0.2062    0.0000 C   0  0  0  0  0  0  0  2  0  0  0  0
   -3.9296   -0.6187    0.0000 C   0  0  0  0  0  0  0  2  0  0  0  0
   -4.6441   -0.2062    0.0000 C   0  0  0  0  0  0  0  2  0  0  0  0
  1  2  2  0        0
  2  3  1  0        0
  2  4  1  0        0
  4  5  1  0        0
  5  6  1  0        0
  6  7  1  0        0
  7  8  1  0        0
  8  9  1  0        0
  9 10  1  0        0
 10 11  1  0        0
 11 12  1  0        0
 12 13  1  0        0
 13 14  1  0        0
 14 15  1  0        0
M  END
$$$$

CDXL12

 20 22  0  0  0  0  0  0  0  0999 V2000
    0.0000   -1.2375    0.0000 Cl  0  0  0  0  0  0  0  2  0  0  0  0
    0.0000   -0.4125    0.0000 Sn  0  0  0  0  0  0  0  2  0  0  0  0
   -0.7145   -0.8250    0.0000 C   0  0  0  0  0  0  0  2  0  0  0  0
   -0.7145   -1.6500    0.0000 C   0  0  0  0  0  0  0  2  0  0  0  0
   -1.4289   -2.0625    0.0000 C   0  0  0  0  0  0  0  2  0  0  0  0
   -2.1434   -1.6500    0.0000 C   0  0  0  0  0  0  0  2  0  0  0  0
   -2.1434   -0.8250    0.0000 C   0  0  0  0  0  0  0  2  0  0  0  0
   -1.4289   -0.4125    0.0000 C   0  0  0  0  0  0  0  2  0  0  0  0
    0.7145   -0.8250    0.0000 C   0  0  0  0  0  0  0  2  0  0  0  0
    1.4289   -0.4125    0.0000 C   0  0  0  0  0  0  0  2  0  0  0  0
    2.1434   -0.8250    0.0000 C   0  0  0  0  0  0  0  2  0  0  0  0
    2.1434   -1.6500    0.0000 C   0  0  0  0  0  0  0  2  0  0  0  0
    1.4289   -2.0625    0.0000 C   0  0  0  0  0  0  0  2  0  0  0  0
    0.7145   -1.6500    0.0000 C   0  0  0  0  0  0  0  2  0  0  0  0
    0.0000    0.4125    0.0000 C   0  0  0  0  0  0  0  2  0  0  0  0
   -0.7145    0.8250    0.0000 C   0  0  0  0  0  0  0  2  0  0  0  0
   -0.7145    1.6500    0.0000 C   0  0  0  0  0  0  0  2  0  0  0  0
    0.0000    2.0625    0.0000 C   0  0  0  0  0  0  0  2  0  0  0  0
    0.7145    1.6500    0.0000 C   0  0  0  0  0  0  0  2  0  0  0  0
    0.7145    0.8250    0.0000 C   0  0  0  0  0  0  0  2  0  0  0  0
  1  2  1  0        0
  2  3  1  0        0
  3  4  4  0        0
  4  5  4  0        0
  5  6  4  0        0
  6  7  4  0        0
  7  8  4  0        0
  3  8  4  0        0
  2  9  1  0        0
  9 10  4  0        0
 10 11  4  0        0
 11 12  4  0        0
 12 13  4  0        0
 13 14  4  0        0
  9 14  4  0        0
  2 15  1  0        0
 15 16  4  0        0
 16 17  4  0        0
 17 18  4  0        0
 18 19  4  0        0
 19 20  4  0        0
 15 20  4  0        0
M  END
$$$$

CDXL12

 13 14  0  0  0  0  0  0  0  0999 V2000
    0.7145    1.0313    0.0000 C   0  0  0  0  0  0  0  2  0  0  0  0
    1.4289    1.4437    0.0000 C   0  0  0  0  0  0  0  2  0  0  0  0
    2.1434    1.0312    0.0000 C   0  0  0  0  0  0  0  2  0  0  0  0
    2.1434    0.2062    0.0000 C   0  0  0  0  0  0  0  2  0  0  0  0
    1.4289   -0.2063    0.0000 C   0  0  0  0  0  0  0  2  0  0  0  0
    0.7145    0.2062    0.0000 C   0  0  0  0  0  0  0  2  0  0  0  0
    0.0000   -0.2062    0.0000 C   0  0  0  0  0  0  0  2  0  0  0  0
    0.0000   -1.0313    0.0000 C   0  0  0  0  0  0  0  2  0  0  0  0
   -0.7145   -1.4437    0.0000 C   0  0  0  0  0  0  0  2  0  0  0  0
   -1.4289   -1.0313    0.0000 C   0  0  0  0  0  0  0  2  0  0  0  0
   -2.1434   -1.4437    0.0000 C   0  0  0  0  0  0  0  2  0  0  0  0
   -1.4289   -0.2062    0.0000 C   0  0  0  0  0  0  0  2  0  0  0  0
   -0.7145    0.2062    0.0000 C   0  0  0  0  0  0  0  2  0  0  0  0
  1  2  4  0        0
  2  3  4  0        0
  3  4  4  0        0
  4  5  4  0        0
  5  6  4  0        0
  1  6  4  0        0
  6  7  1  0        0
  7  8  4  0        0
  8  9  4  0        0
  9 10  4  0        0
 10 11  1  0        0
 10 12  4  0        0
 12 13  4  0        0
  7 13  4  0        0
M  END
$$$$

CDXL12

 10 10  0  0  0  0  0  0  0  0999 V2000
   -2.1434    0.8250    0.0000 O   0  0  0  0  0  0  0  2  0  0  0  0
   -1.4289    0.4125    0.0000 C   0  0  0  0  0  0  0  2  0  0  0  0
   -0.7145    0.8250    0.0000 C   0  0  0  0  0  0  0  2  0  0  0  0
    0.0000    0.4125    0.0000 C   0  0  0  0  0  0  0  2  0  0  0  0
    0.0000   -0.4125    0.0000 C   0  0  0  0  0  0  0  2  0  0  0  0
   -0.7145   -0.8250    0.0000 C   0  0  0  0  0  0  0  2  0  0  0  0
   -1.4289   -0.4125    0.0000 C   0  0  0  0  0  0  0  2  0  0  0  0
    0.7145   -0.8250    0.0000 C   0  0  0  0  0  0  0  2  0  0  0  0
    1.4289   -0.4125    0.0000 C   0  0  0  0  0  0  0  2  0  0  0  0
    2.1434   -0.8250    0.0000 C   0  0  0  0  0  0  0  2  0  0  0  0
  1  2  1  0        0
  2  3  4  0        0
  3  4  4  0        0
  4  5  4  0        0
  5  6  4  0        0
  6  7  4  0        0
  2  7  4  0        0
  5  8  1  0        0
  8  9  1  0        0
  9 10  1  0        0
M  END
$$$$

CDXL12

  9  8  0  0  0  0  0  0  0  0999 V2000
    2.1434   -0.4125    0.0000 O   0  0  0  0  0  0  0  2  0  0  0  0
    1.4289   -0.8250    0.0000 C   0  0  0  0  0  0  0  2  0  0  0  0
    0.7145   -0.4125    0.0000 C   0  0  0  0  0  0  0  2  0  0  0  0
    0.0000   -0.8250    0.0000 C   0  0  0  0  0  0  0  2  0  0  0  0
   -0.7145   -0.4125    0.0000 C   0  0  0  0  0  0  0  2  0  0  0  0
   -1.4289   -0.8250    0.0000 C   0  0  0  0  0  0  0  2  0  0  0  0
   -2.1434   -0.4125    0.0000 C   0  0  0  0  0  0  0  2  0  0  0  0
    0.7145    0.4125    0.0000 C   0  0  0  0  0  0  0  2  0  0  0  0
    1.4289    0.8250    0.0000 C   0  0  0  0  0  0  0  2  0  0  0  0
  1  2  2  0        0
  2  3  1  0        0
  3  4  2  0        0
  4  5  1  0        0
  5  6  1  0        0
  6  7  1  0        0
  3  8  1  0        0
  8  9  1  0        0
M  END
$$$$

CDXL12

  5  4  0  0  0  0  0  0  0  0999 V2000
    0.0000   -0.2062    0.0000 C   0  0  0  0  0  0  0  2  0  0  0  0
   -0.7145    0.2062    0.0000 C   0  0  0  0  0  0  0  2  0  0  0  0
   -1.4289   -0.2062    0.0000 C   0  0  0  0  0  0  0  2  0  0  0  0
    0.7145    0.2062    0.0000 C   0  0  0  0  0  0  0  2  0  0  0  0
    1.4289   -0.2062    0.0000 C   0  0  0  0  0  0  0  2  0  0  0  0
  1  2  2  0        0
  2  3  1  0        0
  1  4  1  0        0
  4  5  1  0        0
M  END
$$$$

CDXL12

  8  7  0  0  0  0  0  0  0  0999 V2000
    0.0000    1.0312    0.0000 O   0  0  0  0  0  0  0  2  0  0  0  0
    0.0000    0.2062    0.0000 C   0  0  0  0  0  0  0  2  0  0  0  0
    0.7145   -0.2063    0.0000 O   0  0  0  0  0  0  0  2  0  0  0  0
    1.4289    0.2062    0.0000 Na  0  0  0  0  0  0  0  2  0  0  0  0
   -0.7145   -0.2063    0.0000 C   0  0  0  0  0  0  0  2  0  0  0  0
   -1.4289   -0.6187    0.0000 Cl  0  0  0  0  0  0  0  2  0  0  0  0
   -0.7145   -1.0312    0.0000 Cl  0  0  0  0  0  0  0  2  0  0  0  0
   -1.4289    0.2062    0.0000 Cl  0  0  0  0  0  0  0  2  0  0  0  0
  1  2  2  0        0
  2  3  1  0        0
  3  4  1  0        0
  2  5  1  0        0
  5  6  1  0        0
  5  7  1  0        0
  5  8  1  0        0
M  END
$$$$

CDXL12

 19 20  0  0  0  0  0  0  0  0999 V2000
   -1.4289   -0.7697    0.0000 C   0  0  0  0  0  0  0  2  0  0  0  0
   -2.1434   -1.1822    0.0000 C   0  0  0  0  0  0  0  2  0  0  0  0
   -2.8579   -0.7697    0.0000 C   0  0  0  0  0  0  0  2  0  0  0  0
   -3.5724   -1.1822    0.0000 N   0  0  0  0  0  0  0  2  0  0  0  0
   -2.8579    0.0553    0.0000 C   0  0  0  0  0  0  0  2  0  0  0  0
   -2.1434    0.4678    0.0000 C   0  0  0  0  0  0  0  2  0  0  0  0
   -1.4289    0.0553    0.0000 C   0  0  0  0  0  0  0  2  0  0  0  0
   -0.7145    0.4678    0.0000 S   0  0  0  0  0  0  0  2  0  0  0  0
   -0.3020   -0.2467    0.0000 O   0  0  0  0  0  0  0  2  0  0  0  0
   -1.1270    1.1822    0.0000 O   0  0  0  0  0  0  0  2  0  0  0  0
   -0.0000    0.8803    0.0000 N   0  0  0  0  0  0  0  2  0  0  0  0
    0.7145    0.4678    0.0000 C   0  0  0  0  0  0  0  2  0  0  0  0
    1.4289    0.8803    0.0000 N   0  0  0  0  0  0  0  2  0  0  0  0
    2.1434    0.4678    0.0000 C   0  0  0  0  0  0  0  2  0  0  0  0
    2.1434   -0.3572    0.0000 C   0  0  0  0  0  0  0  2  0  0  0  0
    2.8579   -0.7697    0.0000 O   0  0  0  0  0  0  0  2  0  0  0  0
    3.5724   -0.3572    0.0000 C   0  0  0  0  0  0  0  2  0  0  0  0
    1.4289   -0.7697    0.0000 C   0  0  0  0  0  0  0  2  0  0  0  0
    0.7145   -0.3572    0.0000 N   0  0  0  0  0  0  0  2  0  0  0  0
  1  2  4  0        0
  2  3  4  0        0
  3  4  1  0        0
  3  5  4  0        0
  5  6  4  0        0
  6  7  4  0        0
  1  7  4  0        0
  7  8  1  0        0
  8  9  2  0        0
  8 10  2  0        0
  8 11  1  0        0
 11 12  1  0        0
 12 13  4  0        0
 13 14  4  0        0
 14 15  4  0        0
 15 16  1  0        0
 16 17  1  0        0
 15 18  4  0        0
 18 19  4  0        0
 12 19  4  0        0
M  END
$$$$

CDXL12

  7  6  0  0  0  0  0  0  0  0999 V2000
    1.4289   -0.1510    0.0000 C   0  0  0  0  0  0  0  2  0  0  0  0
    0.7145   -0.5635    0.0000 C   0  0  0  0  0  0  0  2  0  0  0  0
    0.0000   -0.1510    0.0000 N   0  0  0  0  0  0  0  2  0  0  0  0
   -0.7145   -0.5635    0.0000 C   0  0  0  0  0  0  0  2  0  0  0  0
   -1.4289   -0.1510    0.0000 C   0  0  0  0  0  0  0  2  0  0  0  0
    0.4125    0.5635    0.0000 H   0  0  0  0  0  0  0  2  0  0  0  0
   -0.4125    0.5635    0.0000 Cl  0  0  0  0  0  0  0  2  0  0  0  0
  1  2  1  0        0
  2  3  1  0        0
  3  4  1  0        0
  4  5  1  0        0
  3  6  1  0        0
  3  7  1  0        0
M  END
$$$$

CDXL12

 11 10  0  0  0  0  0  0  0  0999 V2000
   -1.7862   -0.2615    0.0000 N   0  0  0  0  0  0  0  2  0  0  0  0
   -2.1987   -0.9760    0.0000 H   0  0  0  0  0  0  0  2  0  0  0  0
   -1.3737   -0.9760    0.0000 H   0  0  0  0  0  0  0  2  0  0  0  0
   -2.5006    0.1510    0.0000 Cl  0  0  0  0  0  0  0  2  0  0  0  0
   -1.0717    0.1510    0.0000 C   0  0  0  0  0  0  0  2  0  0  0  0
   -0.3572   -0.2615    0.0000 C   0  0  0  0  0  0  0  2  0  0  0  0
    0.3572    0.1510    0.0000 C   0  0  0  0  0  0  0  2  0  0  0  0
    1.0717   -0.2615    0.0000 C   0  0  0  0  0  0  0  2  0  0  0  0
    1.7862    0.1510    0.0000 C   0  0  0  0  0  0  0  2  0  0  0  0
    1.7862    0.9760    0.0000 O   0  0  0  0  0  0  0  2  0  0  0  0
    2.5006   -0.2615    0.0000 O   0  0  0  0  0  0  0  2  0  0  0  0
  1  2  1  0        0
  1  3  1  0        0
  1  4  1  0        0
  1  5  1  0        0
  5  6  1  0        0
  6  7  1  0        0
  7  8  1  0        0
  8  9  1  0        0
  9 10  2  0        0
  9 11  1  0        0
M  END
$$$$

CDXL12

 20 21  0  0  0  0  0  0  0  0999 V2000
   -2.1434   -0.4678    0.0000 C   0  0  0  0  0  0  0  2  0  0  0  0
   -2.8579   -0.0553    0.0000 C   0  0  0  0  0  0  0  2  0  0  0  0
   -2.8579    0.7697    0.0000 C   0  0  0  0  0  0  0  2  0  0  0  0
   -3.5724    1.1822    0.0000 C   0  0  0  0  0  0  0  2  0  0  0  0
   -2.1434    1.1822    0.0000 C   0  0  0  0  0  0  0  2  0  0  0  0
   -1.4289    0.7697    0.0000 C   0  0  0  0  0  0  0  2  0  0  0  0
   -1.4289   -0.0553    0.0000 C   0  0  0  0  0  0  0  2  0  0  0  0
   -0.7145   -0.4678    0.0000 S   0  0  0  0  0  0  0  2  0  0  0  0
   -0.3020    0.2467    0.0000 O   0  0  0  0  0  0  0  2  0  0  0  0
   -1.1270   -1.1822    0.0000 O   0  0  0  0  0  0  0  2  0  0  0  0
    0.0000   -0.8803    0.0000 N   0  0  0  0  0  0  0  2  0  0  0  0
    0.7145   -0.4678    0.0000 C   0  0  0  0  0  0  0  2  0  0  0  0
    0.7145    0.3572    0.0000 O   0  0  0  0  0  0  0  2  0  0  0  0
    1.4289   -0.8803    0.0000 N   0  0  0  0  0  0  0  2  0  0  0  0
    2.1434   -0.4678    0.0000 C   0  0  0  0  0  0  0  2  0  0  0  0
    2.1434    0.3572    0.0000 C   0  0  0  0  0  0  0  2  0  0  0  0
    2.8579    0.7697    0.0000 C   0  0  0  0  0  0  0  2  0  0  0  0
    3.5724    0.3572    0.0000 C   0  0  0  0  0  0  0  2  0  0  0  0
    3.5724   -0.4678    0.0000 C   0  0  0  0  0  0  0  2  0  0  0  0
    2.8579   -0.8803    0.0000 C   0  0  0  0  0  0  0  2  0  0  0  0
  1  2  4  0        0
  2  3  4  0        0
  3  4  1  0        0
  3  5  4  0        0
  5  6  4  0        0
  6  7  4  0        0
  1  7  4  0        0
  7  8  1  0        0
  8  9  2  0        0
  8 10  2  0        0
  8 11  1  0        0
 11 12  1  0        0
 12 13  2  0        0
 12 14  1  0        0
 14 15  1  0        0
 15 16  1  0        0
 16 17  1  0        0
 17 18  1  0        0
 18 19  1  0        0
 19 20  1  0        0
 15 20  1  0        0
M  END
$$$$

CDXL12

 14 14  0  0  0  0  0  0  0  0999 V2000
    2.8579   -1.4438    0.0000 C   0  0  0  0  0  0  0  2  0  0  0  0
    2.1434   -1.0313    0.0000 C   0  0  0  0  0  0  0  2  0  0  0  0
    1.4289   -1.4438    0.0000 N   0  0  0  0  0  0  0  2  0  0  0  0
    0.7145   -1.0313    0.0000 C   0  0  0  0  0  0  0  2  0  0  0  0
    0.0000   -1.4438    0.0000 N   0  0  0  0  0  0  0  2  0  0  0  0
   -0.7145   -1.0313    0.0000 C   0  0  0  0  0  0  0  2  0  0  0  0
   -1.4289   -1.4438    0.0000 N   0  0  0  0  0  0  0  2  0  0  0  0
   -2.1434   -1.0313    0.0000 C   0  0  0  0  0  0  0  2  0  0  0  0
   -2.8579   -1.4438    0.0000 C   0  0  0  0  0  0  0  2  0  0  0  0
   -0.7145   -0.2062    0.0000 N   0  0  0  0  0  0  0  2  0  0  0  0
    0.0000    0.2062    0.0000 C   0  0  0  0  0  0  0  2  0  0  0  0
    0.0000    1.0313    0.0000 O   0  0  0  0  0  0  0  2  0  0  0  0
   -0.7145    1.4438    0.0000 C   0  0  0  0  0  0  0  2  0  0  0  0
    0.7145   -0.2062    0.0000 N   0  0  0  0  0  0  0  2  0  0  0  0
  1  2  1  0        0
  2  3  1  0        0
  3  4  1  0        0
  4  5  4  0        0
  5  6  4  0        0
  6  7  1  0        0
  7  8  1  0        0
  8  9  1  0        0
  6 10  4  0        0
 10 11  4  0        0
 11 12  1  0        0
 12 13  1  0        0
 11 14  4  0        0
  4 14  4  0        0
M  END
$$$$

CDXL12

  7  6  0  0  0  0  0  0  0  0999 V2000
    0.7145    1.0313    0.0000 O   0  0  0  0  0  0  0  2  0  0  0  0
    0.7145    0.2062    0.0000 C   0  0  0  0  0  0  0  2  0  0  0  0
    0.0000   -0.2062    0.0000 N   0  0  0  0  0  0  0  2  0  0  0  0
   -0.7145    0.2062    0.0000 N   0  0  0  0  0  0  0  2  0  0  0  0
   -1.4289   -0.2062    0.0000 O   0  0  0  0  0  0  0  2  0  0  0  0
    0.0000   -1.0313    0.0000 C   0  0  0  0  0  0  0  2  0  0  0  0
    1.4289   -0.2062    0.0000 N   0  0  0  0  0  0  0  2  0  0  0  0
  1  2  2  0        0
  2  3  1  0        0
  3  4  1  0        0
  4  5  2  0        0
  3  6  1  0        0
  2  7  1  0        0
M  END
$$$$

CDXL12

  6  5  0  0  0  0  0  0  0  0999 V2000
   -0.7145   -0.2062    0.0000 C   0  0  0  0  0  0  0  2  0  0  0  0
   -1.4289   -0.6187    0.0000 C   0  0  0  0  0  0  0  2  0  0  0  0
    0.0000   -0.6187    0.0000 C   0  0  0  0  0  0  0  2  0  0  0  0
    0.7145   -0.2062    0.0000 C   0  0  0  0  0  0  0  2  0  0  0  0
    0.7145    0.6187    0.0000 C   0  0  0  0  0  0  0  2  0  0  0  0
    1.4289   -0.6187    0.0000 C   0  0  0  0  0  0  0  2  0  0  0  0
  1  2  2  0        0
  1  3  1  0        0
  3  4  1  0        0
  4  5  1  0        0
  4  6  1  0        0
M  END
$$$$

CDXL12

 11 10  0  0  0  0  0  0  0  0999 V2000
    2.5006    0.6187    0.0000 O   0  0  0  0  0  0  0  2  0  0  0  0
    2.5006   -0.2062    0.0000 C   0  0  0  0  0  0  0  2  0  0  0  0
    1.7862   -0.6187    0.0000 C   0  0  0  0  0  0  0  2  0  0  0  0
    1.0717   -0.2062    0.0000 C   0  0  0  0  0  0  0  2  0  0  0  0
    0.3572   -0.6187    0.0000 C   0  0  0  0  0  0  0  2  0  0  0  0
   -0.3572   -0.2062    0.0000 C   0  0  0  0  0  0  0  2  0  0  0  0
   -1.0717   -0.6187    0.0000 C   0  0  0  0  0  0  0  2  0  0  0  0
   -1.7862   -0.2062    0.0000 C   0  0  0  0  0  0  0  2  0  0  0  0
   -2.5006   -0.6187    0.0000 C   0  0  0  0  0  0  0  2  0  0  0  0
   -3.2151   -0.2062    0.0000 C   0  0  0  0  0  0  0  2  0  0  0  0
    3.2151   -0.6187    0.0000 C   0  0  0  0  0  0  0  2  0  0  0  0
  1  2  2  0        0
  2  3  1  0        0
  3  4  1  0        0
  4  5  1  0        0
  5  6  1  0        0
  6  7  1  0        0
  7  8  1  0        0
  8  9  1  0        0
  9 10  1  0        0
  2 11  1  0        0
M  END
$$$$

CDXL12

 10  9  0  0  0  0  0  0  0  0999 V2000
   -3.2151   -0.2062    0.0000 Br  0  0  0  0  0  0  0  2  0  0  0  0
   -2.5006    0.2062    0.0000 C   0  0  0  0  0  0  0  2  0  0  0  0
   -1.7862   -0.2062    0.0000 C   0  0  0  0  0  0  0  2  0  0  0  0
   -1.0717    0.2062    0.0000 C   0  0  0  0  0  0  0  2  0  0  0  0
   -0.3572   -0.2062    0.0000 C   0  0  0  0  0  0  0  2  0  0  0  0
    0.3572    0.2062    0.0000 C   0  0  0  0  0  0  0  2  0  0  0  0
    1.0717   -0.2062    0.0000 C   0  0  0  0  0  0  0  2  0  0  0  0
    1.7862    0.2062    0.0000 C   0  0  0  0  0  0  0  2  0  0  0  0
    2.5006   -0.2062    0.0000 C   0  0  0  0  0  0  0  2  0  0  0  0
    3.2151    0.2062    0.0000 C   0  0  0  0  0  0  0  2  0  0  0  0
  1  2  1  0        0
  2  3  1  0        0
  3  4  1  0        0
  4  5  1  0        0
  5  6  1  0        0
  6  7  1  0        0
  7  8  1  0        0
  8  9  1  0        0
  9 10  1  0        0
M  END
$$$$

CDXL12

  8  8  0  0  0  0  0  0  0  0999 V2000
    0.3572    0.4125    0.0000 C   0  0  0  0  0  0  0  2  0  0  0  0
    0.3572   -0.4125    0.0000 C   0  0  0  0  0  0  0  2  0  0  0  0
   -0.3572   -0.8250    0.0000 C   0  0  0  0  0  0  0  2  0  0  0  0
   -1.0717   -0.4125    0.0000 C   0  0  0  0  0  0  0  2  0  0  0  0
   -1.0717    0.4125    0.0000 C   0  0  0  0  0  0  0  2  0  0  0  0
   -0.3572    0.8250    0.0000 C   0  0  0  0  0  0  0  2  0  0  0  0
    1.0717   -0.8250    0.0000 Br  0  0  0  0  0  0  0  2  0  0  0  0
    1.0717    0.8250    0.0000 Cl  0  0  0  0  0  0  0  2  0  0  0  0
  1  2  4  0        0
  2  3  4  0        0
  3  4  4  0        0
  4  5  4  0        0
  5  6  4  0        0
  1  6  4  0        0
  2  7  1  0        0
  1  8  1  0        0
M  END
$$$$

CDXL12

  9  9  0  0  0  0  0  0  0  0999 V2000
    1.0717   -0.8250    0.0000 N   0  0  0  0  0  0  0  2  0  0  0  0
    0.3572   -0.4125    0.0000 C   0  0  0  0  0  0  0  2  0  0  0  0
    0.3572    0.4125    0.0000 C   0  0  0  0  0  0  0  2  0  0  0  0
   -0.3572    0.8250    0.0000 C   0  0  0  0  0  0  0  2  0  0  0  0
   -1.0717    0.4125    0.0000 C   0  0  0  0  0  0  0  2  0  0  0  0
   -1.0717   -0.4125    0.0000 C   0  0  0  0  0  0  0  2  0  0  0  0
   -1.7862   -0.8250    0.0000 C   0  0  0  0  0  0  0  2  0  0  0  0
   -0.3572   -0.8250    0.0000 C   0  0  0  0  0  0  0  2  0  0  0  0
    1.7862   -0.4125    0.0000 C   0  0  0  0  0  0  0  2  0  0  0  0
  1  2  1  0        0
  2  3  4  0        0
  3  4  4  0        0
  4  5  4  0        0
  5  6  4  0        0
  6  7  1  0        0
  6  8  4  0        0
  2  8  4  0        0
  1  9  1  0        0
M  END
$$$$

CDXL12

 10 10  0  0  0  0  0  0  0  0999 V2000
    0.0000    1.2375    0.0000 O   0  0  0  0  0  0  0  2  0  0  0  0
    0.0000    0.4125    0.0000 C   0  0  0  0  0  0  0  2  0  0  0  0
    0.7145    0.0000    0.0000 C   0  0  0  0  0  0  0  2  0  0  0  0
    0.7145   -0.8250    0.0000 C   0  0  0  0  0  0  0  2  0  0  0  0
    0.0000   -1.2375    0.0000 C   0  0  0  0  0  0  0  2  0  0  0  0
   -0.7145   -0.8250    0.0000 C   0  0  0  0  0  0  0  2  0  0  0  0
   -1.4289   -1.2375    0.0000 C   0  0  0  0  0  0  0  2  0  0  0  0
   -0.7145    0.0000    0.0000 C   0  0  0  0  0  0  0  2  0  0  0  0
    1.4289   -1.2375    0.0000 C   0  0  0  0  0  0  0  2  0  0  0  0
    1.4289    0.4125    0.0000 C   0  0  0  0  0  0  0  2  0  0  0  0
  1  2  1  0        0
  2  3  4  0        0
  3  4  4  0        0
  4  5  4  0        0
  5  6  4  0        0
  6  7  1  0        0
  6  8  4  0        0
  2  8  4  0        0
  4  9  1  0        0
  3 10  1  0        0
M  END
$$$$

CDXL12

 11 11  0  0  0  0  0  0  0  0999 V2000
   -0.7145   -0.8250    0.0000 C   0  0  0  0  0  0  0  2  0  0  0  0
   -0.7145    0.0000    0.0000 C   0  0  0  0  0  0  0  2  0  0  0  0
    0.0000    0.4125    0.0000 C   0  0  0  0  0  0  0  2  0  0  0  0
    0.7145   -0.0000    0.0000 C   0  0  0  0  0  0  0  2  0  0  0  0
    0.7145   -0.8250    0.0000 C   0  0  0  0  0  0  0  2  0  0  0  0
    1.4289   -1.2375    0.0000 C   0  0  0  0  0  0  0  2  0  0  0  0
    0.0000   -1.2375    0.0000 C   0  0  0  0  0  0  0  2  0  0  0  0
    1.4289    0.4125    0.0000 C   0  0  0  0  0  0  0  2  0  0  0  0
    0.0000    1.2375    0.0000 C   0  0  0  0  0  0  0  2  0  0  0  0
   -1.4289    0.4125    0.0000 C   0  0  0  0  0  0  0  2  0  0  0  0
   -1.4289   -1.2375    0.0000 C   0  0  0  0  0  0  0  2  0  0  0  0
  1  2  4  0        0
  2  3  4  0        0
  3  4  4  0        0
  4  5  4  0        0
  5  6  1  0        0
  5  7  4  0        0
  1  7  4  0        0
  4  8  1  0        0
  3  9  1  0        0
  2 10  1  0        0
  1 11  1  0        0
M  END
$$$$

CDXL12

 11 11  0  0  0  0  0  0  0  0999 V2000
    1.4289    0.4125    0.0000 O   0  0  0  0  0  0  0  2  0  0  0  0
    0.7145    0.0000    0.0000 C   0  0  0  0  0  0  0  2  0  0  0  0
    0.7145   -0.8250    0.0000 C   0  0  0  0  0  0  0  2  0  0  0  0
    0.0000   -1.2375    0.0000 C   0  0  0  0  0  0  0  2  0  0  0  0
   -0.7145   -0.8250    0.0000 C   0  0  0  0  0  0  0  2  0  0  0  0
   -1.4289   -1.2375    0.0000 O   0  0  0  0  0  0  0  2  0  0  0  0
   -0.7145    0.0000    0.0000 C   0  0  0  0  0  0  0  2  0  0  0  0
   -1.4289    0.4125    0.0000 C   0  0  0  0  0  0  0  2  0  0  0  0
    0.0000    0.4125    0.0000 C   0  0  0  0  0  0  0  2  0  0  0  0
    0.0000    1.2375    0.0000 C   0  0  0  0  0  0  0  2  0  0  0  0
    1.4289   -1.2375    0.0000 C   0  0  0  0  0  0  0  2  0  0  0  0
  1  2  1  0        0
  2  3  4  0        0
  3  4  4  0        0
  4  5  4  0        0
  5  6  1  0        0
  5  7  4  0        0
  7  8  1  0        0
  7  9  4  0        0
  2  9  4  0        0
  9 10  1  0        0
  3 11  1  0        0
M  END
$$$$

CDXL12

 11 11  0  0  0  0  0  0  0  0999 V2000
    1.7862   -1.2375    0.0000 C   0  0  0  0  0  0  0  2  0  0  0  0
    1.0717   -0.8250    0.0000 C   0  0  0  0  0  0  0  2  0  0  0  0
    1.0717    0.0000    0.0000 C   0  0  0  0  0  0  0  2  0  0  0  0
    0.3572    0.4125    0.0000 C   0  0  0  0  0  0  0  2  0  0  0  0
   -0.3572   -0.0000    0.0000 C   0  0  0  0  0  0  0  2  0  0  0  0
   -1.0717    0.4125    0.0000 N   0  0  0  0  0  0  0  2  0  0  0  0
   -1.0717    1.2375    0.0000 O   0  0  0  0  0  0  0  2  0  0  0  0
   -1.7862   -0.0000    0.0000 O   0  0  0  0  0  0  0  2  0  0  0  0
   -0.3572   -0.8250    0.0000 C   0  0  0  0  0  0  0  2  0  0  0  0
   -1.0717   -1.2375    0.0000 O   0  0  0  0  0  0  0  2  0  0  0  0
    0.3572   -1.2375    0.0000 C   0  0  0  0  0  0  0  2  0  0  0  0
  1  2  1  0        0
  2  3  4  0        0
  3  4  4  0        0
  4  5  4  0        0
  5  6  1  0        0
  6  7  2  0        0
  6  8  2  0        0
  5  9  4  0        0
  9 10  1  0        0
  9 11  4  0        0
  2 11  4  0        0
M  END
$$$$

CDXL12

 13 13  0  0  0  0  0  0  0  0999 V2000
    0.4125    1.3257    0.0000 Cl  0  0  0  0  0  0  0  2  0  0  0  0
    0.0000    0.6113    0.0000 C   0  0  0  0  0  0  0  2  0  0  0  0
   -0.4125    1.3257    0.0000 Cl  0  0  0  0  0  0  0  2  0  0  0  0
    0.6674    0.1263    0.0000 C   0  0  0  0  0  0  0  2  0  0  0  0
    1.4744   -0.0452    0.0000 Cl  0  0  0  0  0  0  0  2  0  0  0  0
    1.2195    0.7394    0.0000 Cl  0  0  0  0  0  0  0  2  0  0  0  0
    0.4125   -0.6583    0.0000 C   0  0  0  0  0  0  0  2  0  0  0  0
    0.8974   -1.3257    0.0000 Cl  0  0  0  0  0  0  0  2  0  0  0  0
   -0.4125   -0.6583    0.0000 C   0  0  0  0  0  0  0  2  0  0  0  0
   -0.8974   -1.3257    0.0000 Cl  0  0  0  0  0  0  0  2  0  0  0  0
   -0.6674    0.1263    0.0000 C   0  0  0  0  0  0  0  2  0  0  0  0
   -1.2195    0.7394    0.0000 Cl  0  0  0  0  0  0  0  2  0  0  0  0
   -1.4744   -0.0452    0.0000 Cl  0  0  0  0  0  0  0  2  0  0  0  0
  1  2  1  0        0
  2  3  1  0        0
  2  4  1  0        0
  4  5  1  0        0
  4  6  1  0        0
  4  7  1  0        0
  7  8  1  0        0
  7  9  2  0        0
  9 10  1  0        0
  9 11  1  0        0
  2 11  1  0        0
 11 12  1  0        0
 11 13  1  0        0
M  END
$$$$

CDXL12

 13 13  0  0  0  0  0  0  0  0999 V2000
   -2.5006   -0.4125    0.0000 C   0  0  0  0  0  0  0  2  0  0  0  0
   -1.7862   -0.8250    0.0000 C   0  0  0  0  0  0  0  2  0  0  0  0
   -1.0717   -0.4125    0.0000 C   0  0  0  0  0  0  0  2  0  0  0  0
   -1.0717    0.4125    0.0000 O   0  0  0  0  0  0  0  2  0  0  0  0
   -0.3572   -0.8250    0.0000 N   0  0  0  0  0  0  0  2  0  0  0  0
    0.3572   -0.4125    0.0000 C   0  0  0  0  0  0  0  2  0  0  0  0
    0.3572    0.4125    0.0000 C   0  0  0  0  0  0  0  2  0  0  0  0
    1.0717    0.8250    0.0000 C   0  0  0  0  0  0  0  2  0  0  0  0
    1.7862    0.4125    0.0000 C   0  0  0  0  0  0  0  2  0  0  0  0
    2.5006    0.8250    0.0000 Cl  0  0  0  0  0  0  0  2  0  0  0  0
    1.7862   -0.4125    0.0000 C   0  0  0  0  0  0  0  2  0  0  0  0
    2.5006   -0.8250    0.0000 Cl  0  0  0  0  0  0  0  2  0  0  0  0
    1.0717   -0.8250    0.0000 C   0  0  0  0  0  0  0  2  0  0  0  0
  1  2  1  0        0
  2  3  1  0        0
  3  4  2  0        0
  3  5  1  0        0
  5  6  1  0        0
  6  7  4  0        0
  7  8  4  0        0
  8  9  4  0        0
  9 10  1  0        0
  9 11  4  0        0
 11 12  1  0        0
 11 13  4  0        0
  6 13  4  0        0
M  END
$$$$

CDXL12

 15 16  0  0  0  0  0  0  0  0999 V2000
    0.9949    1.6978    0.0000 C   0  0  0  0  0  0  0  2  0  0  0  0
    0.6594    0.9442    0.0000 C   0  0  0  0  0  0  0  2  0  0  0  0
   -0.1476    0.7726    0.0000 N   0  0  0  0  0  0  0  2  0  0  0  0
   -0.2338   -0.0478    0.0000 N   0  0  0  0  0  0  0  2  0  0  0  0
    0.5198   -0.3834    0.0000 C   0  0  0  0  0  0  0  2  0  0  0  0
    0.6914   -1.1904    0.0000 C   0  0  0  0  0  0  0  2  0  0  0  0
    1.0719    0.2297    0.0000 C   0  0  0  0  0  0  0  2  0  0  0  0
    1.8923    0.1435    0.0000 N   0  0  0  0  0  0  0  2  0  0  0  0
    2.3773    0.8109    0.0000 O   0  0  0  0  0  0  0  2  0  0  0  0
   -0.9483   -0.4603    0.0000 C   0  0  0  0  0  0  0  2  0  0  0  0
   -0.9483   -1.2853    0.0000 C   0  0  0  0  0  0  0  2  0  0  0  0
   -1.6628   -1.6978    0.0000 C   0  0  0  0  0  0  0  2  0  0  0  0
   -2.3773   -1.2853    0.0000 C   0  0  0  0  0  0  0  2  0  0  0  0
   -2.3773   -0.4603    0.0000 C   0  0  0  0  0  0  0  2  0  0  0  0
   -1.6628   -0.0478    0.0000 C   0  0  0  0  0  0  0  2  0  0  0  0
  1  2  1  0        0
  2  3  4  0        0
  3  4  4  0        0
  4  5  4  0        0
  5  6  1  0        0
  5  7  4  0        0
  2  7  4  0        0
  7  8  1  0        0
  8  9  2  0        0
  4 10  1  0        0
 10 11  4  0        0
 11 12  4  0        0
 12 13  4  0        0
 13 14  4  0        0
 14 15  4  0        0
 10 15  4  0        0
M  END
$$$$

CDXL12

 17 18  0  0  0  0  0  0  0  0999 V2000
    3.2065    0.2765    0.0000 C   0  0  0  0  0  0  0  2  0  0  0  0
    2.3860    0.1902    0.0000 C   0  0  0  0  0  0  0  2  0  0  0  0
    1.8340    0.8033    0.0000 C   0  0  0  0  0  0  0  2  0  0  0  0
    1.0803    0.4678    0.0000 C   0  0  0  0  0  0  0  2  0  0  0  0
    0.3658    0.8803    0.0000 N   0  0  0  0  0  0  0  2  0  0  0  0
   -0.3486    0.4678    0.0000 S   0  0  0  0  0  0  0  2  0  0  0  0
    0.0639   -0.2467    0.0000 O   0  0  0  0  0  0  0  2  0  0  0  0
   -0.7611    1.1822    0.0000 O   0  0  0  0  0  0  0  2  0  0  0  0
   -1.0631    0.0553    0.0000 C   0  0  0  0  0  0  0  2  0  0  0  0
   -1.0631   -0.7697    0.0000 C   0  0  0  0  0  0  0  2  0  0  0  0
   -1.7776   -1.1822    0.0000 C   0  0  0  0  0  0  0  2  0  0  0  0
   -2.4920   -0.7697    0.0000 C   0  0  0  0  0  0  0  2  0  0  0  0
   -3.2065   -1.1822    0.0000 N   0  0  0  0  0  0  0  2  0  0  0  0
   -2.4920    0.0553    0.0000 C   0  0  0  0  0  0  0  2  0  0  0  0
   -1.7776    0.4678    0.0000 C   0  0  0  0  0  0  0  2  0  0  0  0
    1.1666   -0.3527    0.0000 N   0  0  0  0  0  0  0  2  0  0  0  0
    1.9735   -0.5242    0.0000 O   0  0  0  0  0  0  0  2  0  0  0  0
  1  2  1  0        0
  2  3  4  0        0
  3  4  4  0        0
  4  5  1  0        0
  5  6  1  0        0
  6  7  2  0        0
  6  8  2  0        0
  6  9  1  0        0
  9 10  4  0        0
 10 11  4  0        0
 11 12  4  0        0
 12 13  1  0        0
 12 14  4  0        0
 14 15  4  0        0
  9 15  4  0        0
  4 16  4  0        0
 16 17  4  0        0
  2 17  4  0        0
M  END
$$$$

CDXL12

 18 18  0  0  0  0  0  0  0  0999 V2000
    0.0000   -2.0625    0.0000 C   0  0  0  0  0  0  0  2  0  0  0  0
    0.0000   -1.2375    0.0000 C   0  0  0  0  0  0  0  2  0  0  0  0
   -0.7145   -1.6500    0.0000 C   0  0  0  0  0  0  0  2  0  0  0  0
    0.7145   -1.6500    0.0000 C   0  0  0  0  0  0  0  2  0  0  0  0
    0.0000   -0.4125    0.0000 C   0  0  0  0  0  0  0  2  0  0  0  0
   -0.7145   -0.0000    0.0000 C   0  0  0  0  0  0  0  2  0  0  0  0
   -0.7145    0.8250    0.0000 C   0  0  0  0  0  0  0  2  0  0  0  0
    0.0000    1.2375    0.0000 C   0  0  0  0  0  0  0  2  0  0  0  0
    0.7145    0.8250    0.0000 C   0  0  0  0  0  0  0  2  0  0  0  0
    0.7145   -0.0000    0.0000 C   0  0  0  0  0  0  0  2  0  0  0  0
    1.4289   -0.4125    0.0000 O   0  0  0  0  0  0  0  2  0  0  0  0
    1.4289    1.2375    0.0000 C   0  0  0  0  0  0  0  2  0  0  0  0
    1.4289    2.0625    0.0000 C   0  0  0  0  0  0  0  2  0  0  0  0
    2.1434    1.6500    0.0000 C   0  0  0  0  0  0  0  2  0  0  0  0
    2.1434    0.8250    0.0000 C   0  0  0  0  0  0  0  2  0  0  0  0
   -1.4289    1.2375    0.0000 N   0  0  0  0  0  0  0  2  0  0  0  0
   -1.4289    2.0625    0.0000 O   0  0  0  0  0  0  0  2  0  0  0  0
   -2.1434    0.8250    0.0000 O   0  0  0  0  0  0  0  2  0  0  0  0
  1  2  1  0        0
  2  3  1  0        0
  2  4  1  0        0
  2  5  1  0        0
  5  6  4  0        0
  6  7  4  0        0
  7  8  4  0        0
  8  9  4  0        0
  9 10  4  0        0
  5 10  4  0        0
 10 11  1  0        0
  9 12  1  0        0
 12 13  1  0        0
 12 14  1  0        0
 12 15  1  0        0
  7 16  1  0        0
 16 17  2  0        0
 16 18  2  0        0
M  END
$$$$

CDXL12

 19 19  0  0  0  0  0  0  0  0999 V2000
    1.4289    0.4125    0.0000 O   0  0  0  0  0  0  0  2  0  0  0  0
    0.7145    0.0000    0.0000 C   0  0  0  0  0  0  0  2  0  0  0  0
    0.7145   -0.8250    0.0000 C   0  0  0  0  0  0  0  2  0  0  0  0
    0.0000   -1.2375    0.0000 C   0  0  0  0  0  0  0  2  0  0  0  0
   -0.7145   -0.8250    0.0000 C   0  0  0  0  0  0  0  2  0  0  0  0
   -0.7145    0.0000    0.0000 C   0  0  0  0  0  0  0  2  0  0  0  0
    0.0000    0.4125    0.0000 C   0  0  0  0  0  0  0  2  0  0  0  0
    0.0000    1.2375    0.0000 C   0  0  0  0  0  0  0  2  0  0  0  0
   -0.7145    1.6500    0.0000 C   0  0  0  0  0  0  0  2  0  0  0  0
    0.0000    2.0625    0.0000 C   0  0  0  0  0  0  0  2  0  0  0  0
    0.7145    1.6500    0.0000 C   0  0  0  0  0  0  0  2  0  0  0  0
   -1.4289   -1.2375    0.0000 C   0  0  0  0  0  0  0  2  0  0  0  0
   -1.4289   -2.0625    0.0000 C   0  0  0  0  0  0  0  2  0  0  0  0
   -2.1434   -1.6500    0.0000 C   0  0  0  0  0  0  0  2  0  0  0  0
   -2.1434   -0.8250    0.0000 C   0  0  0  0  0  0  0  2  0  0  0  0
    1.4289   -1.2375    0.0000 C   0  0  0  0  0  0  0  2  0  0  0  0
    2.1434   -1.6500    0.0000 C   0  0  0  0  0  0  0  2  0  0  0  0
    1.4289   -2.0625    0.0000 C   0  0  0  0  0  0  0  2  0  0  0  0
    2.1434   -0.8250    0.0000 C   0  0  0  0  0  0  0  2  0  0  0  0
  1  2  1  0        0
  2  3  4  0        0
  3  4  4  0        0
  4  5  4  0        0
  5  6  4  0        0
  6  7  4  0        0
  2  7  4  0        0
  7  8  1  0        0
  8  9  1  0        0
  8 10  1  0        0
  8 11  1  0        0
  5 12  1  0        0
 12 13  1  0        0
 12 14  1  0        0
 12 15  1  0        0
  3 16  1  0        0
 16 17  1  0        0
 16 18  1  0        0
 16 19  1  0        0
M  END
$$$$

CDXL12

 23 23  0  0  0  0  0  0  0  0999 V2000
    3.2151    1.4438    0.0000 C   0  0  0  0  0  0  0  2  0  0  0  0
    3.2151    0.6188    0.0000 C   0  0  0  0  0  0  0  2  0  0  0  0
    3.9296    0.2062    0.0000 C   0  0  0  0  0  0  0  2  0  0  0  0
    2.5006    0.2062    0.0000 O   0  0  0  0  0  0  0  2  0  0  0  0
    1.7862    0.6187    0.0000 P   0  0  0  0  0  0  0  2  0  0  0  0
    1.7862    1.4438    0.0000 S   0  0  0  0  0  0  0  2  0  0  0  0
    1.7862   -0.2062    0.0000 O   0  0  0  0  0  0  0  2  0  0  0  0
    2.5006   -0.6188    0.0000 C   0  0  0  0  0  0  0  2  0  0  0  0
    3.2151   -0.2062    0.0000 C   0  0  0  0  0  0  0  2  0  0  0  0
    2.5006   -1.4438    0.0000 C   0  0  0  0  0  0  0  2  0  0  0  0
    1.0717    0.2062    0.0000 S   0  0  0  0  0  0  0  2  0  0  0  0
    0.3572    0.6187    0.0000 C   0  0  0  0  0  0  0  2  0  0  0  0
   -0.3572    0.2062    0.0000 C   0  0  0  0  0  0  0  2  0  0  0  0
   -1.0717    0.6187    0.0000 N   0  0  0  0  0  0  0  2  0  0  0  0
   -1.7862    0.2062    0.0000 S   0  0  0  0  0  0  0  2  0  0  0  0
   -2.1987    0.9207    0.0000 O   0  0  0  0  0  0  0  2  0  0  0  0
   -1.3737   -0.5082    0.0000 O   0  0  0  0  0  0  0  2  0  0  0  0
   -2.5006   -0.2062    0.0000 C   0  0  0  0  0  0  0  2  0  0  0  0
   -2.5006   -1.0313    0.0000 C   0  0  0  0  0  0  0  2  0  0  0  0
   -3.2151   -1.4438    0.0000 C   0  0  0  0  0  0  0  2  0  0  0  0
   -3.9296   -1.0313    0.0000 C   0  0  0  0  0  0  0  2  0  0  0  0
   -3.9296   -0.2062    0.0000 C   0  0  0  0  0  0  0  2  0  0  0  0
   -3.2151    0.2062    0.0000 C   0  0  0  0  0  0  0  2  0  0  0  0
  1  2  1  0        0
  2  3  1  0        0
  2  4  1  0        0
  4  5  1  0        0
  5  6  2  0        0
  5  7  1  0        0
  7  8  1  0        0
  8  9  1  0        0
  8 10  1  0        0
  5 11  1  0        0
 11 12  1  0        0
 12 13  1  0        0
 13 14  1  0        0
 14 15  1  0        0
 15 16  2  0        0
 15 17  2  0        0
 15 18  1  0        0
 18 19  4  0        0
 19 20  4  0        0
 20 21  4  0        0
 21 22  4  0        0
 22 23  4  0        0
 18 23  4  0        0
M  END
$$$$

CDXL12

 24 26  0  0  0  0  0  0  0  0999 V2000
    0.7145   -1.0313    0.0000 C   0  0  0  0  0  0  0  2  0  0  0  0
    0.0000   -1.4437    0.0000 C   0  0  0  0  0  0  0  2  0  0  0  0
   -0.7145   -1.0313    0.0000 C   0  0  0  0  0  0  0  2  0  0  0  0
   -0.7145   -0.2063    0.0000 C   0  0  0  0  0  0  0  2  0  0  0  0
   -1.4289    0.2062    0.0000 C   0  0  0  0  0  0  0  2  0  0  0  0
   -1.4289    1.0312    0.0000 O   0  0  0  0  0  0  0  2  0  0  0  0
   -2.1434   -0.2063    0.0000 O   0  0  0  0  0  0  0  2  0  0  0  0
   -2.8579    0.2062    0.0000 C   0  0  0  0  0  0  0  2  0  0  0  0
   -3.5724   -0.2063    0.0000 C   0  0  0  0  0  0  0  2  0  0  0  0
   -4.2868    0.2062    0.0000 C   0  0  0  0  0  0  0  2  0  0  0  0
   -4.2868    1.0312    0.0000 C   0  0  0  0  0  0  0  2  0  0  0  0
   -3.5724    1.4437    0.0000 C   0  0  0  0  0  0  0  2  0  0  0  0
   -2.8579    1.0312    0.0000 C   0  0  0  0  0  0  0  2  0  0  0  0
    0.0000    0.2062    0.0000 C   0  0  0  0  0  0  0  2  0  0  0  0
    0.7145   -0.2063    0.0000 C   0  0  0  0  0  0  0  2  0  0  0  0
    1.4289    0.2062    0.0000 C   0  0  0  0  0  0  0  2  0  0  0  0
    1.4289    1.0312    0.0000 O   0  0  0  0  0  0  0  2  0  0  0  0
    2.1434   -0.2063    0.0000 O   0  0  0  0  0  0  0  2  0  0  0  0
    2.8579    0.2062    0.0000 C   0  0  0  0  0  0  0  2  0  0  0  0
    2.8579    1.0312    0.0000 C   0  0  0  0  0  0  0  2  0  0  0  0
    3.5724    1.4437    0.0000 C   0  0  0  0  0  0  0  2  0  0  0  0
    4.2868    1.0312    0.0000 C   0  0  0  0  0  0  0  2  0  0  0  0
    4.2868    0.2062    0.0000 C   0  0  0  0  0  0  0  2  0  0  0  0
    3.5724   -0.2063    0.0000 C   0  0  0  0  0  0  0  2  0  0  0  0
  1  2  4  0        0
  2  3  4  0        0
  3  4  4  0        0
  4  5  1  0        0
  5  6  2  0        0
  5  7  1  0        0
  7  8  1  0        0
  8  9  4  0        0
  9 10  4  0        0
 10 11  4  0        0
 11 12  4  0        0
 12 13  4  0        0
  8 13  4  0        0
  4 14  4  0        0
 14 15  4  0        0
  1 15  4  0        0
 15 16  1  0        0
 16 17  2  0        0
 16 18  1  0        0
 18 19  1  0        0
 19 20  4  0        0
 20 21  4  0        0
 21 22  4  0        0
 22 23  4  0        0
 23 24  4  0        0
 19 24  4  0        0
M  END
$$$$

CDXL12

  7  6  0  0  0  0  0  0  0  0999 V2000
    0.0000    0.8250    0.0000 O   0  0  0  0  0  0  0  2  0  0  0  0
    0.0000   -0.0000    0.0000 P   0  0  0  0  0  0  0  2  0  0  0  0
    0.7145   -0.4125    0.0000 O   0  0  0  0  0  0  0  2  0  0  0  0
    1.4289    0.0000    0.0000 C   0  0  0  0  0  0  0  2  0  0  0  0
   -0.7145   -0.4125    0.0000 O   0  0  0  0  0  0  0  2  0  0  0  0
   -1.4289   -0.0000    0.0000 C   0  0  0  0  0  0  0  2  0  0  0  0
    0.0000   -0.8250    0.0000 C   0  0  0  0  0  0  0  2  0  0  0  0
  1  2  2  0        0
  2  3  1  0        0
  3  4  1  0        0
  2  5  1  0        0
  5  6  1  0        0
  2  7  1  0        0
M  END
$$$$

CDXL12

  8  7  0  0  0  0  0  0  0  0999 V2000
    0.7145    1.2375    0.0000 O   0  0  0  0  0  0  0  2  0  0  0  0
    0.7145    0.4125    0.0000 C   0  0  0  0  0  0  0  2  0  0  0  0
    0.0000   -0.0000    0.0000 N   0  0  0  0  0  0  0  2  0  0  0  0
   -0.7145    0.4125    0.0000 N   0  0  0  0  0  0  0  2  0  0  0  0
   -1.4289   -0.0000    0.0000 O   0  0  0  0  0  0  0  2  0  0  0  0
    0.0000   -0.8250    0.0000 C   0  0  0  0  0  0  0  2  0  0  0  0
    0.7145   -1.2375    0.0000 C   0  0  0  0  0  0  0  2  0  0  0  0
    1.4289   -0.0000    0.0000 N   0  0  0  0  0  0  0  2  0  0  0  0
  1  2  2  0        0
  2  3  1  0        0
  3  4  1  0        0
  4  5  2  0        0
  3  6  1  0        0
  6  7  1  0        0
  2  8  1  0        0
M  END
$$$$

CDXL12

 12 11  0  0  0  0  0  0  0  0999 V2000
    0.3572   -1.6500    0.0000 O   0  0  0  0  0  0  0  2  0  0  0  0
    0.3572   -0.8250    0.0000 C   0  0  0  0  0  0  0  2  0  0  0  0
   -0.3572   -0.4125    0.0000 N   0  0  0  0  0  0  0  2  0  0  0  0
   -1.0717   -0.8250    0.0000 C   0  0  0  0  0  0  0  2  0  0  0  0
   -1.7862   -0.4125    0.0000 C   0  0  0  0  0  0  0  2  0  0  0  0
   -2.5006   -0.8250    0.0000 C   0  0  0  0  0  0  0  2  0  0  0  0
   -0.3572    0.4125    0.0000 C   0  0  0  0  0  0  0  2  0  0  0  0
   -1.0717    0.8250    0.0000 C   0  0  0  0  0  0  0  2  0  0  0  0
   -1.0717    1.6500    0.0000 C   0  0  0  0  0  0  0  2  0  0  0  0
    1.0717   -0.4125    0.0000 S   0  0  0  0  0  0  0  2  0  0  0  0
    1.7862   -0.8250    0.0000 C   0  0  0  0  0  0  0  2  0  0  0  0
    2.5006   -0.4125    0.0000 C   0  0  0  0  0  0  0  2  0  0  0  0
  1  2  2  0        0
  2  3  1  0        0
  3  4  1  0        0
  4  5  1  0        0
  5  6  1  0        0
  3  7  1  0        0
  7  8  1  0        0
  8  9  1  0        0
  2 10  1  0        0
 10 11  1  0        0
 11 12  1  0        0
M  END
$$$$

CDXL12

  6  5  0  0  0  0  0  0  0  0999 V2000
    0.7145   -0.2062    0.0000 C   0  0  0  0  0  0  0  2  0  0  0  0
    0.7145    0.6187    0.0000 C   0  0  0  0  0  0  0  2  0  0  0  0
    0.0000   -0.6187    0.0000 C   0  0  0  0  0  0  0  2  0  0  0  0
   -0.7145   -0.2062    0.0000 C   0  0  0  0  0  0  0  2  0  0  0  0
   -1.4289   -0.6187    0.0000 C   0  0  0  0  0  0  0  2  0  0  0  0
    1.4289   -0.6187    0.0000 C   0  0  0  0  0  0  0  2  0  0  0  0
  1  2  2  0        0
  1  3  1  0        0
  3  4  1  0        0
  4  5  1  0        0
  1  6  1  0        0
M  END
$$$$

CDXL12

  8  7  0  0  0  0  0  0  0  0999 V2000
   -1.0717   -0.2062    0.0000 C   0  0  0  0  0  0  0  2  0  0  0  0
   -0.3572    0.2063    0.0000 C   0  0  0  0  0  0  0  2  0  0  0  0
    0.3572   -0.2062    0.0000 C   0  0  0  0  0  0  0  2  0  0  0  0
    1.0717    0.2062    0.0000 C   0  0  0  0  0  0  0  2  0  0  0  0
    1.0717    1.0312    0.0000 C   0  0  0  0  0  0  0  2  0  0  0  0
    1.7862   -0.2062    0.0000 C   0  0  0  0  0  0  0  2  0  0  0  0
   -1.0717   -1.0312    0.0000 C   0  0  0  0  0  0  0  2  0  0  0  0
   -1.7862    0.2062    0.0000 C   0  0  0  0  0  0  0  2  0  0  0  0
  1  2  2  0        0
  2  3  1  0        0
  3  4  2  0        0
  4  5  1  0        0
  4  6  1  0        0
  1  7  1  0        0
  1  8  1  0        0
M  END
$$$$

CDXL12

  6  5  0  0  0  0  0  0  0  0999 V2000
   -0.3572   -0.2062    0.0000 C   0  0  0  0  0  0  0  2  0  0  0  0
    0.3572    0.2062    0.0000 C   0  0  0  0  0  0  0  2  0  0  0  0
    1.0717   -0.2062    0.0000 C   0  0  0  0  0  0  0  2  0  0  0  0
    1.7862    0.2062    0.0000 Cl  0  0  0  0  0  0  0  2  0  0  0  0
   -1.0717    0.2062    0.0000 C   0  0  0  0  0  0  0  2  0  0  0  0
   -1.7862   -0.2062    0.0000 Cl  0  0  0  0  0  0  0  2  0  0  0  0
  1  2  2  0        0
  2  3  1  0        0
  3  4  1  0        0
  1  5  1  0        0
  5  6  1  0        0
M  END
$$$$

CDXL12

  5  5  0  0  0  0  0  0  0  0999 V2000
    1.1270   -0.1510    0.0000 O   0  0  0  0  0  0  0  2  0  0  0  0
    0.4125   -0.5635    0.0000 C   0  0  0  0  0  0  0  2  0  0  0  0
   -0.3020   -0.1510    0.0000 C   0  0  0  0  0  0  0  2  0  0  0  0
   -1.1270   -0.1510    0.0000 C   0  0  0  0  0  0  0  2  0  0  0  0
   -0.7145    0.5635    0.0000 O   0  0  0  0  0  0  0  2  0  0  0  0
  1  2  2  0        0
  2  3  1  0        0
  3  4  1  0        0
  4  5  1  0        0
  3  5  1  0        0
M  END
$$$$

CDXL12

 15 17  0  0  0  0  0  0  0  0999 V2000
   -0.7145    0.8250    0.0000 C   0  0  0  0  0  0  0  2  0  0  0  0
   -0.7145    0.0000    0.0000 C   0  0  0  0  0  0  0  2  0  0  0  0
    0.0000   -0.4125    0.0000 C   0  0  0  0  0  0  0  2  0  0  0  0
    0.7145    0.0000    0.0000 C   0  0  0  0  0  0  0  2  0  0  0  0
    0.7145    0.8250    0.0000 C   0  0  0  0  0  0  0  2  0  0  0  0
    1.4289    1.2375    0.0000 C   0  0  0  0  0  0  0  2  0  0  0  0
    2.1434    0.8250    0.0000 C   0  0  0  0  0  0  0  2  0  0  0  0
    2.1434    0.0000    0.0000 C   0  0  0  0  0  0  0  2  0  0  0  0
    1.4289   -0.4125    0.0000 C   0  0  0  0  0  0  0  2  0  0  0  0
    0.0000    1.2375    0.0000 C   0  0  0  0  0  0  0  2  0  0  0  0
    0.0000   -1.2375    0.0000 C   0  0  0  0  0  0  0  2  0  0  0  0
   -1.4289   -0.4125    0.0000 C   0  0  0  0  0  0  0  2  0  0  0  0
   -2.1434    0.0000    0.0000 C   0  0  0  0  0  0  0  2  0  0  0  0
   -2.1434    0.8250    0.0000 C   0  0  0  0  0  0  0  2  0  0  0  0
   -1.4289    1.2375    0.0000 C   0  0  0  0  0  0  0  2  0  0  0  0
  1  2  4  0        0
  2  3  4  0        0
  3  4  4  0        0
  4  5  4  0        0
  5  6  4  0        0
  6  7  4  0        0
  7  8  4  0        0
  8  9  4  0        0
  4  9  4  0        0
  5 10  4  0        0
  1 10  4  0        0
  3 11  1  0        0
  2 12  4  0        0
 12 13  4  0        0
 13 14  4  0        0
 14 15  4  0        0
  1 15  4  0        0
M  END
$$$$

CDXL12

 16 18  0  0  0  0  0  0  0  0999 V2000
    0.0000    1.6500    0.0000 C   0  0  0  0  0  0  0  2  0  0  0  0
    0.0000    0.8250    0.0000 C   0  0  0  0  0  0  0  2  0  0  0  0
    0.7145    0.4125    0.0000 C   0  0  0  0  0  0  0  2  0  0  0  0
    1.4289    0.8250    0.0000 C   0  0  0  0  0  0  0  2  0  0  0  0
    2.1434    0.4125    0.0000 C   0  0  0  0  0  0  0  2  0  0  0  0
    2.1434   -0.4125    0.0000 C   0  0  0  0  0  0  0  2  0  0  0  0
    1.4289   -0.8250    0.0000 C   0  0  0  0  0  0  0  2  0  0  0  0
    0.7145   -0.4125    0.0000 C   0  0  0  0  0  0  0  2  0  0  0  0
    0.0000   -0.8250    0.0000 C   0  0  0  0  0  0  0  2  0  0  0  0
    0.0000   -1.6500    0.0000 C   0  0  0  0  0  0  0  2  0  0  0  0
   -0.7145   -0.4125    0.0000 C   0  0  0  0  0  0  0  2  0  0  0  0
   -1.4289   -0.8250    0.0000 C   0  0  0  0  0  0  0  2  0  0  0  0
   -2.1434   -0.4125    0.0000 C   0  0  0  0  0  0  0  2  0  0  0  0
   -2.1434    0.4125    0.0000 C   0  0  0  0  0  0  0  2  0  0  0  0
   -1.4289    0.8250    0.0000 C   0  0  0  0  0  0  0  2  0  0  0  0
   -0.7145    0.4125    0.0000 C   0  0  0  0  0  0  0  2  0  0  0  0
  1  2  1  0        0
  2  3  4  0        0
  3  4  4  0        0
  4  5  4  0        0
  5  6  4  0        0
  6  7  4  0        0
  7  8  4  0        0
  3  8  4  0        0
  8  9  4  0        0
  9 10  1  0        0
  9 11  4  0        0
 11 12  4  0        0
 12 13  4  0        0
 13 14  4  0        0
 14 15  4  0        0
 15 16  4  0        0
  2 16  4  0        0
 11 16  4  0        0
M  END
$$$$

CDXL12

 18 18  0  0  0  0  0  0  0  0999 V2000
   -3.5724   -0.0000    0.0000 C   0  0  0  0  0  0  0  2  0  0  0  0
   -2.8579    0.4125    0.0000 C   0  0  0  0  0  0  0  2  0  0  0  0
   -2.1434   -0.0000    0.0000 O   0  0  0  0  0  0  0  2  0  0  0  0
   -1.4289    0.4125    0.0000 P   0  0  0  0  0  0  0  2  0  0  0  0
   -1.4289    1.2375    0.0000 S   0  0  0  0  0  0  0  2  0  0  0  0
   -1.4289   -0.4125    0.0000 O   0  0  0  0  0  0  0  2  0  0  0  0
   -2.1434   -0.8250    0.0000 C   0  0  0  0  0  0  0  2  0  0  0  0
   -2.1434   -1.6500    0.0000 C   0  0  0  0  0  0  0  2  0  0  0  0
   -0.7145   -0.0000    0.0000 S   0  0  0  0  0  0  0  2  0  0  0  0
   -0.0000    0.4125    0.0000 C   0  0  0  0  0  0  0  2  0  0  0  0
    0.7145   -0.0000    0.0000 S   0  0  0  0  0  0  0  2  0  0  0  0
    1.4289    0.4125    0.0000 C   0  0  0  0  0  0  0  2  0  0  0  0
    1.4289    1.2375    0.0000 C   0  0  0  0  0  0  0  2  0  0  0  0
    2.1434    1.6500    0.0000 C   0  0  0  0  0  0  0  2  0  0  0  0
    2.8579    1.2375    0.0000 C   0  0  0  0  0  0  0  2  0  0  0  0
    3.5724    1.6500    0.0000 Cl  0  0  0  0  0  0  0  2  0  0  0  0
    2.8579    0.4125    0.0000 C   0  0  0  0  0  0  0  2  0  0  0  0
    2.1434   -0.0000    0.0000 C   0  0  0  0  0  0  0  2  0  0  0  0
  1  2  1  0        0
  2  3  1  0        0
  3  4  1  0        0
  4  5  2  0        0
  4  6  1  0        0
  6  7  1  0        0
  7  8  1  0        0
  4  9  1  0        0
  9 10  1  0        0
 10 11  1  0        0
 11 12  1  0        0
 12 13  4  0        0
 13 14  4  0        0
 14 15  4  0        0
 15 16  1  0        0
 15 17  4  0        0
 17 18  4  0        0
 12 18  4  0        0
M  END
$$$$

CDXL12

 19 20  0  0  0  0  0  0  0  0999 V2000
    0.3572   -2.4750    0.0000 Cl  0  0  0  0  0  0  0  2  0  0  0  0
    0.3572   -1.6500    0.0000 C   0  0  0  0  0  0  0  2  0  0  0  0
   -0.3572   -1.2375    0.0000 C   0  0  0  0  0  0  0  2  0  0  0  0
   -0.3572   -0.4125    0.0000 C   0  0  0  0  0  0  0  2  0  0  0  0
    0.3572    0.0000    0.0000 C   0  0  0  0  0  0  0  2  0  0  0  0
    1.0717   -0.4125    0.0000 C   0  0  0  0  0  0  0  2  0  0  0  0
    1.0717   -1.2375    0.0000 C   0  0  0  0  0  0  0  2  0  0  0  0
    0.3572    0.8250    0.0000 C   0  0  0  0  0  0  0  2  0  0  0  0
   -0.3572    1.2375    0.0000 C   0  0  0  0  0  0  0  2  0  0  0  0
   -1.0717    0.8250    0.0000 C   0  0  0  0  0  0  0  2  0  0  0  0
   -1.7862    1.2375    0.0000 C   0  0  0  0  0  0  0  2  0  0  0  0
   -1.7862    2.0625    0.0000 C   0  0  0  0  0  0  0  2  0  0  0  0
   -1.0717    2.4750    0.0000 C   0  0  0  0  0  0  0  2  0  0  0  0
   -0.3572    2.0625    0.0000 C   0  0  0  0  0  0  0  2  0  0  0  0
    0.3572    2.4750    0.0000 Cl  0  0  0  0  0  0  0  2  0  0  0  0
    1.0717    1.2375    0.0000 C   0  0  0  0  0  0  0  2  0  0  0  0
    1.0717    2.0625    0.0000 Cl  0  0  0  0  0  0  0  2  0  0  0  0
    1.7862    0.8250    0.0000 Cl  0  0  0  0  0  0  0  2  0  0  0  0
    1.7862    1.6500    0.0000 Cl  0  0  0  0  0  0  0  2  0  0  0  0
  1  2  1  0        0
  2  3  4  0        0
  3  4  4  0        0
  4  5  4  0        0
  5  6  4  0        0
  6  7  4  0        0
  2  7  4  0        0
  5  8  1  0        0
  8  9  1  0        0
  9 10  4  0        0
 10 11  4  0        0
 11 12  4  0        0
 12 13  4  0        0
 13 14  4  0        0
  9 14  4  0        0
 14 15  1  0        0
  8 16  1  0        0
 16 17  1  0        0
 16 18  1  0        0
 16 19  1  0        0
M  END
$$$$

CDXL12

  6  5  0  0  0  0  0  0  0  0999 V2000
   -1.7862   -0.2062    0.0000 O   0  0  0  0  0  0  0  2  0  0  0  0
   -1.0717    0.2062    0.0000 C   0  0  0  0  0  0  0  2  0  0  0  0
   -0.3572   -0.2062    0.0000 C   0  0  0  0  0  0  0  2  0  0  0  0
    0.3572    0.2062    0.0000 C   0  0  0  0  0  0  0  2  0  0  0  0
    1.0717   -0.2062    0.0000 C   0  0  0  0  0  0  0  2  0  0  0  0
    1.7862    0.2062    0.0000 C   0  0  0  0  0  0  0  2  0  0  0  0
  1  2  1  0        0
  2  3  1  0        0
  3  4  1  0        0
  4  5  1  0        0
  5  6  2  0        0
M  END
$$$$

CDXL12

 10  9  0  0  0  0  0  0  0  0999 V2000
    2.1434    0.6187    0.0000 O   0  0  0  0  0  0  0  2  0  0  0  0
    2.1434   -0.2062    0.0000 C   0  0  0  0  0  0  0  2  0  0  0  0
    1.4289   -0.6187    0.0000 C   0  0  0  0  0  0  0  2  0  0  0  0
    0.7145   -0.2062    0.0000 C   0  0  0  0  0  0  0  2  0  0  0  0
   -0.0000   -0.6187    0.0000 C   0  0  0  0  0  0  0  2  0  0  0  0
   -0.7145   -0.2062    0.0000 C   0  0  0  0  0  0  0  2  0  0  0  0
   -1.4289   -0.6187    0.0000 C   0  0  0  0  0  0  0  2  0  0  0  0
   -2.1434   -0.2062    0.0000 C   0  0  0  0  0  0  0  2  0  0  0  0
   -2.8579   -0.6187    0.0000 C   0  0  0  0  0  0  0  2  0  0  0  0
    2.8579   -0.6187    0.0000 C   0  0  0  0  0  0  0  2  0  0  0  0
  1  2  2  0        0
  2  3  1  0        0
  3  4  1  0        0
  4  5  1  0        0
  5  6  1  0        0
  6  7  1  0        0
  7  8  1  0        0
  8  9  1  0        0
  2 10  1  0        0
M  END
$$$$

CDXL12

 11 12  0  0  0  0  0  0  0  0999 V2000
   -1.4133    0.0878    0.0000 C   0  0  0  0  0  0  0  2  0  0  0  0
   -1.4133   -0.7372    0.0000 C   0  0  0  0  0  0  0  2  0  0  0  0
   -0.6989   -1.1497    0.0000 C   0  0  0  0  0  0  0  2  0  0  0  0
    0.0156   -0.7372    0.0000 C   0  0  0  0  0  0  0  2  0  0  0  0
    0.8002   -0.9921    0.0000 C   0  0  0  0  0  0  0  2  0  0  0  0
    1.2852   -0.3247    0.0000 C   0  0  0  0  0  0  0  2  0  0  0  0
    0.8002    0.3427    0.0000 S   0  0  0  0  0  0  0  2  0  0  0  0
    1.4133    0.8948    0.0000 O   0  0  0  0  0  0  0  2  0  0  0  0
    0.6287    1.1497    0.0000 O   0  0  0  0  0  0  0  2  0  0  0  0
    0.0156    0.0878    0.0000 C   0  0  0  0  0  0  0  2  0  0  0  0
   -0.6989    0.5003    0.0000 C   0  0  0  0  0  0  0  2  0  0  0  0
  1  2  4  0        0
  2  3  4  0        0
  3  4  4  0        0
  4  5  1  0        0
  5  6  2  0        0
  6  7  1  0        0
  7  8  2  0        0
  7  9  2  0        0
  7 10  1  0        0
  4 10  4  0        0
 10 11  4  0        0
  1 11  4  0        0
M  END
$$$$

CDXL12

 12 12  0  0  0  0  0  0  0  0999 V2000
   -1.4289    0.0000    0.0000 O   0  0  0  0  0  0  0  2  0  0  0  0
   -1.4289   -0.8250    0.0000 C   0  0  0  0  0  0  0  2  0  0  0  0
   -0.7145   -1.2375    0.0000 O   0  0  0  0  0  0  0  2  0  0  0  0
   -0.0000   -0.8250    0.0000 C   0  0  0  0  0  0  0  2  0  0  0  0
   -0.0000    0.0000    0.0000 O   0  0  0  0  0  0  0  2  0  0  0  0
    0.7145    0.4125    0.0000 C   0  0  0  0  0  0  0  2  0  0  0  0
    1.4289   -0.0000    0.0000 O   0  0  0  0  0  0  0  2  0  0  0  0
    1.4289   -0.8250    0.0000 C   0  0  0  0  0  0  0  2  0  0  0  0
    2.1434   -1.2375    0.0000 C   0  0  0  0  0  0  0  2  0  0  0  0
    0.7145   -1.2375    0.0000 C   0  0  0  0  0  0  0  2  0  0  0  0
    0.7145    1.2375    0.0000 C   0  0  0  0  0  0  0  2  0  0  0  0
   -2.1434   -1.2375    0.0000 C   0  0  0  0  0  0  0  2  0  0  0  0
  1  2  2  0        0
  2  3  1  0        0
  3  4  1  0        0
  4  5  1  0        0
  5  6  1  0        0
  6  7  1  0        0
  7  8  1  0        0
  8  9  1  0        0
  8 10  1  0        0
  4 10  1  0        0
  6 11  1  0        0
  2 12  1  0        0
M  END
$$$$

CDXL12

 13 13  0  0  0  0  0  0  0  0999 V2000
    2.1434    1.2375    0.0000 O   0  0  0  0  0  0  0  2  0  0  0  0
    2.1434    0.4125    0.0000 C   0  0  0  0  0  0  0  2  0  0  0  0
    2.8579    0.0000    0.0000 O   0  0  0  0  0  0  0  2  0  0  0  0
    1.4289    0.0000    0.0000 C   0  0  0  0  0  0  0  2  0  0  0  0
    0.7145    0.4125    0.0000 C   0  0  0  0  0  0  0  2  0  0  0  0
   -0.0000    0.0000    0.0000 C   0  0  0  0  0  0  0  2  0  0  0  0
   -0.0000   -0.8250    0.0000 C   0  0  0  0  0  0  0  2  0  0  0  0
   -0.7145   -1.2375    0.0000 C   0  0  0  0  0  0  0  2  0  0  0  0
   -1.4289   -0.8250    0.0000 C   0  0  0  0  0  0  0  2  0  0  0  0
   -2.1434   -1.2375    0.0000 O   0  0  0  0  0  0  0  2  0  0  0  0
   -2.8579   -0.8250    0.0000 C   0  0  0  0  0  0  0  2  0  0  0  0
   -1.4289   -0.0000    0.0000 C   0  0  0  0  0  0  0  2  0  0  0  0
   -0.7145    0.4125    0.0000 C   0  0  0  0  0  0  0  2  0  0  0  0
  1  2  2  0        0
  2  3  1  0        0
  2  4  1  0        0
  4  5  2  0        0
  5  6  1  0        0
  6  7  4  0        0
  7  8  4  0        0
  8  9  4  0        0
  9 10  1  0        0
 10 11  1  0        0
  9 12  4  0        0
 12 13  4  0        0
  6 13  4  0        0
M  END
$$$$

CDXL12

 15 17  0  0  0  0  0  0  0  0999 V2000
   -2.1434   -1.0312    0.0000 C   0  0  0  0  0  0  0  2  0  0  0  0
   -2.1434   -0.2062    0.0000 C   0  0  0  0  0  0  0  2  0  0  0  0
   -1.4289    0.2062    0.0000 C   0  0  0  0  0  0  0  2  0  0  0  0
   -0.7145   -0.2062    0.0000 C   0  0  0  0  0  0  0  2  0  0  0  0
    0.0000    0.2062    0.0000 C   0  0  0  0  0  0  0  2  0  0  0  0
    0.0000    1.0312    0.0000 C   0  0  0  0  0  0  0  2  0  0  0  0
    0.7145    1.4438    0.0000 C   0  0  0  0  0  0  0  2  0  0  0  0
    1.4289    1.0313    0.0000 C   0  0  0  0  0  0  0  2  0  0  0  0
    1.4289    0.2062    0.0000 C   0  0  0  0  0  0  0  2  0  0  0  0
    2.1434   -0.2063    0.0000 C   0  0  0  0  0  0  0  2  0  0  0  0
    0.7145   -0.2062    0.0000 C   0  0  0  0  0  0  0  2  0  0  0  0
    0.7145   -1.0313    0.0000 C   0  0  0  0  0  0  0  2  0  0  0  0
    0.0000   -1.4438    0.0000 C   0  0  0  0  0  0  0  2  0  0  0  0
   -0.7145   -1.0313    0.0000 C   0  0  0  0  0  0  0  2  0  0  0  0
   -1.4289   -1.4437    0.0000 C   0  0  0  0  0  0  0  2  0  0  0  0
  1  2  4  0        0
  2  3  4  0        0
  3  4  4  0        0
  4  5  4  0        0
  5  6  4  0        0
  6  7  4  0        0
  7  8  4  0        0
  8  9  4  0        0
  9 10  1  0        0
  9 11  4  0        0
  5 11  4  0        0
 11 12  4  0        0
 12 13  4  0        0
 13 14  4  0        0
  4 14  4  0        0
 14 15  4  0        0
  1 15  4  0        0
M  END
$$$$

CDXL12

 15 15  0  0  0  0  0  0  0  0999 V2000
    2.8579   -1.4438    0.0000 C   0  0  0  0  0  0  0  2  0  0  0  0
    2.1434   -1.0313    0.0000 C   0  0  0  0  0  0  0  2  0  0  0  0
    1.4289   -1.4438    0.0000 N   0  0  0  0  0  0  0  2  0  0  0  0
    0.7145   -1.0313    0.0000 C   0  0  0  0  0  0  0  2  0  0  0  0
    0.0000   -1.4438    0.0000 N   0  0  0  0  0  0  0  2  0  0  0  0
   -0.7145   -1.0313    0.0000 C   0  0  0  0  0  0  0  2  0  0  0  0
   -1.4289   -1.4438    0.0000 N   0  0  0  0  0  0  0  2  0  0  0  0
   -2.1434   -1.0313    0.0000 C   0  0  0  0  0  0  0  2  0  0  0  0
   -2.1434   -0.2062    0.0000 C   0  0  0  0  0  0  0  2  0  0  0  0
   -2.8579   -1.4438    0.0000 C   0  0  0  0  0  0  0  2  0  0  0  0
   -0.7145   -0.2062    0.0000 N   0  0  0  0  0  0  0  2  0  0  0  0
    0.0000    0.2062    0.0000 C   0  0  0  0  0  0  0  2  0  0  0  0
    0.0000    1.0313    0.0000 S   0  0  0  0  0  0  0  2  0  0  0  0
   -0.7145    1.4438    0.0000 C   0  0  0  0  0  0  0  2  0  0  0  0
    0.7145   -0.2062    0.0000 N   0  0  0  0  0  0  0  2  0  0  0  0
  1  2  1  0        0
  2  3  1  0        0
  3  4  1  0        0
  4  5  4  0        0
  5  6  4  0        0
  6  7  1  0        0
  7  8  1  0        0
  8  9  1  0        0
  8 10  1  0        0
  6 11  4  0        0
 11 12  4  0        0
 12 13  1  0        0
 13 14  1  0        0
 12 15  4  0        0
  4 15  4  0        0
M  END
$$$$

CDXL12

 18 18  0  0  0  0  0  0  0  0999 V2000
    3.9296   -1.0313    0.0000 C   0  0  0  0  0  0  0  2  0  0  0  0
    3.2151   -1.4438    0.0000 O   0  0  0  0  0  0  0  2  0  0  0  0
    2.5006   -1.0313    0.0000 C   0  0  0  0  0  0  0  2  0  0  0  0
    1.7862   -1.4438    0.0000 C   0  0  0  0  0  0  0  2  0  0  0  0
    1.0717   -1.0313    0.0000 C   0  0  0  0  0  0  0  2  0  0  0  0
    0.3572   -1.4438    0.0000 N   0  0  0  0  0  0  0  2  0  0  0  0
   -0.3572   -1.0313    0.0000 C   0  0  0  0  0  0  0  2  0  0  0  0
   -1.0717   -1.4438    0.0000 N   0  0  0  0  0  0  0  2  0  0  0  0
   -1.7862   -1.0313    0.0000 C   0  0  0  0  0  0  0  2  0  0  0  0
   -2.5006   -1.4438    0.0000 N   0  0  0  0  0  0  0  2  0  0  0  0
   -3.2151   -1.0313    0.0000 C   0  0  0  0  0  0  0  2  0  0  0  0
   -3.2151   -0.2062    0.0000 C   0  0  0  0  0  0  0  2  0  0  0  0
   -3.9296   -1.4438    0.0000 C   0  0  0  0  0  0  0  2  0  0  0  0
   -1.7862   -0.2062    0.0000 N   0  0  0  0  0  0  0  2  0  0  0  0
   -1.0717    0.2062    0.0000 C   0  0  0  0  0  0  0  2  0  0  0  0
   -1.0717    1.0313    0.0000 S   0  0  0  0  0  0  0  2  0  0  0  0
   -1.7862    1.4438    0.0000 C   0  0  0  0  0  0  0  2  0  0  0  0
   -0.3572   -0.2062    0.0000 N   0  0  0  0  0  0  0  2  0  0  0  0
  1  2  1  0        0
  2  3  1  0        0
  3  4  1  0        0
  4  5  1  0        0
  5  6  1  0        0
  6  7  1  0        0
  7  8  4  0        0
  8  9  4  0        0
  9 10  1  0        0
 10 11  1  0        0
 11 12  1  0        0
 11 13  1  0        0
  9 14  4  0        0
 14 15  4  0        0
 15 16  1  0        0
 16 17  1  0        0
 15 18  4  0        0
  7 18  4  0        0
M  END
$$$$

CDXL12

 12 11  0  0  0  0  0  0  0  0999 V2000
    2.8579    0.2062    0.0000 C   0  0  0  0  0  0  0  2  0  0  0  0
    2.1434   -0.2062    0.0000 C   0  0  0  0  0  0  0  2  0  0  0  0
    1.4289    0.2062    0.0000 S   0  0  0  0  0  0  0  2  0  0  0  0
    0.7145   -0.2062    0.0000 C   0  0  0  0  0  0  0  2  0  0  0  0
   -0.0000    0.2062    0.0000 C   0  0  0  0  0  0  0  2  0  0  0  0
   -0.7145   -0.2062    0.0000 S   0  0  0  0  0  0  0  2  0  0  0  0
   -1.4289    0.2062    0.0000 P   0  0  0  0  0  0  0  2  0  0  0  0
   -1.4289    1.0313    0.0000 O   0  0  0  0  0  0  0  2  0  0  0  0
   -2.1434   -0.2062    0.0000 O   0  0  0  0  0  0  0  2  0  0  0  0
   -2.8579    0.2062    0.0000 C   0  0  0  0  0  0  0  2  0  0  0  0
   -1.4289   -0.6188    0.0000 O   0  0  0  0  0  0  0  2  0  0  0  0
   -2.1434   -1.0313    0.0000 C   0  0  0  0  0  0  0  2  0  0  0  0
  1  2  1  0        0
  2  3  1  0        0
  3  4  1  0        0
  4  5  1  0        0
  5  6  1  0        0
  6  7  1  0        0
  7  8  2  0        0
  7  9  1  0        0
  9 10  1  0        0
  7 11  1  0        0
 11 12  1  0        0
M  END
$$$$

CDXL12

 11 10  0  0  0  0  0  0  0  0999 V2000
   -0.7145    0.8250    0.0000 C   0  0  0  0  0  0  0  2  0  0  0  0
    0.0000    0.4125    0.0000 C   0  0  0  0  0  0  0  2  0  0  0  0
    0.0000   -0.4125    0.0000 C   0  0  0  0  0  0  0  2  0  0  0  0
    0.7145   -0.8250    0.0000 O   0  0  0  0  0  0  0  2  0  0  0  0
    1.4289   -0.4125    0.0000 C   0  0  0  0  0  0  0  2  0  0  0  0
    1.4289    0.4125    0.0000 O   0  0  0  0  0  0  0  2  0  0  0  0
    2.1434   -0.8250    0.0000 C   0  0  0  0  0  0  0  2  0  0  0  0
   -0.7145   -0.8250    0.0000 O   0  0  0  0  0  0  0  2  0  0  0  0
   -1.4289   -0.4125    0.0000 C   0  0  0  0  0  0  0  2  0  0  0  0
   -1.4289    0.4125    0.0000 O   0  0  0  0  0  0  0  2  0  0  0  0
   -2.1434   -0.8250    0.0000 C   0  0  0  0  0  0  0  2  0  0  0  0
  1  2  2  0        0
  2  3  1  0        0
  3  4  1  0        0
  4  5  1  0        0
  5  6  2  0        0
  5  7  1  0        0
  3  8  1  0        0
  8  9  1  0        0
  9 10  2  0        0
  9 11  1  0        0
M  END
$$$$

CDXL12

 10  9  0  0  0  0  0  0  0  0999 V2000
   -2.5006    0.2062    0.0000 C   0  0  0  0  0  0  0  2  0  0  0  0
   -3.2151   -0.2062    0.0000 C   0  0  0  0  0  0  0  2  0  0  0  0
   -1.7862   -0.2062    0.0000 C   0  0  0  0  0  0  0  2  0  0  0  0
   -1.0717    0.2062    0.0000 C   0  0  0  0  0  0  0  2  0  0  0  0
   -0.3572   -0.2062    0.0000 C   0  0  0  0  0  0  0  2  0  0  0  0
    0.3572    0.2062    0.0000 C   0  0  0  0  0  0  0  2  0  0  0  0
    1.0717   -0.2062    0.0000 C   0  0  0  0  0  0  0  2  0  0  0  0
    1.7862    0.2062    0.0000 C   0  0  0  0  0  0  0  2  0  0  0  0
    2.5006   -0.2062    0.0000 C   0  0  0  0  0  0  0  2  0  0  0  0
    3.2151    0.2062    0.0000 C   0  0  0  0  0  0  0  2  0  0  0  0
  1  2  2  0        0
  1  3  1  0        0
  3  4  1  0        0
  4  5  1  0        0
  5  6  1  0        0
  6  7  1  0        0
  7  8  1  0        0
  8  9  1  0        0
  9 10  1  0        0
M  END
$$$$

CDXL12

 13 13  0  0  0  0  0  0  0  0999 V2000
    1.7862    0.8250    0.0000 Cl  0  0  0  0  0  0  0  2  0  0  0  0
    1.0717    0.4125    0.0000 C   0  0  0  0  0  0  0  2  0  0  0  0
    0.3572    0.8250    0.0000 C   0  0  0  0  0  0  0  2  0  0  0  0
   -0.3572    0.4125    0.0000 C   0  0  0  0  0  0  0  2  0  0  0  0
   -1.0717    0.8250    0.0000 N   0  0  0  0  0  0  0  2  0  0  0  0
   -1.0717    1.6500    0.0000 O   0  0  0  0  0  0  0  2  0  0  0  0
   -1.7862    0.4125    0.0000 O   0  0  0  0  0  0  0  2  0  0  0  0
   -0.3572   -0.4125    0.0000 C   0  0  0  0  0  0  0  2  0  0  0  0
   -1.0717   -0.8250    0.0000 Cl  0  0  0  0  0  0  0  2  0  0  0  0
    0.3572   -0.8250    0.0000 C   0  0  0  0  0  0  0  2  0  0  0  0
    0.3572   -1.6500    0.0000 Cl  0  0  0  0  0  0  0  2  0  0  0  0
    1.0717   -0.4125    0.0000 C   0  0  0  0  0  0  0  2  0  0  0  0
    1.7862   -0.8250    0.0000 Cl  0  0  0  0  0  0  0  2  0  0  0  0
  1  2  1  0        0
  2  3  4  0        0
  3  4  4  0        0
  4  5  1  0        0
  5  6  2  0        0
  5  7  2  0        0
  4  8  4  0        0
  8  9  1  0        0
  8 10  4  0        0
 10 11  1  0        0
 10 12  4  0        0
  2 12  4  0        0
 12 13  1  0        0
M  END
$$$$

CDXL12

 16 17  0  0  0  0  0  0  0  0999 V2000
   -1.7862   -0.2062    0.0000 C   0  0  0  0  0  0  0  2  0  0  0  0
   -2.5006    0.2062    0.0000 C   0  0  0  0  0  0  0  2  0  0  0  0
   -2.5006    1.0313    0.0000 C   0  0  0  0  0  0  0  2  0  0  0  0
   -1.7862    1.4438    0.0000 C   0  0  0  0  0  0  0  2  0  0  0  0
   -1.0717    1.0313    0.0000 C   0  0  0  0  0  0  0  2  0  0  0  0
   -1.0717    0.2062    0.0000 C   0  0  0  0  0  0  0  2  0  0  0  0
   -0.3572   -0.2062    0.0000 C   0  0  0  0  0  0  0  2  0  0  0  0
    0.3572    0.2062    0.0000 C   0  0  0  0  0  0  0  2  0  0  0  0
    1.0717   -0.2063    0.0000 C   0  0  0  0  0  0  0  2  0  0  0  0
    1.7862    0.2062    0.0000 N   0  0  0  0  0  0  0  2  0  0  0  0
    1.7862    1.0312    0.0000 O   0  0  0  0  0  0  0  2  0  0  0  0
    2.5006   -0.2063    0.0000 O   0  0  0  0  0  0  0  2  0  0  0  0
    1.0717   -1.0313    0.0000 C   0  0  0  0  0  0  0  2  0  0  0  0
    1.7862   -1.4438    0.0000 O   0  0  0  0  0  0  0  2  0  0  0  0
    0.3572   -1.4438    0.0000 C   0  0  0  0  0  0  0  2  0  0  0  0
   -0.3572   -1.0313    0.0000 C   0  0  0  0  0  0  0  2  0  0  0  0
  1  2  4  0        0
  2  3  4  0        0
  3  4  4  0        0
  4  5  4  0        0
  5  6  4  0        0
  1  6  4  0        0
  6  7  1  0        0
  7  8  4  0        0
  8  9  4  0        0
  9 10  1  0        0
 10 11  2  0        0
 10 12  2  0        0
  9 13  4  0        0
 13 14  1  0        0
 13 15  4  0        0
 15 16  4  0        0
  7 16  4  0        0
M  END
$$$$

CDXL12

 23 25  0  0  0  0  0  0  0  0999 V2000
   -2.5162    0.7145    0.0000 C   0  0  0  0  0  0  0  2  0  0  0  0
   -1.6912    0.7145    0.0000 C   0  0  0  0  0  0  0  2  0  0  0  0
   -1.2788    1.4289    0.0000 O   0  0  0  0  0  0  0  2  0  0  0  0
   -1.2788   -0.0000    0.0000 O   0  0  0  0  0  0  0  2  0  0  0  0
    0.0412   -0.0000    0.0000 Sn  0  0  0  0  0  0  0  2  0  0  0  0
    0.8662   -0.0000    0.0000 C   0  0  0  0  0  0  0  2  0  0  0  0
    1.2787    0.7145    0.0000 C   0  0  0  0  0  0  0  2  0  0  0  0
    2.1037    0.7145    0.0000 C   0  0  0  0  0  0  0  2  0  0  0  0
    2.5162   -0.0000    0.0000 C   0  0  0  0  0  0  0  2  0  0  0  0
    2.1037   -0.7145    0.0000 C   0  0  0  0  0  0  0  2  0  0  0  0
    1.2787   -0.7145    0.0000 C   0  0  0  0  0  0  0  2  0  0  0  0
    0.0412    0.8250    0.0000 C   0  0  0  0  0  0  0  2  0  0  0  0
   -0.6732    1.2375    0.0000 C   0  0  0  0  0  0  0  2  0  0  0  0
   -0.6732    2.0625    0.0000 C   0  0  0  0  0  0  0  2  0  0  0  0
    0.0413    2.4750    0.0000 C   0  0  0  0  0  0  0  2  0  0  0  0
    0.7557    2.0625    0.0000 C   0  0  0  0  0  0  0  2  0  0  0  0
    0.7557    1.2375    0.0000 C   0  0  0  0  0  0  0  2  0  0  0  0
    0.0412   -0.8250    0.0000 C   0  0  0  0  0  0  0  2  0  0  0  0
    0.7557   -1.2375    0.0000 C   0  0  0  0  0  0  0  2  0  0  0  0
    0.7557   -2.0625    0.0000 C   0  0  0  0  0  0  0  2  0  0  0  0
    0.0412   -2.4750    0.0000 C   0  0  0  0  0  0  0  2  0  0  0  0
   -0.6732   -2.0625    0.0000 C   0  0  0  0  0  0  0  2  0  0  0  0
   -0.6732   -1.2375    0.0000 C   0  0  0  0  0  0  0  2  0  0  0  0
  1  2  1  0        0
  2  3  2  0        0
  2  4  1  0        0
  4  5  1  0        0
  5  6  1  0        0
  6  7  4  0        0
  7  8  4  0        0
  8  9  4  0        0
  9 10  4  0        0
 10 11  4  0        0
  6 11  4  0        0
  5 12  1  0        0
 12 13  4  0        0
 13 14  4  0        0
 14 15  4  0        0
 15 16  4  0        0
 16 17  4  0        0
 12 17  4  0        0
  5 18  1  0        0
 18 19  4  0        0
 19 20  4  0        0
 20 21  4  0        0
 21 22  4  0        0
 22 23  4  0        0
 18 23  4  0        0
M  END
$$$$

CDXL12

 39 42  0  0  0  0  0  0  0  0999 V2000
    2.8579   -2.1178    0.0000 Na  0  0  0  0  0  0  0  2  0  0  0  0
    2.1434   -1.7053    0.0000 O   0  0  0  0  0  0  0  2  0  0  0  0
    1.4289   -2.1178    0.0000 C   0  0  0  0  0  0  0  2  0  0  0  0
    0.7145   -1.7053    0.0000 C   0  0  0  0  0  0  0  2  0  0  0  0
    0.7145   -0.8803    0.0000 N   0  0  0  0  0  0  0  2  0  0  0  0
    1.4289   -0.4678    0.0000 N   0  0  0  0  0  0  0  2  0  0  0  0
    1.4289    0.3572    0.0000 C   0  0  0  0  0  0  0  2  0  0  0  0
    0.7145    0.7697    0.0000 C   0  0  0  0  0  0  0  2  0  0  0  0
    0.7145    1.5947    0.0000 C   0  0  0  0  0  0  0  2  0  0  0  0
    1.4289    2.0072    0.0000 C   0  0  0  0  0  0  0  2  0  0  0  0
    2.1434    1.5947    0.0000 C   0  0  0  0  0  0  0  2  0  0  0  0
    2.8579    2.0072    0.0000 C   0  0  0  0  0  0  0  2  0  0  0  0
    3.5724    1.5947    0.0000 C   0  0  0  0  0  0  0  2  0  0  0  0
    3.5724    0.7697    0.0000 C   0  0  0  0  0  0  0  2  0  0  0  0
    2.8579    0.3572    0.0000 C   0  0  0  0  0  0  0  2  0  0  0  0
    2.1434    0.7697    0.0000 C   0  0  0  0  0  0  0  2  0  0  0  0
    1.4289    2.8322    0.0000 S   0  0  0  0  0  0  0  2  0  0  0  0
    1.4289    3.6572    0.0000 O   0  0  0  0  0  0  0  2  0  0  0  0
    2.1434    4.0697    0.0000 Na  0  0  0  0  0  0  0  2  0  0  0  0
    2.2539    2.8322    0.0000 O   0  0  0  0  0  0  0  2  0  0  0  0
    0.6039    2.8322    0.0000 O   0  0  0  0  0  0  0  2  0  0  0  0
    0.0000   -2.1178    0.0000 C   0  0  0  0  0  0  0  2  0  0  0  0
   -0.7145   -1.7053    0.0000 C   0  0  0  0  0  0  0  2  0  0  0  0
   -1.4289   -2.1178    0.0000 C   0  0  0  0  0  0  0  2  0  0  0  0
   -1.4289   -2.9428    0.0000 C   0  0  0  0  0  0  0  2  0  0  0  0
   -0.7145   -3.3553    0.0000 C   0  0  0  0  0  0  0  2  0  0  0  0
    0.0000   -2.9428    0.0000 C   0  0  0  0  0  0  0  2  0  0  0  0
    0.7145   -3.3553    0.0000 C   0  0  0  0  0  0  0  2  0  0  0  0
    1.4289   -2.9428    0.0000 C   0  0  0  0  0  0  0  2  0  0  0  0
    2.1434   -3.3553    0.0000 S   0  0  0  0  0  0  0  2  0  0  0  0
    2.8579   -3.7678    0.0000 O   0  0  0  0  0  0  0  2  0  0  0  0
    3.5724   -3.3553    0.0000 Na  0  0  0  0  0  0  0  2  0  0  0  0
    1.7309   -4.0697    0.0000 O   0  0  0  0  0  0  0  2  0  0  0  0
    2.5559   -2.6408    0.0000 O   0  0  0  0  0  0  0  2  0  0  0  0
   -2.1434   -3.3553    0.0000 S   0  0  0  0  0  0  0  2  0  0  0  0
   -2.8579   -3.7678    0.0000 O   0  0  0  0  0  0  0  2  0  0  0  0
   -3.5724   -3.3553    0.0000 Na  0  0  0  0  0  0  0  2  0  0  0  0
   -2.5559   -2.6408    0.0000 O   0  0  0  0  0  0  0  2  0  0  0  0
   -1.7309   -4.0697    0.0000 O   0  0  0  0  0  0  0  2  0  0  0  0
  1  2  1  0        0
  2  3  1  0        0
  3  4  4  0        0
  4  5  1  0        0
  5  6  2  0        0
  6  7  1  0        0
  7  8  4  0        0
  8  9  4  0        0
  9 10  4  0        0
 10 11  4  0        0
 11 12  4  0        0
 12 13  4  0        0
 13 14  4  0        0
 14 15  4  0        0
 15 16  4  0        0
  7 16  4  0        0
 11 16  4  0        0
 10 17  1  0        0
 17 18  1  0        0
 18 19  1  0        0
 17 20  2  0        0
 17 21  2  0        0
  4 22  4  0        0
 22 23  4  0        0
 23 24  4  0        0
 24 25  4  0        0
 25 26  4  0        0
 26 27  4  0        0
 22 27  4  0        0
 27 28  4  0        0
 28 29  4  0        0
  3 29  4  0        0
 29 30  1  0        0
 30 31  1  0        0
 31 32  1  0        0
 30 33  2  0        0
 30 34  2  0        0
 25 35  1  0        0
 35 36  1  0        0
 36 37  1  0        0
 35 38  2  0        0
 35 39  2  0        0
M  END
$$$$

CDXL12

 12 11  0  0  0  0  0  0  0  0999 V2000
    1.4289    1.0313    0.0000 O   0  0  0  0  0  0  0  2  0  0  0  0
    1.4289    0.2062    0.0000 P   0  0  0  0  0  0  0  2  0  0  0  0
    2.1434   -0.2062    0.0000 O   0  0  0  0  0  0  0  2  0  0  0  0
    2.8579    0.2062    0.0000 C   0  0  0  0  0  0  0  2  0  0  0  0
    1.4289   -0.6188    0.0000 O   0  0  0  0  0  0  0  2  0  0  0  0
    2.1434   -1.0313    0.0000 C   0  0  0  0  0  0  0  2  0  0  0  0
    0.7145   -0.2062    0.0000 S   0  0  0  0  0  0  0  2  0  0  0  0
    0.0000    0.2062    0.0000 C   0  0  0  0  0  0  0  2  0  0  0  0
   -0.7145   -0.2062    0.0000 C   0  0  0  0  0  0  0  2  0  0  0  0
   -1.4289    0.2062    0.0000 S   0  0  0  0  0  0  0  2  0  0  0  0
   -2.1434   -0.2062    0.0000 C   0  0  0  0  0  0  0  2  0  0  0  0
   -2.8579    0.2062    0.0000 C   0  0  0  0  0  0  0  2  0  0  0  0
  1  2  2  0        0
  2  3  1  0        0
  3  4  1  0        0
  2  5  1  0        0
  5  6  1  0        0
  2  7  1  0        0
  7  8  1  0        0
  8  9  1  0        0
  9 10  1  0        0
 10 11  1  0        0
 11 12  1  0        0
M  END
$$$$

CDXL12

 11 10  0  0  0  0  0  0  0  0999 V2000
   -0.7145    0.8250    0.0000 O   0  0  0  0  0  0  0  2  0  0  0  0
    0.0000    0.4125    0.0000 N   0  0  0  0  0  0  0  2  0  0  0  0
    0.0000   -0.4125    0.0000 N   0  0  0  0  0  0  0  2  0  0  0  0
    0.7145   -0.8250    0.0000 C   0  0  0  0  0  0  0  2  0  0  0  0
    1.4289   -0.4125    0.0000 C   0  0  0  0  0  0  0  2  0  0  0  0
    2.1434   -0.8250    0.0000 C   0  0  0  0  0  0  0  2  0  0  0  0
    2.8579   -0.4125    0.0000 C   0  0  0  0  0  0  0  2  0  0  0  0
   -0.7145   -0.8250    0.0000 C   0  0  0  0  0  0  0  2  0  0  0  0
   -1.4289   -0.4125    0.0000 C   0  0  0  0  0  0  0  2  0  0  0  0
   -2.1434   -0.8250    0.0000 C   0  0  0  0  0  0  0  2  0  0  0  0
   -2.8579   -0.4125    0.0000 C   0  0  0  0  0  0  0  2  0  0  0  0
  1  2  2  0        0
  2  3  1  0        0
  3  4  1  0        0
  4  5  1  0        0
  5  6  1  0        0
  6  7  1  0        0
  3  8  1  0        0
  8  9  1  0        0
  9 10  1  0        0
 10 11  1  0        0
M  END
$$$$

CDXL12

 12 11  0  0  0  0  0  0  0  0999 V2000
    0.0000    0.6188    0.0000 O   0  0  0  0  0  0  0  2  0  0  0  0
    0.0000   -0.2062    0.0000 C   0  0  0  0  0  0  0  2  0  0  0  0
   -0.7145   -0.6187    0.0000 C   0  0  0  0  0  0  0  2  0  0  0  0
   -1.4289   -0.2062    0.0000 C   0  0  0  0  0  0  0  2  0  0  0  0
   -2.1434   -0.6187    0.0000 C   0  0  0  0  0  0  0  2  0  0  0  0
   -2.8579   -0.2062    0.0000 C   0  0  0  0  0  0  0  2  0  0  0  0
   -3.5724   -0.6187    0.0000 C   0  0  0  0  0  0  0  2  0  0  0  0
    0.7145   -0.6188    0.0000 C   0  0  0  0  0  0  0  2  0  0  0  0
    1.4289   -0.2062    0.0000 C   0  0  0  0  0  0  0  2  0  0  0  0
    2.1434   -0.6188    0.0000 C   0  0  0  0  0  0  0  2  0  0  0  0
    2.8579   -0.2062    0.0000 C   0  0  0  0  0  0  0  2  0  0  0  0
    3.5724   -0.6188    0.0000 C   0  0  0  0  0  0  0  2  0  0  0  0
  1  2  2  0        0
  2  3  1  0        0
  3  4  1  0        0
  4  5  1  0        0
  5  6  1  0        0
  6  7  1  0        0
  2  8  1  0        0
  8  9  1  0        0
  9 10  1  0        0
 10 11  1  0        0
 11 12  1  0        0
M  END
$$$$

CDXL12

  7  6  0  0  0  0  0  0  0  0999 V2000
   -1.0717    0.6187    0.0000 O   0  0  0  0  0  0  0  2  0  0  0  0
   -1.0717   -0.2062    0.0000 C   0  0  0  0  0  0  0  2  0  0  0  0
   -0.3572   -0.6187    0.0000 O   0  0  0  0  0  0  0  2  0  0  0  0
    0.3572   -0.2062    0.0000 C   0  0  0  0  0  0  0  2  0  0  0  0
    1.0717   -0.6187    0.0000 C   0  0  0  0  0  0  0  2  0  0  0  0
    1.7862   -0.2062    0.0000 Br  0  0  0  0  0  0  0  2  0  0  0  0
   -1.7862   -0.6187    0.0000 C   0  0  0  0  0  0  0  2  0  0  0  0
  1  2  2  0        0
  2  3  1  0        0
  3  4  1  0        0
  4  5  1  0        0
  5  6  1  0        0
  2  7  1  0        0
M  END
$$$$

CDXL12

  7  7  0  0  0  0  0  0  0  0999 V2000
    1.3673   -0.2898    0.0000 O   0  0  0  0  0  0  0  2  0  0  0  0
    0.6529   -0.7023    0.0000 N   0  0  0  0  0  0  0  2  0  0  0  0
   -0.0616   -0.2898    0.0000 N   0  0  0  0  0  0  0  2  0  0  0  0
   -0.8153   -0.6253    0.0000 C   0  0  0  0  0  0  0  2  0  0  0  0
   -1.3673   -0.0122    0.0000 C   0  0  0  0  0  0  0  2  0  0  0  0
   -0.9548    0.7023    0.0000 C   0  0  0  0  0  0  0  2  0  0  0  0
   -0.1479    0.5307    0.0000 C   0  0  0  0  0  0  0  2  0  0  0  0
  1  2  2  0        0
  2  3  1  0        0
  3  4  1  0        0
  4  5  1  0        0
  5  6  1  0        0
  6  7  1  0        0
  3  7  1  0        0
M  END
$$$$

CDXL12

 10 10  0  0  0  0  0  0  0  0999 V2000
    0.0000   -1.2375    0.0000 O   0  0  0  0  0  0  0  2  0  0  0  0
    0.0000   -0.4125    0.0000 C   0  0  0  0  0  0  0  2  0  0  0  0
   -0.7145   -0.0000    0.0000 C   0  0  0  0  0  0  0  2  0  0  0  0
   -0.7145    0.8250    0.0000 C   0  0  0  0  0  0  0  2  0  0  0  0
    0.0000    1.2375    0.0000 C   0  0  0  0  0  0  0  2  0  0  0  0
    0.7145    0.8250    0.0000 C   0  0  0  0  0  0  0  2  0  0  0  0
    1.4289    1.2375    0.0000 Cl  0  0  0  0  0  0  0  2  0  0  0  0
    0.7145   -0.0000    0.0000 C   0  0  0  0  0  0  0  2  0  0  0  0
    1.4289   -0.4125    0.0000 Cl  0  0  0  0  0  0  0  2  0  0  0  0
   -1.4289   -0.4125    0.0000 Cl  0  0  0  0  0  0  0  2  0  0  0  0
  1  2  1  0        0
  2  3  4  0        0
  3  4  4  0        0
  4  5  4  0        0
  5  6  4  0        0
  6  7  1  0        0
  6  8  4  0        0
  2  8  4  0        0
  8  9  1  0        0
  3 10  1  0        0
M  END
$$$$

CDXL12

 12 13  0  0  0  0  0  0  0  0999 V2000
    2.1434    0.4125    0.0000 C   0  0  0  0  0  0  0  2  0  0  0  0
    1.4289    0.8250    0.0000 C   0  0  0  0  0  0  0  2  0  0  0  0
    0.7145    0.4125    0.0000 C   0  0  0  0  0  0  0  2  0  0  0  0
    0.0000    0.8250    0.0000 C   0  0  0  0  0  0  0  2  0  0  0  0
   -0.7145    0.4125    0.0000 C   0  0  0  0  0  0  0  2  0  0  0  0
   -1.4289    0.8250    0.0000 C   0  0  0  0  0  0  0  2  0  0  0  0
   -2.1434    0.4125    0.0000 C   0  0  0  0  0  0  0  2  0  0  0  0
   -2.1434   -0.4125    0.0000 C   0  0  0  0  0  0  0  2  0  0  0  0
   -1.4289   -0.8250    0.0000 C   0  0  0  0  0  0  0  2  0  0  0  0
   -0.7145   -0.4125    0.0000 C   0  0  0  0  0  0  0  2  0  0  0  0
    0.0000   -0.8250    0.0000 C   0  0  0  0  0  0  0  2  0  0  0  0
    0.7145   -0.4125    0.0000 C   0  0  0  0  0  0  0  2  0  0  0  0
  1  2  1  0        0
  2  3  1  0        0
  3  4  4  0        0
  4  5  4  0        0
  5  6  4  0        0
  6  7  4  0        0
  7  8  4  0        0
  8  9  4  0        0
  9 10  4  0        0
  5 10  4  0        0
 10 11  4  0        0
 11 12  4  0        0
  3 12  4  0        0
M  END
$$$$

CDXL12

 14 14  0  0  0  0  0  0  0  0999 V2000
    0.0000    1.5273    0.0000 O   0  0  0  0  0  0  0  2  0  0  0  0
    0.0000    0.7023    0.0000 P   0  0  0  0  0  0  0  2  0  0  0  0
   -0.7145    0.2898    0.0000 O   0  0  0  0  0  0  0  2  0  0  0  0
   -1.4289    0.7023    0.0000 C   0  0  0  0  0  0  0  2  0  0  0  0
   -2.1434    0.2898    0.0000 C   0  0  0  0  0  0  0  2  0  0  0  0
    0.7145    0.2898    0.0000 O   0  0  0  0  0  0  0  2  0  0  0  0
    1.4289    0.7023    0.0000 C   0  0  0  0  0  0  0  2  0  0  0  0
    2.1434    0.2898    0.0000 C   0  0  0  0  0  0  0  2  0  0  0  0
    0.0000   -0.1227    0.0000 N   0  0  0  0  0  0  0  2  0  0  0  0
    0.7145   -0.5352    0.0000 C   0  0  0  0  0  0  0  2  0  0  0  0
    1.4681   -0.1997    0.0000 S   0  0  0  0  0  0  0  2  0  0  0  0
    2.0202   -0.8128    0.0000 C   0  0  0  0  0  0  0  2  0  0  0  0
    1.6077   -1.5273    0.0000 C   0  0  0  0  0  0  0  2  0  0  0  0
    0.8007   -1.3557    0.0000 S   0  0  0  0  0  0  0  2  0  0  0  0
  1  2  2  0        0
  2  3  1  0        0
  3  4  1  0        0
  4  5  1  0        0
  2  6  1  0        0
  6  7  1  0        0
  7  8  1  0        0
  2  9  1  0        0
  9 10  2  0        0
 10 11  1  0        0
 11 12  1  0        0
 12 13  1  0        0
 13 14  1  0        0
 10 14  1  0        0
M  END
$$$$

CDXL12

 14 14  0  0  0  0  0  0  0  0999 V2000
    1.0586    1.7862    0.0000 O   0  0  0  0  0  0  0  2  0  0  0  0
    0.6461    1.0717    0.0000 C   0  0  0  0  0  0  0  2  0  0  0  0
    1.0586    0.3446    0.0000 N   0  0  0  0  0  0  0  2  0  0  0  0
    1.8289    0.0489    0.0000 C   0  0  0  0  0  0  0  2  0  0  0  0
    1.8289   -0.7761    0.0000 C   0  0  0  0  0  0  0  2  0  0  0  0
    1.0586   -1.0717    0.0000 C   0  0  0  0  0  0  0  2  0  0  0  0
    0.6461   -1.7862    0.0000 C   0  0  0  0  0  0  0  2  0  0  0  0
   -0.1789   -1.7862    0.0000 C   0  0  0  0  0  0  0  2  0  0  0  0
   -0.5914   -1.0717    0.0000 C   0  0  0  0  0  0  0  2  0  0  0  0
   -1.4164   -1.0717    0.0000 C   0  0  0  0  0  0  0  2  0  0  0  0
   -1.8289   -0.3572    0.0000 C   0  0  0  0  0  0  0  2  0  0  0  0
   -1.4164    0.3572    0.0000 C   0  0  0  0  0  0  0  2  0  0  0  0
   -0.5914    0.3572    0.0000 C   0  0  0  0  0  0  0  2  0  0  0  0
   -0.1789    1.0717    0.0000 C   0  0  0  0  0  0  0  2  0  0  0  0
  1  2  2  0        0
  2  3  1  0        0
  3  4  1  0        0
  4  5  1  0        0
  5  6  1  0        0
  6  7  1  0        0
  7  8  1  0        0
  8  9  1  0        0
  9 10  1  0        0
 10 11  1  0        0
 11 12  1  0        0
 12 13  1  0        0
 13 14  1  0        0
  2 14  1  0        0
M  END
$$$$

CDXL12

 15 15  0  0  0  0  0  0  0  0999 V2000
   -0.3486    1.5273    0.0000 O   0  0  0  0  0  0  0  2  0  0  0  0
   -0.3486    0.7023    0.0000 P   0  0  0  0  0  0  0  2  0  0  0  0
   -1.0631    0.2898    0.0000 O   0  0  0  0  0  0  0  2  0  0  0  0
   -1.7776    0.7023    0.0000 C   0  0  0  0  0  0  0  2  0  0  0  0
   -2.4920    0.2898    0.0000 C   0  0  0  0  0  0  0  2  0  0  0  0
    0.3658    0.2898    0.0000 O   0  0  0  0  0  0  0  2  0  0  0  0
    1.0803    0.7023    0.0000 C   0  0  0  0  0  0  0  2  0  0  0  0
    1.7948    0.2898    0.0000 C   0  0  0  0  0  0  0  2  0  0  0  0
   -0.3486   -0.1227    0.0000 N   0  0  0  0  0  0  0  2  0  0  0  0
    0.3658   -0.5352    0.0000 C   0  0  0  0  0  0  0  2  0  0  0  0
    0.4521   -1.3557    0.0000 S   0  0  0  0  0  0  0  2  0  0  0  0
    1.2591   -1.5273    0.0000 C   0  0  0  0  0  0  0  2  0  0  0  0
    1.6716   -0.8128    0.0000 C   0  0  0  0  0  0  0  2  0  0  0  0
    2.4920   -0.7265    0.0000 C   0  0  0  0  0  0  0  2  0  0  0  0
    1.1195   -0.1997    0.0000 S   0  0  0  0  0  0  0  2  0  0  0  0
  1  2  2  0        0
  2  3  1  0        0
  3  4  1  0        0
  4  5  1  0        0
  2  6  1  0        0
  6  7  1  0        0
  7  8  1  0        0
  2  9  1  0        0
  9 10  2  0        0
 10 11  1  0        0
 11 12  1  0        0
 12 13  1  0        0
 13 14  1  0        0
 13 15  1  0        0
 10 15  1  0        0
M  END
$$$$

CDXL12

 16 16  0  0  0  0  0  0  0  0999 V2000
    3.2151   -0.0000    0.0000 C   0  0  0  0  0  0  0  2  0  0  0  0
    2.5006   -0.4125    0.0000 O   0  0  0  0  0  0  0  2  0  0  0  0
    1.7862    0.0000    0.0000 P   0  0  0  0  0  0  0  2  0  0  0  0
    1.7862    0.8250    0.0000 S   0  0  0  0  0  0  0  2  0  0  0  0
    1.7862   -0.8250    0.0000 O   0  0  0  0  0  0  0  2  0  0  0  0
    2.5006   -1.2375    0.0000 C   0  0  0  0  0  0  0  2  0  0  0  0
    1.0717   -0.4125    0.0000 S   0  0  0  0  0  0  0  2  0  0  0  0
    0.3572   -0.0000    0.0000 C   0  0  0  0  0  0  0  2  0  0  0  0
   -0.3572   -0.4125    0.0000 S   0  0  0  0  0  0  0  2  0  0  0  0
   -1.0717   -0.0000    0.0000 C   0  0  0  0  0  0  0  2  0  0  0  0
   -1.7862   -0.4125    0.0000 C   0  0  0  0  0  0  0  2  0  0  0  0
   -2.5006    0.0000    0.0000 C   0  0  0  0  0  0  0  2  0  0  0  0
   -2.5006    0.8250    0.0000 C   0  0  0  0  0  0  0  2  0  0  0  0
   -3.2151    1.2375    0.0000 Cl  0  0  0  0  0  0  0  2  0  0  0  0
   -1.7862    1.2375    0.0000 C   0  0  0  0  0  0  0  2  0  0  0  0
   -1.0717    0.8250    0.0000 C   0  0  0  0  0  0  0  2  0  0  0  0
  1  2  1  0        0
  2  3  1  0        0
  3  4  2  0        0
  3  5  1  0        0
  5  6  1  0        0
  3  7  1  0        0
  7  8  1  0        0
  8  9  1  0        0
  9 10  1  0        0
 10 11  4  0        0
 11 12  4  0        0
 12 13  4  0        0
 13 14  1  0        0
 13 15  4  0        0
 15 16  4  0        0
 10 16  4  0        0
M  END
$$$$

CDXL12

 19 21  0  0  0  0  0  0  0  0999 V2000
   -2.3878   -0.8250    0.0000 Cl  0  0  0  0  0  0  0  2  0  0  0  0
   -1.6734   -0.4125    0.0000 C   0  0  0  0  0  0  0  2  0  0  0  0
   -1.6734    0.4125    0.0000 C   0  0  0  0  0  0  0  2  0  0  0  0
   -2.3878    0.8250    0.0000 Cl  0  0  0  0  0  0  0  2  0  0  0  0
   -0.9589    0.8250    0.0000 C   0  0  0  0  0  0  0  2  0  0  0  0
   -0.9589    1.6500    0.0000 Cl  0  0  0  0  0  0  0  2  0  0  0  0
   -1.2954   -0.0000    0.0000 C   0  0  0  0  0  0  0  2  0  0  0  0
   -2.0099    0.4125    0.0000 Cl  0  0  0  0  0  0  0  2  0  0  0  0
   -2.0099   -0.4125    0.0000 Cl  0  0  0  0  0  0  0  2  0  0  0  0
   -0.9589   -0.8250    0.0000 C   0  0  0  0  0  0  0  2  0  0  0  0
   -0.9589   -1.6500    0.0000 Cl  0  0  0  0  0  0  0  2  0  0  0  0
   -0.2444   -0.4125    0.0000 C   0  0  0  0  0  0  0  2  0  0  0  0
   -0.2444    0.4125    0.0000 C   0  0  0  0  0  0  0  2  0  0  0  0
    0.4006    0.9269    0.0000 C   0  0  0  0  0  0  0  2  0  0  0  0
    1.2049    0.7433    0.0000 O   0  0  0  0  0  0  0  2  0  0  0  0
    1.5628   -0.0000    0.0000 S   0  0  0  0  0  0  0  2  0  0  0  0
    2.3878   -0.0000    0.0000 O   0  0  0  0  0  0  0  2  0  0  0  0
    1.2049   -0.7433    0.0000 O   0  0  0  0  0  0  0  2  0  0  0  0
    0.4006   -0.9269    0.0000 C   0  0  0  0  0  0  0  2  0  0  0  0
  1  2  1  0        0
  2  3  2  0        0
  3  4  1  0        0
  3  5  1  0        0
  5  6  1  0        0
  5  7  1  0        0
  7  8  1  0        0
  7  9  1  0        0
  7 10  1  0        0
  2 10  1  0        0
 10 11  1  0        0
 10 12  1  0        0
 12 13  1  0        0
  5 13  1  0        0
 13 14  1  0        0
 14 15  1  0        0
 15 16  1  0        0
 16 17  2  0        0
 16 18  1  0        0
 18 19  1  0        0
 12 19  1  0        0
M  END
$$$$

CDXL12

 19 20  0  0  0  0  0  0  0  0999 V2000
   -1.4289    2.4750    0.0000 O   0  0  0  0  0  0  0  2  0  0  0  0
   -1.4289    1.6500    0.0000 N   0  0  0  0  0  0  0  2  0  0  0  0
   -2.1434    1.2375    0.0000 O   0  0  0  0  0  0  0  2  0  0  0  0
   -0.7145    1.2375    0.0000 C   0  0  0  0  0  0  0  2  0  0  0  0
   -0.7145    0.4125    0.0000 C   0  0  0  0  0  0  0  2  0  0  0  0
    0.0000    0.0000    0.0000 C   0  0  0  0  0  0  0  2  0  0  0  0
    0.7145    0.4125    0.0000 C   0  0  0  0  0  0  0  2  0  0  0  0
    1.4289    0.0000    0.0000 N   0  0  0  0  0  0  0  2  0  0  0  0
    1.4289   -0.8250    0.0000 C   0  0  0  0  0  0  0  2  0  0  0  0
    0.7145   -1.2375    0.0000 C   0  0  0  0  0  0  0  2  0  0  0  0
    0.7145   -2.0625    0.0000 C   0  0  0  0  0  0  0  2  0  0  0  0
    1.4289   -2.4750    0.0000 C   0  0  0  0  0  0  0  2  0  0  0  0
    2.1434   -2.0625    0.0000 C   0  0  0  0  0  0  0  2  0  0  0  0
    2.1434   -1.2375    0.0000 C   0  0  0  0  0  0  0  2  0  0  0  0
    0.7145    1.2375    0.0000 C   0  0  0  0  0  0  0  2  0  0  0  0
    1.4289    1.6500    0.0000 N   0  0  0  0  0  0  0  2  0  0  0  0
    1.4289    2.4750    0.0000 O   0  0  0  0  0  0  0  2  0  0  0  0
    2.1434    1.2375    0.0000 O   0  0  0  0  0  0  0  2  0  0  0  0
    0.0000    1.6500    0.0000 C   0  0  0  0  0  0  0  2  0  0  0  0
  1  2  2  0        0
  2  3  2  0        0
  2  4  1  0        0
  4  5  4  0        0
  5  6  4  0        0
  6  7  4  0        0
  7  8  1  0        0
  8  9  1  0        0
  9 10  4  0        0
 10 11  4  0        0
 11 12  4  0        0
 12 13  4  0        0
 13 14  4  0        0
  9 14  4  0        0
  7 15  4  0        0
 15 16  1  0        0
 16 17  2  0        0
 16 18  2  0        0
 15 19  4  0        0
  4 19  4  0        0
M  END
$$$$

CDXL12

 22 23  0  0  0  0  0  0  0  0999 V2000
    1.0717   -0.0553    0.0000 O   0  0  0  0  0  0  0  2  0  0  0  0
    1.0717   -0.8803    0.0000 C   0  0  0  0  0  0  0  2  0  0  0  0
    1.7862   -1.2928    0.0000 N   0  0  0  0  0  0  0  2  0  0  0  0
    2.5006   -0.8803    0.0000 C   0  0  0  0  0  0  0  2  0  0  0  0
    2.5006   -0.0553    0.0000 C   0  0  0  0  0  0  0  2  0  0  0  0
    3.2151    0.3572    0.0000 C   0  0  0  0  0  0  0  2  0  0  0  0
    3.9296   -0.0553    0.0000 C   0  0  0  0  0  0  0  2  0  0  0  0
    3.9296   -0.8803    0.0000 C   0  0  0  0  0  0  0  2  0  0  0  0
    3.2151   -1.2928    0.0000 C   0  0  0  0  0  0  0  2  0  0  0  0
    0.3572   -1.2928    0.0000 N   0  0  0  0  0  0  0  2  0  0  0  0
   -0.3572   -0.8803    0.0000 S   0  0  0  0  0  0  0  2  0  0  0  0
    0.0553   -0.1658    0.0000 O   0  0  0  0  0  0  0  2  0  0  0  0
   -0.7697   -1.5947    0.0000 O   0  0  0  0  0  0  0  2  0  0  0  0
   -1.0717   -0.4678    0.0000 C   0  0  0  0  0  0  0  2  0  0  0  0
   -1.7862   -0.8803    0.0000 C   0  0  0  0  0  0  0  2  0  0  0  0
   -2.5006   -0.4678    0.0000 C   0  0  0  0  0  0  0  2  0  0  0  0
   -2.5006    0.3572    0.0000 C   0  0  0  0  0  0  0  2  0  0  0  0
   -1.7862    0.7697    0.0000 C   0  0  0  0  0  0  0  2  0  0  0  0
   -1.0717    0.3572    0.0000 C   0  0  0  0  0  0  0  2  0  0  0  0
   -3.2151    0.7697    0.0000 C   0  0  0  0  0  0  0  2  0  0  0  0
   -3.2151    1.5947    0.0000 O   0  0  0  0  0  0  0  2  0  0  0  0
   -3.9296    0.3572    0.0000 C   0  0  0  0  0  0  0  2  0  0  0  0
  1  2  2  0        0
  2  3  1  0        0
  3  4  1  0        0
  4  5  1  0        0
  5  6  1  0        0
  6  7  1  0        0
  7  8  1  0        0
  8  9  1  0        0
  4  9  1  0        0
  2 10  1  0        0
 10 11  1  0        0
 11 12  2  0        0
 11 13  2  0        0
 11 14  1  0        0
 14 15  4  0        0
 15 16  4  0        0
 16 17  4  0        0
 17 18  4  0        0
 18 19  4  0        0
 14 19  4  0        0
 17 20  1  0        0
 20 21  2  0        0
 20 22  1  0        0
M  END
$$$$

CDXL12

 27 29  0  0  0  0  0  0  0  0999 V2000
    0.3572   -1.8563    0.0000 O   0  0  0  0  0  0  0  2  0  0  0  0
    0.3572   -1.0313    0.0000 P   0  0  0  0  0  0  0  2  0  0  0  0
   -0.3572   -0.6188    0.0000 O   0  0  0  0  0  0  0  2  0  0  0  0
   -1.0717   -1.0313    0.0000 C   0  0  0  0  0  0  0  2  0  0  0  0
   -1.0717   -1.8563    0.0000 C   0  0  0  0  0  0  0  2  0  0  0  0
   -1.7862   -2.2687    0.0000 C   0  0  0  0  0  0  0  2  0  0  0  0
   -2.5006   -1.8563    0.0000 C   0  0  0  0  0  0  0  2  0  0  0  0
   -2.5006   -1.0313    0.0000 C   0  0  0  0  0  0  0  2  0  0  0  0
   -1.7862   -0.6188    0.0000 C   0  0  0  0  0  0  0  2  0  0  0  0
    1.0717   -0.6188    0.0000 O   0  0  0  0  0  0  0  2  0  0  0  0
    1.7862   -1.0313    0.0000 C   0  0  0  0  0  0  0  2  0  0  0  0
    2.5006   -0.6188    0.0000 C   0  0  0  0  0  0  0  2  0  0  0  0
    3.2151   -1.0313    0.0000 C   0  0  0  0  0  0  0  2  0  0  0  0
    3.2151   -1.8563    0.0000 C   0  0  0  0  0  0  0  2  0  0  0  0
    2.5006   -2.2687    0.0000 C   0  0  0  0  0  0  0  2  0  0  0  0
    1.7862   -1.8563    0.0000 C   0  0  0  0  0  0  0  2  0  0  0  0
    0.3572   -0.2062    0.0000 O   0  0  0  0  0  0  0  2  0  0  0  0
   -0.3572    0.2062    0.0000 C   0  0  0  0  0  0  0  2  0  0  0  0
   -1.0717   -0.2062    0.0000 C   0  0  0  0  0  0  0  2  0  0  0  0
   -1.7862    0.2062    0.0000 C   0  0  0  0  0  0  0  2  0  0  0  0
   -1.7862    1.0313    0.0000 C   0  0  0  0  0  0  0  2  0  0  0  0
   -1.0717    1.4437    0.0000 C   0  0  0  0  0  0  0  2  0  0  0  0
   -0.3572    1.0312    0.0000 C   0  0  0  0  0  0  0  2  0  0  0  0
   -2.5006    1.4438    0.0000 C   0  0  0  0  0  0  0  2  0  0  0  0
   -3.2151    1.8563    0.0000 C   0  0  0  0  0  0  0  2  0  0  0  0
   -2.5006    2.2687    0.0000 C   0  0  0  0  0  0  0  2  0  0  0  0
   -3.2151    1.0313    0.0000 C   0  0  0  0  0  0  0  2  0  0  0  0
  1  2  2  0        0
  2  3  1  0        0
  3  4  1  0        0
  4  5  4  0        0
  5  6  4  0        0
  6  7  4  0        0
  7  8  4  0        0
  8  9  4  0        0
  4  9  4  0        0
  2 10  1  0        0
 10 11  1  0        0
 11 12  4  0        0
 12 13  4  0        0
 13 14  4  0        0
 14 15  4  0        0
 15 16  4  0        0
 11 16  4  0        0
  2 17  1  0        0
 17 18  1  0        0
 18 19  4  0        0
 19 20  4  0        0
 20 21  4  0        0
 21 22  4  0        0
 22 23  4  0        0
 18 23  4  0        0
 21 24  1  0        0
 24 25  1  0        0
 24 26  1  0        0
 24 27  1  0        0
M  END
$$$$

CDXL12

 39 45  0  0  0  0  0  0  0  0999 V2000
   -1.6708   -0.7830    0.0000 O   0  0  0  0  0  0  0  2  0  0  0  0
   -0.9563   -0.3705    0.0000 C   0  0  0  0  0  0  0  2  0  0  0  0
   -0.9563   -1.4430    0.0000 C   0  0  0  0  0  0  0  2  0  0  0  0
   -0.2418   -1.8555    0.0000 N   0  0  0  0  0  0  0  2  0  0  0  0
   -0.2418   -2.6805    0.0000 C   0  0  0  0  0  0  0  2  0  0  0  0
   -0.9563   -3.0930    0.0000 C   0  0  0  0  0  0  0  2  0  0  0  0
   -1.6708   -2.6805    0.0000 C   0  0  0  0  0  0  0  2  0  0  0  0
   -1.6708   -1.8555    0.0000 C   0  0  0  0  0  0  0  2  0  0  0  0
   -1.8851    0.1658    0.0000 C   0  0  0  0  0  0  0  2  0  0  0  0
   -2.5996   -0.2467    0.0000 C   0  0  0  0  0  0  0  2  0  0  0  0
   -3.3140    0.1658    0.0000 C   0  0  0  0  0  0  0  2  0  0  0  0
   -3.3140    0.9908    0.0000 C   0  0  0  0  0  0  0  2  0  0  0  0
   -2.5996    1.4033    0.0000 C   0  0  0  0  0  0  0  2  0  0  0  0
   -1.8851    0.9908    0.0000 C   0  0  0  0  0  0  0  2  0  0  0  0
    0.6156    0.5370    0.0000 C   0  0  0  0  0  0  0  2  0  0  0  0
    0.6156    1.3620    0.0000 C   0  0  0  0  0  0  0  2  0  0  0  0
    1.3300    1.7745    0.0000 C   0  0  0  0  0  0  0  2  0  0  0  0
    2.0445    1.3620    0.0000 C   0  0  0  0  0  0  0  2  0  0  0  0
    2.8291    1.6170    0.0000 C   0  0  0  0  0  0  0  2  0  0  0  0
    3.0841    2.4016    0.0000 O   0  0  0  0  0  0  0  2  0  0  0  0
    3.3140    0.9495    0.0000 N   0  0  0  0  0  0  0  2  0  0  0  0
    2.8291    0.2821    0.0000 C   0  0  0  0  0  0  0  2  0  0  0  0
    3.0841   -0.5025    0.0000 O   0  0  0  0  0  0  0  2  0  0  0  0
    2.0445    0.5370    0.0000 C   0  0  0  0  0  0  0  2  0  0  0  0
    1.3300    0.1245    0.0000 C   0  0  0  0  0  0  0  2  0  0  0  0
    0.9935    0.9495    0.0000 C   0  0  0  0  0  0  0  2  0  0  0  0
   -0.3265    0.9495    0.0000 C   0  0  0  0  0  0  0  2  0  0  0  0
   -0.7390    0.2351    0.0000 C   0  0  0  0  0  0  0  2  0  0  0  0
   -0.3265   -0.4794    0.0000 C   0  0  0  0  0  0  0  2  0  0  0  0
   -0.7390   -1.1939    0.0000 C   0  0  0  0  0  0  0  2  0  0  0  0
   -1.5640   -1.1939    0.0000 C   0  0  0  0  0  0  0  2  0  0  0  0
   -1.9765   -0.4794    0.0000 C   0  0  0  0  0  0  0  2  0  0  0  0
   -1.5640    0.2351    0.0000 C   0  0  0  0  0  0  0  2  0  0  0  0
   -0.7390    1.6640    0.0000 C   0  0  0  0  0  0  0  2  0  0  0  0
   -1.5640    1.6640    0.0000 N   0  0  0  0  0  0  0  2  0  0  0  0
   -1.9765    2.3785    0.0000 C   0  0  0  0  0  0  0  2  0  0  0  0
   -1.5640    3.0930    0.0000 C   0  0  0  0  0  0  0  2  0  0  0  0
   -0.7390    3.0930    0.0000 C   0  0  0  0  0  0  0  2  0  0  0  0
   -0.3265    2.3785    0.0000 C   0  0  0  0  0  0  0  2  0  0  0  0
  1  2  1  0        0
  2  3  1  0        0
  3  4  4  0        0
  4  5  4  0        0
  5  6  4  0        0
  6  7  4  0        0
  7  8  4  0        0
  3  8  4  0        0
  2  9  1  0        0
  9 10  4  0        0
 10 11  4  0        0
 11 12  4  0        0
 12 13  4  0        0
 13 14  4  0        0
  9 14  4  0        0
  2 15  1  0        0
 15 16  2  0        0
 16 17  1  0        0
 17 18  1  0        0
 18 19  1  0        0
 19 20  2  0        0
 19 21  1  0        0
 21 22  1  0        0
 22 23  2  0        0
 22 24  1  0        0
 18 24  1  0        0
 24 25  1  0        0
 15 25  1  0        0
 25 26  1  0        0
 17 26  1  0        0
 26 27  2  0        0
 27 28  1  0        0
 28 29  4  0        0
 29 30  4  0        0
 30 31  4  0        0
 31 32  4  0        0
 32 33  4  0        0
 28 33  4  0        0
 27 34  1  0        0
 34 35  4  0        0
 35 36  4  0        0
 36 37  4  0        0
 37 38  4  0        0
 38 39  4  0        0
 34 39  4  0        0
M  END
$$$$

CDXL12

  5  4  0  0  0  0  0  0  0  0999 V2000
   -0.8250   -0.0000    0.0000 C   0  0  0  0  0  0  0  2  0  0  0  0
    0.0000   -0.0000    0.0000 P   0  0  0  0  0  0  0  2  0  0  0  0
    0.0000    0.8250    0.0000 O   0  0  0  0  0  0  0  2  0  0  0  0
    0.0000   -0.8250    0.0000 O   0  0  0  0  0  0  0  2  0  0  0  0
    0.8250   -0.0000    0.0000 O   0  0  0  0  0  0  0  2  0  0  0  0
  1  2  1  0        0
  2  3  2  0        0
  2  4  1  0        0
  2  5  1  0        0
M  END
$$$$

CDXL12

  8  7  0  0  0  0  0  0  0  0999 V2000
    1.4791   -0.3726    0.0000 Cl  0  0  0  0  0  0  0  2  0  0  0  0
    0.7647    0.0399    0.0000 C   0  0  0  0  0  0  0  2  0  0  0  0
    0.0502   -0.3726    0.0000 C   0  0  0  0  0  0  0  2  0  0  0  0
   -0.6643    0.0399    0.0000 N   0  0  0  0  0  0  0  2  0  0  0  0
   -0.0809    0.6232    0.0000 Cl  0  0  0  0  0  0  0  2  0  0  0  0
   -1.0388    0.7750    0.0000 C   0  0  0  0  0  0  0  2  0  0  0  0
   -1.4791   -0.0892    0.0000 C   0  0  0  0  0  0  0  2  0  0  0  0
   -0.7933   -0.7750    0.0000 C   0  0  0  0  0  0  0  2  0  0  0  0
  1  2  1  0        0
  2  3  1  0        0
  3  4  1  0        0
  4  5  1  0        0
  4  6  1  0        0
  4  7  1  0        0
  4  8  1  0        0
M  END
$$$$

CDXL12

 17 16  0  0  0  0  0  0  0  0999 V2000
    4.6441    0.6187    0.0000 O   0  0  0  0  0  0  0  2  0  0  0  0
    4.6441   -0.2062    0.0000 C   0  0  0  0  0  0  0  2  0  0  0  0
    5.3585   -0.6187    0.0000 O   0  0  0  0  0  0  0  2  0  0  0  0
    3.9296   -0.6187    0.0000 C   0  0  0  0  0  0  0  2  0  0  0  0
    3.2151   -0.2062    0.0000 C   0  0  0  0  0  0  0  2  0  0  0  0
    2.5006   -0.6187    0.0000 C   0  0  0  0  0  0  0  2  0  0  0  0
    1.7862   -0.2062    0.0000 C   0  0  0  0  0  0  0  2  0  0  0  0
    1.0717   -0.6187    0.0000 C   0  0  0  0  0  0  0  2  0  0  0  0
    0.3572   -0.2062    0.0000 C   0  0  0  0  0  0  0  2  0  0  0  0
   -0.3572   -0.6187    0.0000 C   0  0  0  0  0  0  0  2  0  0  0  0
   -1.0717   -0.2062    0.0000 C   0  0  0  0  0  0  0  2  0  0  0  0
   -1.7862   -0.6187    0.0000 C   0  0  0  0  0  0  0  2  0  0  0  0
   -2.5006   -0.2062    0.0000 C   0  0  0  0  0  0  0  2  0  0  0  0
   -3.2151   -0.6187    0.0000 C   0  0  0  0  0  0  0  2  0  0  0  0
   -3.9296   -0.2062    0.0000 C   0  0  0  0  0  0  0  2  0  0  0  0
   -4.6441   -0.6187    0.0000 C   0  0  0  0  0  0  0  2  0  0  0  0
   -5.3585   -0.2062    0.0000 C   0  0  0  0  0  0  0  2  0  0  0  0
  1  2  2  0        0
  2  3  1  0        0
  2  4  1  0        0
  4  5  1  0        0
  5  6  1  0        0
  6  7  1  0        0
  7  8  1  0        0
  8  9  1  0        0
  9 10  1  0        0
 10 11  1  0        0
 11 12  1  0        0
 12 13  1  0        0
 13 14  1  0        0
 14 15  1  0        0
 15 16  1  0        0
 16 17  1  0        0
M  END
$$$$

CDXL12

  8  8  0  0  0  0  0  0  0  0999 V2000
    1.4289    0.8250    0.0000 O   0  0  0  0  0  0  0  2  0  0  0  0
    0.7145    0.4125    0.0000 N   0  0  0  0  0  0  0  2  0  0  0  0
    0.7145   -0.4125    0.0000 C   0  0  0  0  0  0  0  2  0  0  0  0
    0.0000   -0.8250    0.0000 C   0  0  0  0  0  0  0  2  0  0  0  0
   -0.7145   -0.4125    0.0000 C   0  0  0  0  0  0  0  2  0  0  0  0
   -0.7145    0.4125    0.0000 C   0  0  0  0  0  0  0  2  0  0  0  0
    0.0000    0.8250    0.0000 C   0  0  0  0  0  0  0  2  0  0  0  0
   -1.4289   -0.8250    0.0000 C   0  0  0  0  0  0  0  2  0  0  0  0
  1  2  2  0        0
  2  3  1  0        0
  3  4  1  0        0
  4  5  1  0        0
  5  6  1  0        0
  6  7  1  0        0
  2  7  1  0        0
  5  8  1  0        0
M  END
$$$$

CDXL12

 11 11  0  0  0  0  0  0  0  0999 V2000
   -0.7145    1.2375    0.0000 Cl  0  0  0  0  0  0  0  2  0  0  0  0
   -0.7145    0.4125    0.0000 C   0  0  0  0  0  0  0  2  0  0  0  0
   -1.4289    0.0000    0.0000 N   0  0  0  0  0  0  0  2  0  0  0  0
   -1.4289   -0.8250    0.0000 C   0  0  0  0  0  0  0  2  0  0  0  0
   -2.1434   -1.2375    0.0000 N   0  0  0  0  0  0  0  2  0  0  0  0
   -0.7145   -1.2375    0.0000 N   0  0  0  0  0  0  0  2  0  0  0  0
    0.0000   -0.8250    0.0000 C   0  0  0  0  0  0  0  2  0  0  0  0
    0.7145   -1.2375    0.0000 N   0  0  0  0  0  0  0  2  0  0  0  0
    1.4289   -0.8250    0.0000 C   0  0  0  0  0  0  0  2  0  0  0  0
    2.1434   -1.2375    0.0000 C   0  0  0  0  0  0  0  2  0  0  0  0
    0.0000   -0.0000    0.0000 N   0  0  0  0  0  0  0  2  0  0  0  0
  1  2  1  0        0
  2  3  4  0        0
  3  4  4  0        0
  4  5  1  0        0
  4  6  4  0        0
  6  7  4  0        0
  7  8  1  0        0
  8  9  1  0        0
  9 10  1  0        0
  7 11  4  0        0
  2 11  4  0        0
M  END
$$$$

CDXL12

 14 16  0  0  0  0  0  0  0  0999 V2000
    0.0000    0.5288    0.0000 S   0  0  0  0  0  0  0  2  0  0  0  0
    0.0000    1.3538    0.0000 O   0  0  0  0  0  0  0  2  0  0  0  0
    0.6674    0.0439    0.0000 C   0  0  0  0  0  0  0  2  0  0  0  0
    1.4744    0.2154    0.0000 C   0  0  0  0  0  0  0  2  0  0  0  0
    2.0264   -0.3977    0.0000 C   0  0  0  0  0  0  0  2  0  0  0  0
    1.7715   -1.1823    0.0000 C   0  0  0  0  0  0  0  2  0  0  0  0
    0.9645   -1.3538    0.0000 C   0  0  0  0  0  0  0  2  0  0  0  0
    0.4125   -0.7407    0.0000 C   0  0  0  0  0  0  0  2  0  0  0  0
   -0.4125   -0.7407    0.0000 C   0  0  0  0  0  0  0  2  0  0  0  0
   -0.6674    0.0439    0.0000 C   0  0  0  0  0  0  0  2  0  0  0  0
   -1.4744    0.2154    0.0000 C   0  0  0  0  0  0  0  2  0  0  0  0
   -2.0264   -0.3977    0.0000 C   0  0  0  0  0  0  0  2  0  0  0  0
   -1.7715   -1.1823    0.0000 C   0  0  0  0  0  0  0  2  0  0  0  0
   -0.9645   -1.3538    0.0000 C   0  0  0  0  0  0  0  2  0  0  0  0
  1  2  2  0        0
  1  3  4  0        0
  3  4  4  0        0
  4  5  4  0        0
  5  6  4  0        0
  6  7  4  0        0
  7  8  4  0        0
  3  8  4  0        0
  8  9  4  0        0
  9 10  4  0        0
  1 10  4  0        0
 10 11  4  0        0
 11 12  4  0        0
 12 13  4  0        0
 13 14  4  0        0
  9 14  4  0        0
M  END
$$$$

CDXL12

 14 14  0  0  0  0  0  0  0  0999 V2000
   -2.5006   -1.0313    0.0000 C   0  0  0  0  0  0  0  2  0  0  0  0
   -1.7862   -1.4437    0.0000 N   0  0  0  0  0  0  0  2  0  0  0  0
   -1.0717   -1.0313    0.0000 C   0  0  0  0  0  0  0  2  0  0  0  0
   -0.3572   -1.4437    0.0000 N   0  0  0  0  0  0  0  2  0  0  0  0
    0.3572   -1.0313    0.0000 C   0  0  0  0  0  0  0  2  0  0  0  0
    1.0717   -1.4437    0.0000 N   0  0  0  0  0  0  0  2  0  0  0  0
    1.7862   -1.0312    0.0000 C   0  0  0  0  0  0  0  2  0  0  0  0
    1.7862   -0.2062    0.0000 C   0  0  0  0  0  0  0  2  0  0  0  0
    2.5006   -1.4437    0.0000 C   0  0  0  0  0  0  0  2  0  0  0  0
    0.3572   -0.2062    0.0000 N   0  0  0  0  0  0  0  2  0  0  0  0
   -0.3572    0.2062    0.0000 C   0  0  0  0  0  0  0  2  0  0  0  0
   -0.3572    1.0312    0.0000 S   0  0  0  0  0  0  0  2  0  0  0  0
   -1.0717    1.4437    0.0000 C   0  0  0  0  0  0  0  2  0  0  0  0
   -1.0717   -0.2063    0.0000 N   0  0  0  0  0  0  0  2  0  0  0  0
  1  2  1  0        0
  2  3  1  0        0
  3  4  4  0        0
  4  5  4  0        0
  5  6  1  0        0
  6  7  1  0        0
  7  8  1  0        0
  7  9  1  0        0
  5 10  4  0        0
 10 11  4  0        0
 11 12  1  0        0
 12 13  1  0        0
 11 14  4  0        0
  3 14  4  0        0
M  END
$$$$

CDXL12

 14 14  0  0  0  0  0  0  0  0999 V2000
    2.8579   -1.4438    0.0000 C   0  0  0  0  0  0  0  2  0  0  0  0
    2.1434   -1.0313    0.0000 C   0  0  0  0  0  0  0  2  0  0  0  0
    1.4289   -1.4438    0.0000 N   0  0  0  0  0  0  0  2  0  0  0  0
    0.7145   -1.0313    0.0000 C   0  0  0  0  0  0  0  2  0  0  0  0
    0.0000   -1.4438    0.0000 N   0  0  0  0  0  0  0  2  0  0  0  0
   -0.7145   -1.0313    0.0000 C   0  0  0  0  0  0  0  2  0  0  0  0
   -1.4289   -1.4438    0.0000 N   0  0  0  0  0  0  0  2  0  0  0  0
   -2.1434   -1.0313    0.0000 C   0  0  0  0  0  0  0  2  0  0  0  0
   -2.8579   -1.4438    0.0000 C   0  0  0  0  0  0  0  2  0  0  0  0
   -0.7145   -0.2062    0.0000 N   0  0  0  0  0  0  0  2  0  0  0  0
    0.0000    0.2062    0.0000 C   0  0  0  0  0  0  0  2  0  0  0  0
    0.0000    1.0313    0.0000 S   0  0  0  0  0  0  0  2  0  0  0  0
   -0.7145    1.4438    0.0000 C   0  0  0  0  0  0  0  2  0  0  0  0
    0.7145   -0.2062    0.0000 N   0  0  0  0  0  0  0  2  0  0  0  0
  1  2  1  0        0
  2  3  1  0        0
  3  4  1  0        0
  4  5  4  0        0
  5  6  4  0        0
  6  7  1  0        0
  7  8  1  0        0
  8  9  1  0        0
  6 10  4  0        0
 10 11  4  0        0
 11 12  1  0        0
 12 13  1  0        0
 11 14  4  0        0
  4 14  4  0        0
M  END
$$$$

CDXL12

 15 17  0  0  0  0  0  0  0  0999 V2000
   -0.4125   -0.6855    0.0000 C   0  0  0  0  0  0  0  2  0  0  0  0
    0.4125   -0.6855    0.0000 C   0  0  0  0  0  0  0  2  0  0  0  0
    0.9645   -1.2986    0.0000 C   0  0  0  0  0  0  0  2  0  0  0  0
    1.7715   -1.1270    0.0000 C   0  0  0  0  0  0  0  2  0  0  0  0
    2.0264   -0.3424    0.0000 C   0  0  0  0  0  0  0  2  0  0  0  0
    1.4744    0.2707    0.0000 C   0  0  0  0  0  0  0  2  0  0  0  0
    0.6674    0.0992    0.0000 C   0  0  0  0  0  0  0  2  0  0  0  0
    0.0000    0.5841    0.0000 S   0  0  0  0  0  0  0  2  0  0  0  0
    0.4125    1.2986    0.0000 O   0  0  0  0  0  0  0  2  0  0  0  0
   -0.4125    1.2986    0.0000 O   0  0  0  0  0  0  0  2  0  0  0  0
   -0.6674    0.0992    0.0000 C   0  0  0  0  0  0  0  2  0  0  0  0
   -1.4744    0.2707    0.0000 C   0  0  0  0  0  0  0  2  0  0  0  0
   -2.0264   -0.3424    0.0000 C   0  0  0  0  0  0  0  2  0  0  0  0
   -1.7715   -1.1270    0.0000 C   0  0  0  0  0  0  0  2  0  0  0  0
   -0.9645   -1.2986    0.0000 C   0  0  0  0  0  0  0  2  0  0  0  0
  1  2  1  0        0
  2  3  4  0        0
  3  4  4  0        0
  4  5  4  0        0
  5  6  4  0        0
  6  7  4  0        0
  2  7  4  0        0
  7  8  1  0        0
  8  9  2  0        0
  8 10  2  0        0
  8 11  1  0        0
  1 11  4  0        0
 11 12  4  0        0
 12 13  4  0        0
 13 14  4  0        0
 14 15  4  0        0
  1 15  4  0        0
M  END
$$$$

CDXL12

 20 22  0  0  0  0  0  0  0  0999 V2000
   -2.3326   -0.8250    0.0000 Cl  0  0  0  0  0  0  0  2  0  0  0  0
   -1.6181   -0.4125    0.0000 C   0  0  0  0  0  0  0  2  0  0  0  0
   -1.6181    0.4125    0.0000 C   0  0  0  0  0  0  0  2  0  0  0  0
   -2.3326    0.8250    0.0000 Cl  0  0  0  0  0  0  0  2  0  0  0  0
   -0.9036    0.8250    0.0000 C   0  0  0  0  0  0  0  2  0  0  0  0
   -0.9036    1.6500    0.0000 Cl  0  0  0  0  0  0  0  2  0  0  0  0
   -0.1892    0.4125    0.0000 C   0  0  0  0  0  0  0  2  0  0  0  0
    0.4558    0.9269    0.0000 C   0  0  0  0  0  0  0  2  0  0  0  0
    1.2602    0.7433    0.0000 O   0  0  0  0  0  0  0  2  0  0  0  0
    1.6181   -0.0000    0.0000 S   0  0  0  0  0  0  0  2  0  0  0  0
    2.3326   -0.4125    0.0000 O   0  0  0  0  0  0  0  2  0  0  0  0
    2.3326    0.4125    0.0000 O   0  0  0  0  0  0  0  2  0  0  0  0
    1.2602   -0.7433    0.0000 O   0  0  0  0  0  0  0  2  0  0  0  0
    0.4558   -0.9269    0.0000 C   0  0  0  0  0  0  0  2  0  0  0  0
   -0.1892   -0.4125    0.0000 C   0  0  0  0  0  0  0  2  0  0  0  0
   -0.9036   -0.8250    0.0000 C   0  0  0  0  0  0  0  2  0  0  0  0
   -0.9036   -1.6500    0.0000 Cl  0  0  0  0  0  0  0  2  0  0  0  0
   -1.2402   -0.0000    0.0000 C   0  0  0  0  0  0  0  2  0  0  0  0
   -1.9546    0.4125    0.0000 Cl  0  0  0  0  0  0  0  2  0  0  0  0
   -1.9546   -0.4125    0.0000 Cl  0  0  0  0  0  0  0  2  0  0  0  0
  1  2  1  0        0
  2  3  2  0        0
  3  4  1  0        0
  3  5  1  0        0
  5  6  1  0        0
  5  7  1  0        0
  7  8  1  0        0
  8  9  1  0        0
  9 10  1  0        0
 10 11  2  0        0
 10 12  2  0        0
 10 13  1  0        0
 13 14  1  0        0
 14 15  1  0        0
  7 15  1  0        0
 15 16  1  0        0
  2 16  1  0        0
 16 17  1  0        0
 16 18  1  0        0
  5 18  1  0        0
 18 19  1  0        0
 18 20  1  0        0
M  END
$$$$

CDXL12

 20 21  0  0  0  0  0  0  0  0999 V2000
    1.6499   -0.3279    0.0000 C   0  0  0  0  0  0  0  2  0  0  0  0
    2.4704   -0.4141    0.0000 C   0  0  0  0  0  0  0  2  0  0  0  0
    2.9553    0.2533    0.0000 C   0  0  0  0  0  0  0  2  0  0  0  0
    2.6197    1.0070    0.0000 C   0  0  0  0  0  0  0  2  0  0  0  0
    1.7992    1.0932    0.0000 C   0  0  0  0  0  0  0  2  0  0  0  0
    1.3143    0.4258    0.0000 C   0  0  0  0  0  0  0  2  0  0  0  0
    0.4938    0.5120    0.0000 C   0  0  0  0  0  0  0  2  0  0  0  0
   -0.0582   -0.1011    0.0000 N   0  0  0  0  0  0  0  2  0  0  0  0
   -0.8119    0.2345    0.0000 N   0  0  0  0  0  0  0  2  0  0  0  0
   -1.5263   -0.1780    0.0000 P   0  0  0  0  0  0  0  2  0  0  0  0
   -1.9388    0.5364    0.0000 O   0  0  0  0  0  0  0  2  0  0  0  0
   -1.1138   -0.8925    0.0000 N   0  0  0  0  0  0  0  2  0  0  0  0
   -1.5263   -1.6070    0.0000 C   0  0  0  0  0  0  0  2  0  0  0  0
   -0.2888   -0.8925    0.0000 C   0  0  0  0  0  0  0  2  0  0  0  0
   -2.2408   -0.5905    0.0000 N   0  0  0  0  0  0  0  2  0  0  0  0
   -2.9553   -0.1780    0.0000 C   0  0  0  0  0  0  0  2  0  0  0  0
   -2.2408   -1.4155    0.0000 C   0  0  0  0  0  0  0  2  0  0  0  0
   -0.7256    1.0549    0.0000 C   0  0  0  0  0  0  0  2  0  0  0  0
   -1.3387    1.6070    0.0000 N   0  0  0  0  0  0  0  2  0  0  0  0
    0.0813    1.2265    0.0000 N   0  0  0  0  0  0  0  2  0  0  0  0
  1  2  4  0        0
  2  3  4  0        0
  3  4  4  0        0
  4  5  4  0        0
  5  6  4  0        0
  1  6  4  0        0
  6  7  1  0        0
  7  8  4  0        0
  8  9  4  0        0
  9 10  1  0        0
 10 11  2  0        0
 10 12  1  0        0
 12 13  1  0        0
 12 14  1  0        0
 10 15  1  0        0
 15 16  1  0        0
 15 17  1  0        0
  9 18  4  0        0
 18 19  1  0        0
 18 20  4  0        0
  7 20  4  0        0
M  END
$$$$

CDXL12

 10  9  0  0  0  0  0  0  0  0999 V2000
   -2.1434   -0.4125    0.0000 O   0  0  0  0  0  0  0  2  0  0  0  0
   -1.4289   -0.0000    0.0000 C   0  0  0  0  0  0  0  2  0  0  0  0
   -1.4289    0.8250    0.0000 O   0  0  0  0  0  0  0  2  0  0  0  0
   -0.7145   -0.4125    0.0000 C   0  0  0  0  0  0  0  2  0  0  0  0
    0.0000   -0.0000    0.0000 N   0  0  0  0  0  0  0  2  0  0  0  0
    0.7145   -0.4125    0.0000 C   0  0  0  0  0  0  0  2  0  0  0  0
    1.4289    0.0000    0.0000 P   0  0  0  0  0  0  0  2  0  0  0  0
    1.4289   -0.8250    0.0000 O   0  0  0  0  0  0  0  2  0  0  0  0
    2.1434   -0.4125    0.0000 O   0  0  0  0  0  0  0  2  0  0  0  0
    1.4289    0.8250    0.0000 O   0  0  0  0  0  0  0  2  0  0  0  0
  1  2  1  0        0
  2  3  2  0        0
  2  4  1  0        0
  4  5  1  0        0
  5  6  1  0        0
  6  7  1  0        0
  7  8  1  0        0
  7  9  1  0        0
  7 10  2  0        0
M  END
$$$$

CDXL12

  8  8  0  0  0  0  0  0  0  0999 V2000
    1.4289    0.8250    0.0000 F   0  0  0  0  0  0  0  2  0  0  0  0
    0.7145    0.4125    0.0000 C   0  0  0  0  0  0  0  2  0  0  0  0
    0.7145   -0.4125    0.0000 C   0  0  0  0  0  0  0  2  0  0  0  0
    0.0000   -0.8250    0.0000 C   0  0  0  0  0  0  0  2  0  0  0  0
   -0.7145   -0.4125    0.0000 C   0  0  0  0  0  0  0  2  0  0  0  0
   -0.7145    0.4125    0.0000 C   0  0  0  0  0  0  0  2  0  0  0  0
   -1.4289    0.8250    0.0000 Br  0  0  0  0  0  0  0  2  0  0  0  0
    0.0000    0.8250    0.0000 C   0  0  0  0  0  0  0  2  0  0  0  0
  1  2  1  0        0
  2  3  4  0        0
  3  4  4  0        0
  4  5  4  0        0
  5  6  4  0        0
  6  7  1  0        0
  6  8  4  0        0
  2  8  4  0        0
M  END
$$$$

CDXL12

 12 12  0  0  0  0  0  0  0  0999 V2000
    1.4289   -0.4125    0.0000 C   0  0  0  0  0  0  0  2  0  0  0  0
    1.4289    0.4125    0.0000 C   0  0  0  0  0  0  0  2  0  0  0  0
    2.1434    0.8250    0.0000 C   0  0  0  0  0  0  0  2  0  0  0  0
    2.8579    0.4125    0.0000 C   0  0  0  0  0  0  0  2  0  0  0  0
    2.8579   -0.4125    0.0000 C   0  0  0  0  0  0  0  2  0  0  0  0
    2.1434   -0.8250    0.0000 C   0  0  0  0  0  0  0  2  0  0  0  0
    0.7145   -0.8250    0.0000 C   0  0  0  0  0  0  0  2  0  0  0  0
    0.0000   -0.4125    0.0000 C   0  0  0  0  0  0  0  2  0  0  0  0
   -0.7145   -0.8250    0.0000 C   0  0  0  0  0  0  0  2  0  0  0  0
   -1.4289   -0.4125    0.0000 C   0  0  0  0  0  0  0  2  0  0  0  0
   -2.1434   -0.8250    0.0000 C   0  0  0  0  0  0  0  2  0  0  0  0
   -2.8579   -0.4125    0.0000 C   0  0  0  0  0  0  0  2  0  0  0  0
  1  2  4  0        0
  2  3  4  0        0
  3  4  4  0        0
  4  5  4  0        0
  5  6  4  0        0
  1  6  4  0        0
  1  7  1  0        0
  7  8  1  0        0
  8  9  1  0        0
  9 10  1  0        0
 10 11  1  0        0
 11 12  1  0        0
M  END
$$$$

CDXL12

 13 13  0  0  0  0  0  0  0  0999 V2000
    1.7862   -0.4125    0.0000 C   0  0  0  0  0  0  0  2  0  0  0  0
    1.7862    0.4125    0.0000 C   0  0  0  0  0  0  0  2  0  0  0  0
    2.5006    0.8250    0.0000 C   0  0  0  0  0  0  0  2  0  0  0  0
    3.2151    0.4125    0.0000 C   0  0  0  0  0  0  0  2  0  0  0  0
    3.2151   -0.4125    0.0000 C   0  0  0  0  0  0  0  2  0  0  0  0
    2.5006   -0.8250    0.0000 C   0  0  0  0  0  0  0  2  0  0  0  0
    1.0717   -0.8250    0.0000 C   0  0  0  0  0  0  0  2  0  0  0  0
    0.3572   -0.4125    0.0000 C   0  0  0  0  0  0  0  2  0  0  0  0
   -0.3572   -0.8250    0.0000 C   0  0  0  0  0  0  0  2  0  0  0  0
   -1.0717   -0.4125    0.0000 C   0  0  0  0  0  0  0  2  0  0  0  0
   -1.7862   -0.8250    0.0000 C   0  0  0  0  0  0  0  2  0  0  0  0
   -2.5006   -0.4125    0.0000 C   0  0  0  0  0  0  0  2  0  0  0  0
   -3.2151   -0.8250    0.0000 C   0  0  0  0  0  0  0  2  0  0  0  0
  1  2  4  0        0
  2  3  4  0        0
  3  4  4  0        0
  4  5  4  0        0
  5  6  4  0        0
  1  6  4  0        0
  1  7  1  0        0
  7  8  1  0        0
  8  9  1  0        0
  9 10  1  0        0
 10 11  1  0        0
 11 12  1  0        0
 12 13  1  0        0
M  END
$$$$

CDXL12

 13 12  0  0  0  0  0  0  0  0999 V2000
   -3.2151   -0.0000    0.0000 C   0  0  0  0  0  0  0  2  0  0  0  0
   -2.5006    0.4125    0.0000 C   0  0  0  0  0  0  0  2  0  0  0  0
   -1.7862   -0.0000    0.0000 C   0  0  0  0  0  0  0  2  0  0  0  0
   -1.0717    0.4125    0.0000 C   0  0  0  0  0  0  0  2  0  0  0  0
   -0.3572   -0.0000    0.0000 N   0  0  0  0  0  0  0  2  0  0  0  0
   -0.3572   -0.8250    0.0000 C   0  0  0  0  0  0  0  2  0  0  0  0
   -1.0717   -1.2375    0.0000 C   0  0  0  0  0  0  0  2  0  0  0  0
    0.3572    0.4125    0.0000 C   0  0  0  0  0  0  0  2  0  0  0  0
    0.3572    1.2375    0.0000 O   0  0  0  0  0  0  0  2  0  0  0  0
    1.0717   -0.0000    0.0000 S   0  0  0  0  0  0  0  2  0  0  0  0
    1.7862    0.4125    0.0000 C   0  0  0  0  0  0  0  2  0  0  0  0
    2.5006   -0.0000    0.0000 C   0  0  0  0  0  0  0  2  0  0  0  0
    3.2151    0.4125    0.0000 C   0  0  0  0  0  0  0  2  0  0  0  0
  1  2  1  0        0
  2  3  1  0        0
  3  4  1  0        0
  4  5  1  0        0
  5  6  1  0        0
  6  7  1  0        0
  5  8  1  0        0
  8  9  2  0        0
  8 10  1  0        0
 10 11  1  0        0
 11 12  1  0        0
 12 13  1  0        0
M  END
$$$$

CDXL12

  6  5  0  0  0  0  0  0  0  0999 V2000
    1.4289   -0.2062    0.0000 C   0  0  0  0  0  0  0  2  0  0  0  0
    0.7145   -0.6188    0.0000 C   0  0  0  0  0  0  0  2  0  0  0  0
    0.0000   -0.2062    0.0000 S   0  0  0  0  0  0  0  2  0  0  0  0
    0.0000    0.6188    0.0000 O   0  0  0  0  0  0  0  2  0  0  0  0
   -0.7145   -0.6187    0.0000 C   0  0  0  0  0  0  0  2  0  0  0  0
   -1.4289   -0.2062    0.0000 C   0  0  0  0  0  0  0  2  0  0  0  0
  1  2  2  0        0
  2  3  1  0        0
  3  4  2  0        0
  3  5  1  0        0
  5  6  2  0        0
M  END
$$$$

CDXL12

  9  8  0  0  0  0  0  0  0  0999 V2000
   -0.7145    0.8250    0.0000 O   0  0  0  0  0  0  0  2  0  0  0  0
    0.0000    0.4125    0.0000 N   0  0  0  0  0  0  0  2  0  0  0  0
    0.0000   -0.4125    0.0000 N   0  0  0  0  0  0  0  2  0  0  0  0
   -0.7145   -0.8250    0.0000 C   0  0  0  0  0  0  0  2  0  0  0  0
   -1.4289   -0.4125    0.0000 C   0  0  0  0  0  0  0  2  0  0  0  0
   -2.1434   -0.8250    0.0000 O   0  0  0  0  0  0  0  2  0  0  0  0
    0.7145   -0.8250    0.0000 C   0  0  0  0  0  0  0  2  0  0  0  0
    1.4289   -0.4125    0.0000 C   0  0  0  0  0  0  0  2  0  0  0  0
    2.1434   -0.8250    0.0000 O   0  0  0  0  0  0  0  2  0  0  0  0
  1  2  2  0        0
  2  3  1  0        0
  3  4  1  0        0
  4  5  1  0        0
  5  6  1  0        0
  3  7  1  0        0
  7  8  1  0        0
  8  9  1  0        0
M  END
$$$$

CDXL12

 25 24  0  0  0  0  0  0  0  0999 V2000
    0.0000   -2.2687    0.0000 N   0  0  0  0  0  0  0  2  0  0  0  0
    0.7145   -2.6812    0.0000 C   0  0  0  0  0  0  0  2  0  0  0  0
    1.4289   -2.2687    0.0000 C   0  0  0  0  0  0  0  2  0  0  0  0
    2.1434   -2.6812    0.0000 C   0  0  0  0  0  0  0  2  0  0  0  0
    2.8579   -2.2687    0.0000 C   0  0  0  0  0  0  0  2  0  0  0  0
    3.5724   -2.6812    0.0000 C   0  0  0  0  0  0  0  2  0  0  0  0
    4.2868   -2.2687    0.0000 C   0  0  0  0  0  0  0  2  0  0  0  0
    5.0013   -2.6812    0.0000 C   0  0  0  0  0  0  0  2  0  0  0  0
    5.7158   -2.2687    0.0000 C   0  0  0  0  0  0  0  2  0  0  0  0
   -0.7145   -2.6812    0.0000 C   0  0  0  0  0  0  0  2  0  0  0  0
   -1.4289   -2.2687    0.0000 C   0  0  0  0  0  0  0  2  0  0  0  0
   -2.1434   -2.6812    0.0000 C   0  0  0  0  0  0  0  2  0  0  0  0
   -2.8579   -2.2687    0.0000 C   0  0  0  0  0  0  0  2  0  0  0  0
   -3.5724   -2.6812    0.0000 C   0  0  0  0  0  0  0  2  0  0  0  0
   -4.2868   -2.2687    0.0000 C   0  0  0  0  0  0  0  2  0  0  0  0
   -5.0013   -2.6812    0.0000 C   0  0  0  0  0  0  0  2  0  0  0  0
   -5.7158   -2.2687    0.0000 C   0  0  0  0  0  0  0  2  0  0  0  0
    0.0000   -1.4438    0.0000 C   0  0  0  0  0  0  0  2  0  0  0  0
   -0.7145   -1.0313    0.0000 C   0  0  0  0  0  0  0  2  0  0  0  0
   -0.7145   -0.2062    0.0000 C   0  0  0  0  0  0  0  2  0  0  0  0
   -1.4289    0.2062    0.0000 C   0  0  0  0  0  0  0  2  0  0  0  0
   -1.4289    1.0313    0.0000 C   0  0  0  0  0  0  0  2  0  0  0  0
   -2.1434    1.4438    0.0000 C   0  0  0  0  0  0  0  2  0  0  0  0
   -2.1434    2.2687    0.0000 C   0  0  0  0  0  0  0  2  0  0  0  0
   -2.8579    2.6812    0.0000 C   0  0  0  0  0  0  0  2  0  0  0  0
  1  2  1  0        0
  2  3  1  0        0
  3  4  1  0        0
  4  5  1  0        0
  5  6  1  0        0
  6  7  1  0        0
  7  8  1  0        0
  8  9  1  0        0
  1 10  1  0        0
 10 11  1  0        0
 11 12  1  0        0
 12 13  1  0        0
 13 14  1  0        0
 14 15  1  0        0
 15 16  1  0        0
 16 17  1  0        0
  1 18  1  0        0
 18 19  1  0        0
 19 20  1  0        0
 20 21  1  0        0
 21 22  1  0        0
 22 23  1  0        0
 23 24  1  0        0
 24 25  1  0        0
M  END
$$$$

CDXL12

 11 12  0  0  0  0  0  0  0  0999 V2000
   -1.7862   -0.8250    0.0000 O   0  0  0  0  0  0  0  2  0  0  0  0
   -1.0717   -0.4125    0.0000 C   0  0  0  0  0  0  0  2  0  0  0  0
   -0.3572   -0.8250    0.0000 C   0  0  0  0  0  0  0  2  0  0  0  0
    0.3572   -0.4125    0.0000 C   0  0  0  0  0  0  0  2  0  0  0  0
    1.0717   -0.8250    0.0000 C   0  0  0  0  0  0  0  2  0  0  0  0
    1.7862   -0.4125    0.0000 C   0  0  0  0  0  0  0  2  0  0  0  0
    1.7862    0.4125    0.0000 C   0  0  0  0  0  0  0  2  0  0  0  0
    1.0717    0.8250    0.0000 C   0  0  0  0  0  0  0  2  0  0  0  0
    0.3572    0.4125    0.0000 C   0  0  0  0  0  0  0  2  0  0  0  0
   -0.3572    0.8250    0.0000 C   0  0  0  0  0  0  0  2  0  0  0  0
   -1.0717    0.4125    0.0000 C   0  0  0  0  0  0  0  2  0  0  0  0
  1  2  1  0        0
  2  3  4  0        0
  3  4  4  0        0
  4  5  1  0        0
  5  6  1  0        0
  6  7  1  0        0
  7  8  1  0        0
  8  9  1  0        0
  4  9  4  0        0
  9 10  4  0        0
 10 11  4  0        0
  2 11  4  0        0
M  END
$$$$

CDXL12

 12 13  0  0  0  0  0  0  0  0999 V2000
    1.4289    1.4437    0.0000 C   0  0  0  0  0  0  0  2  0  0  0  0
    0.7145    1.0312    0.0000 C   0  0  0  0  0  0  0  2  0  0  0  0
    0.7145    0.2062    0.0000 C   0  0  0  0  0  0  0  2  0  0  0  0
    1.4289   -0.2063    0.0000 C   0  0  0  0  0  0  0  2  0  0  0  0
    1.4289   -1.0312    0.0000 C   0  0  0  0  0  0  0  2  0  0  0  0
    0.7145   -1.4437    0.0000 C   0  0  0  0  0  0  0  2  0  0  0  0
    0.0000   -1.0312    0.0000 C   0  0  0  0  0  0  0  2  0  0  0  0
   -0.7145   -1.4437    0.0000 C   0  0  0  0  0  0  0  2  0  0  0  0
   -1.4289   -1.0312    0.0000 C   0  0  0  0  0  0  0  2  0  0  0  0
   -1.4289   -0.2062    0.0000 C   0  0  0  0  0  0  0  2  0  0  0  0
   -0.7145    0.2063    0.0000 C   0  0  0  0  0  0  0  2  0  0  0  0
    0.0000   -0.2062    0.0000 C   0  0  0  0  0  0  0  2  0  0  0  0
  1  2  1  0        0
  2  3  1  0        0
  3  4  4  0        0
  4  5  4  0        0
  5  6  4  0        0
  6  7  4  0        0
  7  8  4  0        0
  8  9  4  0        0
  9 10  4  0        0
 10 11  4  0        0
 11 12  4  0        0
  3 12  4  0        0
  7 12  4  0        0
M  END
$$$$

CDXL12

 12 12  0  0  0  0  0  0  0  0999 V2000
   -1.0717    0.4125    0.0000 O   0  0  0  0  0  0  0  2  0  0  0  0
   -1.0717   -0.4125    0.0000 C   0  0  0  0  0  0  0  2  0  0  0  0
   -0.3572   -0.8250    0.0000 O   0  0  0  0  0  0  0  2  0  0  0  0
    0.3572   -0.4125    0.0000 C   0  0  0  0  0  0  0  2  0  0  0  0
    0.3572    0.4125    0.0000 C   0  0  0  0  0  0  0  2  0  0  0  0
    1.0717    0.8250    0.0000 C   0  0  0  0  0  0  0  2  0  0  0  0
    1.7862    0.4125    0.0000 C   0  0  0  0  0  0  0  2  0  0  0  0
    1.7862   -0.4125    0.0000 C   0  0  0  0  0  0  0  2  0  0  0  0
    2.5006   -0.8250    0.0000 C   0  0  0  0  0  0  0  2  0  0  0  0
    1.0717   -0.8250    0.0000 C   0  0  0  0  0  0  0  2  0  0  0  0
   -1.7862   -0.8250    0.0000 N   0  0  0  0  0  0  0  2  0  0  0  0
   -2.5006   -0.4125    0.0000 C   0  0  0  0  0  0  0  2  0  0  0  0
  1  2  2  0        0
  2  3  1  0        0
  3  4  1  0        0
  4  5  4  0        0
  5  6  4  0        0
  6  7  4  0        0
  7  8  4  0        0
  8  9  1  0        0
  8 10  4  0        0
  4 10  4  0        0
  2 11  1  0        0
 11 12  1  0        0
M  END
$$$$

CDXL12

 14 14  0  0  0  0  0  0  0  0999 V2000
    2.1434    0.6188    0.0000 C   0  0  0  0  0  0  0  2  0  0  0  0
    1.4289    1.0312    0.0000 C   0  0  0  0  0  0  0  2  0  0  0  0
    0.7145    0.6188    0.0000 S   0  0  0  0  0  0  0  2  0  0  0  0
    0.0000    1.0312    0.0000 C   0  0  0  0  0  0  0  2  0  0  0  0
    0.0000    1.8563    0.0000 O   0  0  0  0  0  0  0  2  0  0  0  0
   -0.7145    0.6188    0.0000 N   0  0  0  0  0  0  0  2  0  0  0  0
   -1.4289    1.0313    0.0000 C   0  0  0  0  0  0  0  2  0  0  0  0
   -2.1434    0.6188    0.0000 C   0  0  0  0  0  0  0  2  0  0  0  0
   -0.7145   -0.2062    0.0000 C   0  0  0  0  0  0  0  2  0  0  0  0
   -1.4289   -0.6188    0.0000 C   0  0  0  0  0  0  0  2  0  0  0  0
   -1.4289   -1.4438    0.0000 C   0  0  0  0  0  0  0  2  0  0  0  0
   -0.7145   -1.8563    0.0000 C   0  0  0  0  0  0  0  2  0  0  0  0
    0.0000   -1.4438    0.0000 C   0  0  0  0  0  0  0  2  0  0  0  0
    0.0000   -0.6188    0.0000 C   0  0  0  0  0  0  0  2  0  0  0  0
  1  2  1  0        0
  2  3  1  0        0
  3  4  1  0        0
  4  5  2  0        0
  4  6  1  0        0
  6  7  1  0        0
  7  8  1  0        0
  6  9  1  0        0
  9 10  1  0        0
 10 11  1  0        0
 11 12  1  0        0
 12 13  1  0        0
 13 14  1  0        0
  9 14  1  0        0
M  END
$$$$

CDXL12

 21 22  0  0  0  0  0  0  0  0999 V2000
   -3.7436    1.1822    0.0000 C   0  0  0  0  0  0  0  2  0  0  0  0
   -3.0291    0.7697    0.0000 C   0  0  0  0  0  0  0  2  0  0  0  0
   -2.3146    1.1822    0.0000 C   0  0  0  0  0  0  0  2  0  0  0  0
   -1.6002    0.7697    0.0000 C   0  0  0  0  0  0  0  2  0  0  0  0
   -1.6002   -0.0553    0.0000 C   0  0  0  0  0  0  0  2  0  0  0  0
   -2.3146   -0.4678    0.0000 C   0  0  0  0  0  0  0  2  0  0  0  0
   -3.0291   -0.0553    0.0000 C   0  0  0  0  0  0  0  2  0  0  0  0
   -0.8857   -0.4678    0.0000 S   0  0  0  0  0  0  0  2  0  0  0  0
   -0.4732    0.2467    0.0000 O   0  0  0  0  0  0  0  2  0  0  0  0
   -1.2982   -1.1822    0.0000 O   0  0  0  0  0  0  0  2  0  0  0  0
   -0.1712   -0.8803    0.0000 N   0  0  0  0  0  0  0  2  0  0  0  0
    0.5432   -0.4678    0.0000 C   0  0  0  0  0  0  0  2  0  0  0  0
    0.5432    0.3572    0.0000 O   0  0  0  0  0  0  0  2  0  0  0  0
    1.2577   -0.8803    0.0000 N   0  0  0  0  0  0  0  2  0  0  0  0
    1.9722   -0.4678    0.0000 N   0  0  0  0  0  0  0  2  0  0  0  0
    1.9105    0.3549    0.0000 C   0  0  0  0  0  0  0  2  0  0  0  0
    2.5153    0.9161    0.0000 C   0  0  0  0  0  0  0  2  0  0  0  0
    3.3311    0.7931    0.0000 C   0  0  0  0  0  0  0  2  0  0  0  0
    3.7436    0.0786    0.0000 C   0  0  0  0  0  0  0  2  0  0  0  0
    3.4422   -0.6893    0.0000 C   0  0  0  0  0  0  0  2  0  0  0  0
    2.6538   -0.9325    0.0000 C   0  0  0  0  0  0  0  2  0  0  0  0
  1  2  1  0        0
  2  3  4  0        0
  3  4  4  0        0
  4  5  4  0        0
  5  6  4  0        0
  6  7  4  0        0
  2  7  4  0        0
  5  8  1  0        0
  8  9  2  0        0
  8 10  2  0        0
  8 11  1  0        0
 11 12  1  0        0
 12 13  2  0        0
 12 14  1  0        0
 14 15  1  0        0
 15 16  1  0        0
 16 17  1  0        0
 17 18  1  0        0
 18 19  1  0        0
 19 20  1  0        0
 20 21  1  0        0
 15 21  1  0        0
M  END
$$$$

CDXL12

 23 24  0  0  0  0  0  0  0  0999 V2000
    0.0000   -0.9487    0.0000 O   0  0  0  0  0  0  0  2  0  0  0  0
   -0.9288   -0.4125    0.0000 C   0  0  0  0  0  0  0  2  0  0  0  0
   -1.6433   -0.8250    0.0000 C   0  0  0  0  0  0  0  2  0  0  0  0
   -2.3578   -0.4125    0.0000 C   0  0  0  0  0  0  0  2  0  0  0  0
   -2.3578    0.4125    0.0000 C   0  0  0  0  0  0  0  2  0  0  0  0
   -1.6433    0.8250    0.0000 C   0  0  0  0  0  0  0  2  0  0  0  0
   -1.6433    1.6500    0.0000 Br  0  0  0  0  0  0  0  2  0  0  0  0
   -0.9288    0.4125    0.0000 C   0  0  0  0  0  0  0  2  0  0  0  0
   -0.2143    0.8250    0.0000 Br  0  0  0  0  0  0  0  2  0  0  0  0
   -3.0722    0.8250    0.0000 Br  0  0  0  0  0  0  0  2  0  0  0  0
   -3.0722   -0.8250    0.0000 Br  0  0  0  0  0  0  0  2  0  0  0  0
   -1.6433   -1.6500    0.0000 Br  0  0  0  0  0  0  0  2  0  0  0  0
    0.9288   -0.4125    0.0000 C   0  0  0  0  0  0  0  2  0  0  0  0
    0.9288    0.4125    0.0000 C   0  0  0  0  0  0  0  2  0  0  0  0
    1.6433    0.8250    0.0000 C   0  0  0  0  0  0  0  2  0  0  0  0
    2.3578    0.4125    0.0000 C   0  0  0  0  0  0  0  2  0  0  0  0
    2.3578   -0.4125    0.0000 C   0  0  0  0  0  0  0  2  0  0  0  0
    3.0722   -0.8250    0.0000 Br  0  0  0  0  0  0  0  2  0  0  0  0
    1.6433   -0.8250    0.0000 C   0  0  0  0  0  0  0  2  0  0  0  0
    1.6433   -1.6500    0.0000 Br  0  0  0  0  0  0  0  2  0  0  0  0
    3.0722    0.8250    0.0000 Br  0  0  0  0  0  0  0  2  0  0  0  0
    1.6433    1.6500    0.0000 Br  0  0  0  0  0  0  0  2  0  0  0  0
    0.2143    0.8250    0.0000 Br  0  0  0  0  0  0  0  2  0  0  0  0
  1  2  1  0        0
  2  3  4  0        0
  3  4  4  0        0
  4  5  4  0        0
  5  6  4  0        0
  6  7  1  0        0
  6  8  4  0        0
  2  8  4  0        0
  8  9  1  0        0
  5 10  1  0        0
  4 11  1  0        0
  3 12  1  0        0
  1 13  1  0        0
 13 14  4  0        0
 14 15  4  0        0
 15 16  4  0        0
 16 17  4  0        0
 17 18  1  0        0
 17 19  4  0        0
 13 19  4  0        0
 19 20  1  0        0
 16 21  1  0        0
 15 22  1  0        0
 14 23  1  0        0
M  END
$$$$

CDXL12

  7  6  0  0  0  0  0  0  0  0999 V2000
    1.4289   -0.1510    0.0000 C   0  0  0  0  0  0  0  2  0  0  0  0
    0.7145   -0.5635    0.0000 C   0  0  0  0  0  0  0  2  0  0  0  0
    0.0000   -0.1510    0.0000 C   0  0  0  0  0  0  0  2  0  0  0  0
   -0.4125    0.5635    0.0000 C   0  0  0  0  0  0  0  2  0  0  0  0
    0.4125    0.5635    0.0000 C   0  0  0  0  0  0  0  2  0  0  0  0
   -0.7145   -0.5635    0.0000 C   0  0  0  0  0  0  0  2  0  0  0  0
   -1.4289   -0.1510    0.0000 O   0  0  0  0  0  0  0  2  0  0  0  0
  1  2  1  0        0
  2  3  1  0        0
  3  4  1  0        0
  3  5  1  0        0
  3  6  1  0        0
  6  7  1  0        0
M  END
$$$$

CDXL12

 10 10  0  0  0  0  0  0  0  0999 V2000
   -0.7145    1.2375    0.0000 Cl  0  0  0  0  0  0  0  2  0  0  0  0
    0.0000    0.8250    0.0000 C   0  0  0  0  0  0  0  2  0  0  0  0
    0.7145    1.2375    0.0000 C   0  0  0  0  0  0  0  2  0  0  0  0
    1.4289    0.8250    0.0000 C   0  0  0  0  0  0  0  2  0  0  0  0
    1.4289    0.0000    0.0000 C   0  0  0  0  0  0  0  2  0  0  0  0
    0.7145   -0.4125    0.0000 C   0  0  0  0  0  0  0  2  0  0  0  0
    0.7145   -1.2375    0.0000 Cl  0  0  0  0  0  0  0  2  0  0  0  0
    0.0000    0.0000    0.0000 C   0  0  0  0  0  0  0  2  0  0  0  0
   -0.7145   -0.4125    0.0000 C   0  0  0  0  0  0  0  2  0  0  0  0
   -1.4289   -0.8250    0.0000 N   0  0  0  0  0  0  0  2  0  0  0  0
  1  2  1  0        0
  2  3  4  0        0
  3  4  4  0        0
  4  5  4  0        0
  5  6  4  0        0
  6  7  1  0        0
  6  8  4  0        0
  2  8  4  0        0
  8  9  1  0        0
  9 10  3  0        0
M  END
$$$$

CDXL12

 12 13  0  0  0  0  0  0  0  0999 V2000
    0.3572    1.2375    0.0000 N   0  0  0  0  0  0  0  2  0  0  0  0
   -0.3572    0.8250    0.0000 C   0  0  0  0  0  0  0  2  0  0  0  0
   -0.3572    0.0000    0.0000 C   0  0  0  0  0  0  0  2  0  0  0  0
    0.3572   -0.4125    0.0000 C   0  0  0  0  0  0  0  2  0  0  0  0
    1.0717    0.0000    0.0000 C   0  0  0  0  0  0  0  2  0  0  0  0
    1.0717    0.8250    0.0000 C   0  0  0  0  0  0  0  2  0  0  0  0
    1.7862    1.2375    0.0000 C   0  0  0  0  0  0  0  2  0  0  0  0
    0.3572   -1.2375    0.0000 C   0  0  0  0  0  0  0  2  0  0  0  0
   -1.0717   -0.4125    0.0000 C   0  0  0  0  0  0  0  2  0  0  0  0
   -1.7862    0.0000    0.0000 C   0  0  0  0  0  0  0  2  0  0  0  0
   -1.7862    0.8250    0.0000 C   0  0  0  0  0  0  0  2  0  0  0  0
   -1.0717    1.2375    0.0000 C   0  0  0  0  0  0  0  2  0  0  0  0
  1  2  4  0        0
  2  3  4  0        0
  3  4  4  0        0
  4  5  4  0        0
  5  6  4  0        0
  1  6  4  0        0
  6  7  1  0        0
  4  8  1  0        0
  3  9  4  0        0
  9 10  4  0        0
 10 11  4  0        0
 11 12  4  0        0
  2 12  4  0        0
M  END
$$$$

CDXL12

 19 21  0  0  0  0  0  0  0  0999 V2000
    0.0000   -1.4438    0.0000 O   0  0  0  0  0  0  0  2  0  0  0  0
    0.0000   -0.6188    0.0000 C   0  0  0  0  0  0  0  2  0  0  0  0
   -0.7145   -0.2063    0.0000 C   0  0  0  0  0  0  0  2  0  0  0  0
   -0.7145    0.6187    0.0000 C   0  0  0  0  0  0  0  2  0  0  0  0
    0.0000    1.0312    0.0000 C   0  0  0  0  0  0  0  2  0  0  0  0
    0.0000    1.8562    0.0000 O   0  0  0  0  0  0  0  2  0  0  0  0
    0.7145    0.6187    0.0000 C   0  0  0  0  0  0  0  2  0  0  0  0
    1.4289    1.0312    0.0000 C   0  0  0  0  0  0  0  2  0  0  0  0
    1.4289    1.8562    0.0000 N   0  0  0  0  0  0  0  2  0  0  0  0
    2.1434    0.6187    0.0000 C   0  0  0  0  0  0  0  2  0  0  0  0
    2.1434   -0.2062    0.0000 C   0  0  0  0  0  0  0  2  0  0  0  0
    1.4289   -0.6187    0.0000 C   0  0  0  0  0  0  0  2  0  0  0  0
    1.4289   -1.4437    0.0000 N   0  0  0  0  0  0  0  2  0  0  0  0
    2.1434   -1.8562    0.0000 C   0  0  0  0  0  0  0  2  0  0  0  0
    0.7145   -0.2062    0.0000 C   0  0  0  0  0  0  0  2  0  0  0  0
   -1.4289    1.0312    0.0000 C   0  0  0  0  0  0  0  2  0  0  0  0
   -2.1434    0.6187    0.0000 C   0  0  0  0  0  0  0  2  0  0  0  0
   -2.1434   -0.2062    0.0000 C   0  0  0  0  0  0  0  2  0  0  0  0
   -1.4289   -0.6187    0.0000 C   0  0  0  0  0  0  0  2  0  0  0  0
  1  2  2  0        0
  2  3  1  0        0
  3  4  4  0        0
  4  5  1  0        0
  5  6  2  0        0
  5  7  1  0        0
  7  8  4  0        0
  8  9  1  0        0
  8 10  4  0        0
 10 11  4  0        0
 11 12  4  0        0
 12 13  1  0        0
 13 14  1  0        0
 12 15  4  0        0
  2 15  1  0        0
  7 15  4  0        0
  4 16  4  0        0
 16 17  4  0        0
 17 18  4  0        0
 18 19  4  0        0
  3 19  4  0        0
M  END
$$$$

CDXL12

 19 21  0  0  0  0  0  0  0  0999 V2000
   -2.4762   -0.5003    0.0000 O   0  0  0  0  0  0  0  2  0  0  0  0
   -2.4762    0.3247    0.0000 C   0  0  0  0  0  0  0  2  0  0  0  0
   -1.7617    0.7372    0.0000 C   0  0  0  0  0  0  0  2  0  0  0  0
   -1.0473    0.3247    0.0000 C   0  0  0  0  0  0  0  2  0  0  0  0
   -1.0473   -0.5003    0.0000 C   0  0  0  0  0  0  0  2  0  0  0  0
   -0.3328   -0.9128    0.0000 C   0  0  0  0  0  0  0  2  0  0  0  0
    0.3817   -0.5003    0.0000 C   0  0  0  0  0  0  0  2  0  0  0  0
    0.3817    0.3247    0.0000 C   0  0  0  0  0  0  0  2  0  0  0  0
    1.1663    0.5796    0.0000 C   0  0  0  0  0  0  0  2  0  0  0  0
    1.6512   -0.0878    0.0000 C   0  0  0  0  0  0  0  2  0  0  0  0
    2.4762   -0.0878    0.0000 C   0  0  0  0  0  0  0  2  0  0  0  0
    1.1663   -0.7552    0.0000 C   0  0  0  0  0  0  0  2  0  0  0  0
    1.7794   -1.3073    0.0000 C   0  0  0  0  0  0  0  2  0  0  0  0
    0.9948   -1.5622    0.0000 C   0  0  0  0  0  0  0  2  0  0  0  0
    0.9948    1.3866    0.0000 C   0  0  0  0  0  0  0  2  0  0  0  0
    1.7794    1.1317    0.0000 C   0  0  0  0  0  0  0  2  0  0  0  0
   -0.3328    0.7372    0.0000 C   0  0  0  0  0  0  0  2  0  0  0  0
   -1.7617   -0.9128    0.0000 C   0  0  0  0  0  0  0  2  0  0  0  0
   -1.7617    1.5622    0.0000 C   0  0  0  0  0  0  0  2  0  0  0  0
  1  2  1  0        0
  2  3  1  0        0
  3  4  1  0        0
  4  5  4  0        0
  5  6  4  0        0
  6  7  4  0        0
  7  8  4  0        0
  8  9  1  0        0
  9 10  1  0        0
 10 11  1  0        0
 10 12  1  0        0
  7 12  1  0        0
 12 13  1  0        0
 12 14  1  0        0
  9 15  1  0        0
  9 16  1  0        0
  8 17  4  0        0
  4 17  4  0        0
  5 18  1  0        0
  1 18  1  0        0
  3 19  1  0        0
M  END
$$$$

CDXL12

 21 23  0  0  0  0  0  0  0  0999 V2000
    1.7862    1.0312    0.0000 O   0  0  0  0  0  0  0  2  0  0  0  0
    1.0717    1.4437    0.0000 C   0  0  0  0  0  0  0  2  0  0  0  0
    0.3572    1.0313    0.0000 C   0  0  0  0  0  0  0  2  0  0  0  0
    0.3572    0.2062    0.0000 N   0  0  0  0  0  0  0  2  0  0  0  0
   -0.3572   -0.2062    0.0000 N   0  0  0  0  0  0  0  2  0  0  0  0
   -0.3572   -1.0313    0.0000 C   0  0  0  0  0  0  0  2  0  0  0  0
   -1.0717   -1.4438    0.0000 C   0  0  0  0  0  0  0  2  0  0  0  0
   -1.0717   -2.2687    0.0000 C   0  0  0  0  0  0  0  2  0  0  0  0
   -1.7862   -2.6812    0.0000 C   0  0  0  0  0  0  0  2  0  0  0  0
   -2.5006   -2.2687    0.0000 C   0  0  0  0  0  0  0  2  0  0  0  0
   -2.5006   -1.4438    0.0000 C   0  0  0  0  0  0  0  2  0  0  0  0
   -1.7862   -1.0313    0.0000 C   0  0  0  0  0  0  0  2  0  0  0  0
   -0.3572   -2.6812    0.0000 C   0  0  0  0  0  0  0  2  0  0  0  0
    0.3572   -2.2687    0.0000 C   0  0  0  0  0  0  0  2  0  0  0  0
    0.3572   -1.4438    0.0000 C   0  0  0  0  0  0  0  2  0  0  0  0
    1.0717   -1.0313    0.0000 O   0  0  0  0  0  0  0  2  0  0  0  0
   -0.3572    1.4438    0.0000 C   0  0  0  0  0  0  0  2  0  0  0  0
   -0.3572    2.2687    0.0000 C   0  0  0  0  0  0  0  2  0  0  0  0
    0.3572    2.6812    0.0000 C   0  0  0  0  0  0  0  2  0  0  0  0
    1.0717    2.2687    0.0000 C   0  0  0  0  0  0  0  2  0  0  0  0
    2.5006    1.4437    0.0000 C   0  0  0  0  0  0  0  2  0  0  0  0
  1  2  1  0        0
  2  3  4  0        0
  3  4  1  0        0
  4  5  2  0        0
  5  6  1  0        0
  6  7  4  0        0
  7  8  4  0        0
  8  9  4  0        0
  9 10  4  0        0
 10 11  4  0        0
 11 12  4  0        0
  7 12  4  0        0
  8 13  4  0        0
 13 14  4  0        0
 14 15  4  0        0
  6 15  4  0        0
 15 16  1  0        0
  3 17  4  0        0
 17 18  4  0        0
 18 19  4  0        0
 19 20  4  0        0
  2 20  4  0        0
  1 21  1  0        0
M  END
$$$$

CDXL12

 35 38  0  0  0  0  0  0  0  0999 V2000
   -3.9296   -1.0312    0.0000 O   0  0  0  0  0  0  0  2  0  0  0  0
   -3.9296   -0.2062    0.0000 C   0  0  0  0  0  0  0  2  0  0  0  0
   -4.6441    0.2063    0.0000 O   0  0  0  0  0  0  0  2  0  0  0  0
   -3.2151    0.2063    0.0000 C   0  0  0  0  0  0  0  2  0  0  0  0
   -3.2151    1.0312    0.0000 C   0  0  0  0  0  0  0  2  0  0  0  0
   -3.9296    1.4437    0.0000 O   0  0  0  0  0  0  0  2  0  0  0  0
   -2.5006    1.4437    0.0000 C   0  0  0  0  0  0  0  2  0  0  0  0
   -1.7862    1.0312    0.0000 C   0  0  0  0  0  0  0  2  0  0  0  0
   -1.7862    0.2063    0.0000 C   0  0  0  0  0  0  0  2  0  0  0  0
   -1.0717   -0.2063    0.0000 C   0  0  0  0  0  0  0  2  0  0  0  0
   -1.0717   -1.0313    0.0000 O   0  0  0  0  0  0  0  2  0  0  0  0
   -0.3572    0.2063    0.0000 C   0  0  0  0  0  0  0  2  0  0  0  0
   -0.3572    1.0312    0.0000 C   0  0  0  0  0  0  0  2  0  0  0  0
    0.3572    1.4437    0.0000 C   0  0  0  0  0  0  0  2  0  0  0  0
    0.3572    2.2687    0.0000 O   0  0  0  0  0  0  0  2  0  0  0  0
    1.0717    1.0312    0.0000 C   0  0  0  0  0  0  0  2  0  0  0  0
    1.7862    1.4437    0.0000 O   0  0  0  0  0  0  0  2  0  0  0  0
    1.0717    0.2063    0.0000 C   0  0  0  0  0  0  0  2  0  0  0  0
    1.7862   -0.2062    0.0000 C   0  0  0  0  0  0  0  2  0  0  0  0
    2.5006    0.2063    0.0000 O   0  0  0  0  0  0  0  2  0  0  0  0
    3.2151   -0.2062    0.0000 C   0  0  0  0  0  0  0  2  0  0  0  0
    3.2151   -1.0312    0.0000 C   0  0  0  0  0  0  0  2  0  0  0  0
    3.9296   -1.4437    0.0000 O   0  0  0  0  0  0  0  2  0  0  0  0
    2.5006   -1.4437    0.0000 C   0  0  0  0  0  0  0  2  0  0  0  0
    2.5006   -2.2687    0.0000 O   0  0  0  0  0  0  0  2  0  0  0  0
    1.7862   -1.0312    0.0000 C   0  0  0  0  0  0  0  2  0  0  0  0
    1.0717   -1.4437    0.0000 O   0  0  0  0  0  0  0  2  0  0  0  0
    3.9296    0.2063    0.0000 C   0  0  0  0  0  0  0  2  0  0  0  0
    4.6441   -0.2062    0.0000 O   0  0  0  0  0  0  0  2  0  0  0  0
    0.3572   -0.2062    0.0000 C   0  0  0  0  0  0  0  2  0  0  0  0
    0.3572   -1.0312    0.0000 O   0  0  0  0  0  0  0  2  0  0  0  0
   -1.0717    1.4437    0.0000 C   0  0  0  0  0  0  0  2  0  0  0  0
   -1.0717    2.2687    0.0000 O   0  0  0  0  0  0  0  2  0  0  0  0
   -2.5006   -0.2062    0.0000 C   0  0  0  0  0  0  0  2  0  0  0  0
   -2.5006   -1.0312    0.0000 C   0  0  0  0  0  0  0  2  0  0  0  0
  1  2  2  0        0
  2  3  1  0        0
  2  4  1  0        0
  4  5  4  0        0
  5  6  1  0        0
  5  7  4  0        0
  7  8  4  0        0
  8  9  4  0        0
  9 10  1  0        0
 10 11  2  0        0
 10 12  1  0        0
 12 13  4  0        0
 13 14  4  0        0
 14 15  1  0        0
 14 16  4  0        0
 16 17  1  0        0
 16 18  4  0        0
 18 19  1  0        0
 19 20  1  0        0
 20 21  1  0        0
 21 22  1  0        0
 22 23  1  0        0
 22 24  1  0        0
 24 25  1  0        0
 24 26  1  0        0
 19 26  1  0        0
 26 27  1  0        0
 21 28  1  0        0
 28 29  1  0        0
 18 30  4  0        0
 12 30  4  0        0
 30 31  1  0        0
 13 32  1  0        0
  8 32  1  0        0
 32 33  2  0        0
  9 34  4  0        0
  4 34  4  0        0
 34 35  1  0        0
M  END
$$$$

CDXL12

  7  6  0  0  0  0  0  0  0  0999 V2000
    0.7145    0.6187    0.0000 O   0  0  0  0  0  0  0  2  0  0  0  0
    0.7145   -0.2062    0.0000 As  0  0  0  0  0  0  0  2  0  0  0  0
    1.4289   -0.6188    0.0000 O   0  0  0  0  0  0  0  2  0  0  0  0
    0.0000   -0.6188    0.0000 O   0  0  0  0  0  0  0  2  0  0  0  0
   -0.7145   -0.2062    0.0000 As  0  0  0  0  0  0  0  2  0  0  0  0
   -1.4289   -0.6187    0.0000 O   0  0  0  0  0  0  0  2  0  0  0  0
   -0.7145    0.6188    0.0000 O   0  0  0  0  0  0  0  2  0  0  0  0
  1  2  2  0        0
  2  3  2  0        0
  2  4  1  0        0
  4  5  1  0        0
  5  6  2  0        0
  5  7  2  0        0
M  END
$$$$

CDXL12

  3  2  0  0  0  0  0  0  0  0999 V2000
    0.0000    0.2062    0.0000 S   0  0  0  0  0  0  0  2  0  0  0  0
   -0.7145   -0.2062    0.0000 Na  0  0  0  0  0  0  0  2  0  0  0  0
    0.7145   -0.2062    0.0000 Na  0  0  0  0  0  0  0  2  0  0  0  0
  1  2  1  0        0
  1  3  1  0        0
M  END
$$$$

CDXL12

  5  4  0  0  0  0  0  0  0  0999 V2000
   -1.4289   -0.2062    0.0000 O   0  0  0  0  0  0  0  2  0  0  0  0
   -0.7145    0.2062    0.0000 As  0  0  0  0  0  0  0  2  0  0  0  0
    0.0000   -0.2062    0.0000 O   0  0  0  0  0  0  0  2  0  0  0  0
    0.7145    0.2062    0.0000 As  0  0  0  0  0  0  0  2  0  0  0  0
    1.4289   -0.2062    0.0000 O   0  0  0  0  0  0  0  2  0  0  0  0
  1  2  2  0        0
  2  3  1  0        0
  3  4  1  0        0
  4  5  2  0        0
M  END
$$$$

CDXL12

  8  8  0  0  0  0  0  0  0  0999 V2000
    1.0717   -0.8250    0.0000 C   0  0  0  0  0  0  0  2  0  0  0  0
    0.3572   -0.4125    0.0000 C   0  0  0  0  0  0  0  2  0  0  0  0
   -0.3572   -0.8250    0.0000 C   0  0  0  0  0  0  0  2  0  0  0  0
   -1.0717   -0.4125    0.0000 C   0  0  0  0  0  0  0  2  0  0  0  0
   -1.0717    0.4125    0.0000 C   0  0  0  0  0  0  0  2  0  0  0  0
   -0.3572    0.8250    0.0000 C   0  0  0  0  0  0  0  2  0  0  0  0
    0.3572    0.4125    0.0000 C   0  0  0  0  0  0  0  2  0  0  0  0
    1.0717    0.8250    0.0000 C   0  0  0  0  0  0  0  2  0  0  0  0
  1  2  1  0        0
  2  3  4  0        0
  3  4  4  0        0
  4  5  4  0        0
  5  6  4  0        0
  6  7  4  0        0
  2  7  4  0        0
  7  8  1  0        0
M  END
$$$$

CDXL12

 26 28  0  0  0  0  0  0  0  0999 V2000
    0.0000   -1.4438    0.0000 O   0  0  0  0  0  0  0  2  0  0  0  0
    0.0000   -0.6188    0.0000 P   0  0  0  0  0  0  0  2  0  0  0  0
   -0.7145   -0.2062    0.0000 O   0  0  0  0  0  0  0  2  0  0  0  0
   -1.4289   -0.6188    0.0000 C   0  0  0  0  0  0  0  2  0  0  0  0
   -2.1434   -0.2062    0.0000 C   0  0  0  0  0  0  0  2  0  0  0  0
   -2.8579   -0.6187    0.0000 C   0  0  0  0  0  0  0  2  0  0  0  0
   -2.8579   -1.4437    0.0000 C   0  0  0  0  0  0  0  2  0  0  0  0
   -2.1434   -1.8562    0.0000 C   0  0  0  0  0  0  0  2  0  0  0  0
   -1.4289   -1.4438    0.0000 C   0  0  0  0  0  0  0  2  0  0  0  0
   -0.7145   -1.8563    0.0000 C   0  0  0  0  0  0  0  2  0  0  0  0
    0.7145   -0.2062    0.0000 O   0  0  0  0  0  0  0  2  0  0  0  0
    1.4289   -0.6188    0.0000 C   0  0  0  0  0  0  0  2  0  0  0  0
    2.1434   -0.2062    0.0000 C   0  0  0  0  0  0  0  2  0  0  0  0
    2.8579   -0.6188    0.0000 C   0  0  0  0  0  0  0  2  0  0  0  0
    2.8579   -1.4438    0.0000 C   0  0  0  0  0  0  0  2  0  0  0  0
    2.1434   -1.8563    0.0000 C   0  0  0  0  0  0  0  2  0  0  0  0
    1.4289   -1.4438    0.0000 C   0  0  0  0  0  0  0  2  0  0  0  0
    0.7145   -1.8563    0.0000 C   0  0  0  0  0  0  0  2  0  0  0  0
    0.0000    0.2062    0.0000 O   0  0  0  0  0  0  0  2  0  0  0  0
   -0.7145    0.6188    0.0000 C   0  0  0  0  0  0  0  2  0  0  0  0
   -1.4289    0.2062    0.0000 C   0  0  0  0  0  0  0  2  0  0  0  0
   -2.1434    0.6187    0.0000 C   0  0  0  0  0  0  0  2  0  0  0  0
   -2.1434    1.4438    0.0000 C   0  0  0  0  0  0  0  2  0  0  0  0
   -1.4289    1.8563    0.0000 C   0  0  0  0  0  0  0  2  0  0  0  0
   -0.7145    1.4438    0.0000 C   0  0  0  0  0  0  0  2  0  0  0  0
    0.0000    1.8563    0.0000 C   0  0  0  0  0  0  0  2  0  0  0  0
  1  2  2  0        0
  2  3  1  0        0
  3  4  1  0        0
  4  5  4  0        0
  5  6  4  0        0
  6  7  4  0        0
  7  8  4  0        0
  8  9  4  0        0
  4  9  4  0        0
  9 10  1  0        0
  2 11  1  0        0
 11 12  1  0        0
 12 13  4  0        0
 13 14  4  0        0
 14 15  4  0        0
 15 16  4  0        0
 16 17  4  0        0
 12 17  4  0        0
 17 18  1  0        0
  2 19  1  0        0
 19 20  1  0        0
 20 21  4  0        0
 21 22  4  0        0
 22 23  4  0        0
 23 24  4  0        0
 24 25  4  0        0
 20 25  4  0        0
 25 26  1  0        0
M  END
$$$$

CDXL12

 65 67  0  0  0  0  0  0  0  0999 V2000
   -4.6744    0.7910    0.0000 O   0  0  0  0  0  0  0  2  0  0  0  0
   -5.3064    1.3213    0.0000 C   0  0  0  0  0  0  0  2  0  0  0  0
   -6.0817    1.0391    0.0000 C   0  0  0  0  0  0  0  2  0  0  0  0
   -5.1632    2.1337    0.0000 C   0  0  0  0  0  0  0  2  0  0  0  0
   -5.7952    2.6640    0.0000 O   0  0  0  0  0  0  0  2  0  0  0  0
   -4.3879    2.4159    0.0000 C   0  0  0  0  0  0  0  2  0  0  0  0
   -4.2447    3.2284    0.0000 N   0  0  0  0  0  0  0  2  0  0  0  0
   -3.7559    1.8856    0.0000 C   0  0  0  0  0  0  0  2  0  0  0  0
   -2.9807    2.1678    0.0000 O   0  0  0  0  0  0  0  2  0  0  0  0
   -3.8992    1.0731    0.0000 C   0  0  0  0  0  0  0  2  0  0  0  0
   -3.2672    0.5428    0.0000 O   0  0  0  0  0  0  0  2  0  0  0  0
   -2.4920    0.8250    0.0000 C   0  0  0  0  0  0  0  2  0  0  0  0
   -1.7775    0.4125    0.0000 C   0  0  0  0  0  0  0  2  0  0  0  0
   -1.7775   -0.4125    0.0000 C   0  0  0  0  0  0  0  2  0  0  0  0
   -2.4920   -0.8250    0.0000 C   0  0  0  0  0  0  0  2  0  0  0  0
   -3.3044   -0.6817    0.0000 C   0  0  0  0  0  0  0  2  0  0  0  0
   -3.5866    0.0935    0.0000 O   0  0  0  0  0  0  0  2  0  0  0  0
   -3.8347   -1.3137    0.0000 O   0  0  0  0  0  0  0  2  0  0  0  0
   -2.4920   -1.6500    0.0000 C   0  0  0  0  0  0  0  2  0  0  0  0
   -3.2064   -2.0625    0.0000 O   0  0  0  0  0  0  0  2  0  0  0  0
   -1.7775   -2.0625    0.0000 C   0  0  0  0  0  0  0  2  0  0  0  0
   -1.0630   -1.6500    0.0000 C   0  0  0  0  0  0  0  2  0  0  0  0
   -1.0630   -0.8250    0.0000 O   0  0  0  0  0  0  0  2  0  0  0  0
   -1.0630   -2.4750    0.0000 O   0  0  0  0  0  0  0  2  0  0  0  0
   -0.3486   -2.0625    0.0000 C   0  0  0  0  0  0  0  2  0  0  0  0
   -0.3486   -2.8875    0.0000 C   0  0  0  0  0  0  0  2  0  0  0  0
   -1.0630   -3.3000    0.0000 O   0  0  0  0  0  0  0  2  0  0  0  0
    0.3659   -3.3000    0.0000 C   0  0  0  0  0  0  0  2  0  0  0  0
    0.3659   -4.1250    0.0000 O   0  0  0  0  0  0  0  2  0  0  0  0
    1.0804   -2.8875    0.0000 C   0  0  0  0  0  0  0  2  0  0  0  0
    1.7949   -3.3000    0.0000 C   0  0  0  0  0  0  0  2  0  0  0  0
    1.7949   -4.1250    0.0000 C   0  0  0  0  0  0  0  2  0  0  0  0
    1.0804   -4.5375    0.0000 O   0  0  0  0  0  0  0  2  0  0  0  0
    2.5093   -4.5375    0.0000 C   0  0  0  0  0  0  0  2  0  0  0  0
    3.2238   -4.1250    0.0000 C   0  0  0  0  0  0  0  2  0  0  0  0
    3.9383   -4.5375    0.0000 O   0  0  0  0  0  0  0  2  0  0  0  0
    3.2238   -3.3000    0.0000 C   0  0  0  0  0  0  0  2  0  0  0  0
    3.9383   -2.8875    0.0000 C   0  0  0  0  0  0  0  2  0  0  0  0
    4.6527   -3.3000    0.0000 O   0  0  0  0  0  0  0  2  0  0  0  0
    3.9383   -2.0625    0.0000 C   0  0  0  0  0  0  0  2  0  0  0  0
    4.6527   -1.6500    0.0000 C   0  0  0  0  0  0  0  2  0  0  0  0
    5.3672   -2.0625    0.0000 O   0  0  0  0  0  0  0  2  0  0  0  0
    4.6527   -0.8250    0.0000 O   0  0  0  0  0  0  0  2  0  0  0  0
    5.3672   -0.4125    0.0000 C   0  0  0  0  0  0  0  2  0  0  0  0
    6.0817   -0.8250    0.0000 C   0  0  0  0  0  0  0  2  0  0  0  0
    5.3672    0.4125    0.0000 C   0  0  0  0  0  0  0  2  0  0  0  0
    6.0817    0.8250    0.0000 C   0  0  0  0  0  0  0  2  0  0  0  0
    4.6527    0.8250    0.0000 C   0  0  0  0  0  0  0  2  0  0  0  0
    3.9383    0.4125    0.0000 O   0  0  0  0  0  0  0  2  0  0  0  0
    4.6527    1.6500    0.0000 C   0  0  0  0  0  0  0  2  0  0  0  0
    5.3672    2.0625    0.0000 C   0  0  0  0  0  0  0  2  0  0  0  0
    3.9383    2.0625    0.0000 C   0  0  0  0  0  0  0  2  0  0  0  0
    3.9383    2.8875    0.0000 C   0  0  0  0  0  0  0  2  0  0  0  0
    3.2238    3.3000    0.0000 C   0  0  0  0  0  0  0  2  0  0  0  0
    3.2238    4.1250    0.0000 C   0  0  0  0  0  0  0  2  0  0  0  0
    2.5093    4.5375    0.0000 C   0  0  0  0  0  0  0  2  0  0  0  0
    1.7949    4.1250    0.0000 C   0  0  0  0  0  0  0  2  0  0  0  0
    1.0804    4.5375    0.0000 C   0  0  0  0  0  0  0  2  0  0  0  0
    0.3659    4.1250    0.0000 C   0  0  0  0  0  0  0  2  0  0  0  0
   -0.3486    4.5375    0.0000 C   0  0  0  0  0  0  0  2  0  0  0  0
   -1.0630    4.1250    0.0000 C   0  0  0  0  0  0  0  2  0  0  0  0
   -1.0630    3.3000    0.0000 C   0  0  0  0  0  0  0  2  0  0  0  0
   -1.7775    2.8875    0.0000 C   0  0  0  0  0  0  0  2  0  0  0  0
   -1.7775    2.0625    0.0000 C   0  0  0  0  0  0  0  2  0  0  0  0
   -2.4920    1.6500    0.0000 C   0  0  0  0  0  0  0  2  0  0  0  0
  1  2  1  0        0
  2  3  1  0        0
  2  4  1  0        0
  4  5  1  0        0
  4  6  1  0        0
  6  7  1  0        0
  6  8  1  0        0
  8  9  1  0        0
  8 10  1  0        0
  1 10  1  0        0
 10 11  1  0        0
 11 12  1  0        0
 12 13  1  0        0
 13 14  1  0        0
 14 15  1  0        0
 15 16  1  0        0
 16 17  2  0        0
 16 18  1  0        0
 15 19  1  0        0
 19 20  1  0        0
 19 21  1  0        0
 21 22  1  0        0
 22 23  1  0        0
 14 23  1  0        0
 22 24  1  0        0
 22 25  1  0        0
 25 26  1  0        0
 26 27  1  0        0
 26 28  1  0        0
 28 29  1  0        0
 28 30  1  0        0
 30 31  1  0        0
 31 32  1  0        0
 32 33  1  0        0
 32 34  1  0        0
 34 35  1  0        0
 35 36  1  0        0
 35 37  1  0        0
 37 38  1  0        0
 38 39  1  0        0
 38 40  1  0        0
 40 41  1  0        0
 41 42  2  0        0
 41 43  1  0        0
 43 44  1  0        0
 44 45  1  0        0
 44 46  1  0        0
 46 47  1  0        0
 46 48  1  0        0
 48 49  1  0        0
 48 50  1  0        0
 50 51  1  0        0
 50 52  1  0        0
 52 53  2  0        0
 53 54  1  0        0
 54 55  2  0        0
 55 56  1  0        0
 56 57  1  0        0
 57 58  1  0        0
 58 59  2  0        0
 59 60  1  0        0
 60 61  2  0        0
 61 62  1  0        0
 62 63  2  0        0
 63 64  1  0        0
 64 65  2  0        0
 12 65  1  0        0
M  END
$$$$

CDXL12

 25 28  0  0  0  0  0  0  0  0999 V2000
   -2.0625    0.7145    0.0000 C   0  0  0  0  0  0  0  2  0  0  0  0
   -1.2375    0.7145    0.0000 C   0  0  0  0  0  0  0  2  0  0  0  0
   -0.8250   -0.0000    0.0000 N   0  0  0  0  0  0  0  2  0  0  0  0
   -1.2375   -0.7145    0.0000 C   0  0  0  0  0  0  0  2  0  0  0  0
   -2.0625   -0.7145    0.0000 C   0  0  0  0  0  0  0  2  0  0  0  0
   -2.4750   -0.0000    0.0000 O   0  0  0  0  0  0  0  2  0  0  0  0
    0.0000   -0.0000    0.0000 C   0  0  0  0  0  0  0  2  0  0  0  0
    0.0000    0.8250    0.0000 C   0  0  0  0  0  0  0  2  0  0  0  0
   -0.7145    1.2375    0.0000 C   0  0  0  0  0  0  0  2  0  0  0  0
   -0.7145    2.0625    0.0000 C   0  0  0  0  0  0  0  2  0  0  0  0
    0.0000    2.4750    0.0000 C   0  0  0  0  0  0  0  2  0  0  0  0
    0.7145    2.0625    0.0000 C   0  0  0  0  0  0  0  2  0  0  0  0
    0.7145    1.2375    0.0000 C   0  0  0  0  0  0  0  2  0  0  0  0
    0.8250   -0.0000    0.0000 C   0  0  0  0  0  0  0  2  0  0  0  0
    1.2375    0.7145    0.0000 C   0  0  0  0  0  0  0  2  0  0  0  0
    2.0625    0.7145    0.0000 C   0  0  0  0  0  0  0  2  0  0  0  0
    2.4750   -0.0000    0.0000 C   0  0  0  0  0  0  0  2  0  0  0  0
    2.0625   -0.7145    0.0000 C   0  0  0  0  0  0  0  2  0  0  0  0
    1.2375   -0.7145    0.0000 C   0  0  0  0  0  0  0  2  0  0  0  0
    0.0000   -0.8250    0.0000 C   0  0  0  0  0  0  0  2  0  0  0  0
    0.7145   -1.2375    0.0000 C   0  0  0  0  0  0  0  2  0  0  0  0
    0.7145   -2.0625    0.0000 C   0  0  0  0  0  0  0  2  0  0  0  0
    0.0000   -2.4750    0.0000 C   0  0  0  0  0  0  0  2  0  0  0  0
   -0.7145   -2.0625    0.0000 C   0  0  0  0  0  0  0  2  0  0  0  0
   -0.7145   -1.2375    0.0000 C   0  0  0  0  0  0  0  2  0  0  0  0
  1  2  1  0        0
  2  3  1  0        0
  3  4  1  0        0
  4  5  1  0        0
  5  6  1  0        0
  1  6  1  0        0
  3  7  1  0        0
  7  8  1  0        0
  8  9  4  0        0
  9 10  4  0        0
 10 11  4  0        0
 11 12  4  0        0
 12 13  4  0        0
  8 13  4  0        0
  7 14  1  0        0
 14 15  4  0        0
 15 16  4  0        0
 16 17  4  0        0
 17 18  4  0        0
 18 19  4  0        0
 14 19  4  0        0
  7 20  1  0        0
 20 21  4  0        0
 21 22  4  0        0
 22 23  4  0        0
 23 24  4  0        0
 24 25  4  0        0
 20 25  4  0        0
M  END
$$$$

CDXL12

 18 19  0  0  0  0  0  0  0  0999 V2000
   -3.5724   -1.8562    0.0000 O   0  0  0  0  0  0  0  2  0  0  0  0
   -2.8579   -1.4437    0.0000 C   0  0  0  0  0  0  0  2  0  0  0  0
   -2.8579   -0.6187    0.0000 C   0  0  0  0  0  0  0  2  0  0  0  0
   -2.1434   -0.2062    0.0000 C   0  0  0  0  0  0  0  2  0  0  0  0
   -1.4289   -0.6187    0.0000 C   0  0  0  0  0  0  0  2  0  0  0  0
   -0.7145   -0.2062    0.0000 N   0  0  0  0  0  0  0  2  0  0  0  0
    0.0000   -0.6187    0.0000 N   0  0  0  0  0  0  0  2  0  0  0  0
    0.7145   -0.2062    0.0000 C   0  0  0  0  0  0  0  2  0  0  0  0
    0.7145    0.6188    0.0000 C   0  0  0  0  0  0  0  2  0  0  0  0
    1.4289    1.0313    0.0000 C   0  0  0  0  0  0  0  2  0  0  0  0
    2.1434    0.6187    0.0000 C   0  0  0  0  0  0  0  2  0  0  0  0
    2.1434   -0.2062    0.0000 C   0  0  0  0  0  0  0  2  0  0  0  0
    1.4289   -0.6187    0.0000 C   0  0  0  0  0  0  0  2  0  0  0  0
    2.8579    1.0312    0.0000 N   0  0  0  0  0  0  0  2  0  0  0  0
    2.8579    1.8562    0.0000 O   0  0  0  0  0  0  0  2  0  0  0  0
    3.5724    0.6187    0.0000 O   0  0  0  0  0  0  0  2  0  0  0  0
   -1.4289   -1.4437    0.0000 C   0  0  0  0  0  0  0  2  0  0  0  0
   -2.1434   -1.8562    0.0000 C   0  0  0  0  0  0  0  2  0  0  0  0
  1  2  1  0        0
  2  3  4  0        0
  3  4  4  0        0
  4  5  4  0        0
  5  6  1  0        0
  6  7  2  0        0
  7  8  1  0        0
  8  9  4  0        0
  9 10  4  0        0
 10 11  4  0        0
 11 12  4  0        0
 12 13  4  0        0
  8 13  4  0        0
 11 14  1  0        0
 14 15  2  0        0
 14 16  2  0        0
  5 17  4  0        0
 17 18  4  0        0
  2 18  4  0        0
M  END
$$$$

CDXL12

 10 11  0  0  0  0  0  0  0  0999 V2000
    0.0797    0.7260    0.0000 C   0  0  0  0  0  0  0  2  0  0  0  0
    0.8643    0.9810    0.0000 S   0  0  0  0  0  0  0  2  0  0  0  0
    1.3492    0.3135    0.0000 C   0  0  0  0  0  0  0  2  0  0  0  0
    0.8643   -0.3539    0.0000 C   0  0  0  0  0  0  0  2  0  0  0  0
    1.1193   -1.1385    0.0000 C   0  0  0  0  0  0  0  2  0  0  0  0
    0.0797   -0.0990    0.0000 C   0  0  0  0  0  0  0  2  0  0  0  0
   -0.6348   -0.5115    0.0000 C   0  0  0  0  0  0  0  2  0  0  0  0
   -1.3492   -0.0990    0.0000 C   0  0  0  0  0  0  0  2  0  0  0  0
   -1.3492    0.7260    0.0000 C   0  0  0  0  0  0  0  2  0  0  0  0
   -0.6348    1.1385    0.0000 C   0  0  0  0  0  0  0  2  0  0  0  0
  1  2  4  0        0
  2  3  4  0        0
  3  4  4  0        0
  4  5  1  0        0
  4  6  4  0        0
  1  6  4  0        0
  6  7  4  0        0
  7  8  4  0        0
  8  9  4  0        0
  9 10  4  0        0
  1 10  4  0        0
M  END
$$$$

CDXL12

 10 10  0  0  0  0  0  0  0  0999 V2000
   -1.7862   -1.2375    0.0000 C   0  0  0  0  0  0  0  2  0  0  0  0
   -1.0717   -0.8250    0.0000 C   0  0  0  0  0  0  0  2  0  0  0  0
   -0.3572   -1.2375    0.0000 C   0  0  0  0  0  0  0  2  0  0  0  0
    0.3572   -0.8250    0.0000 N   0  0  0  0  0  0  0  2  0  0  0  0
    0.3572    0.0000    0.0000 C   0  0  0  0  0  0  0  2  0  0  0  0
   -0.3572    0.4125    0.0000 C   0  0  0  0  0  0  0  2  0  0  0  0
   -0.3572    1.2375    0.0000 C   0  0  0  0  0  0  0  2  0  0  0  0
   -1.0717   -0.0000    0.0000 O   0  0  0  0  0  0  0  2  0  0  0  0
    1.0717   -1.2375    0.0000 N   0  0  0  0  0  0  0  2  0  0  0  0
    1.7862   -0.8250    0.0000 O   0  0  0  0  0  0  0  2  0  0  0  0
  1  2  1  0        0
  2  3  1  0        0
  3  4  1  0        0
  4  5  1  0        0
  5  6  1  0        0
  6  7  1  0        0
  6  8  1  0        0
  2  8  1  0        0
  4  9  1  0        0
  9 10  2  0        0
M  END
$$$$

CDXL12

 14 14  0  0  0  0  0  0  0  0999 V2000
   -1.4289    1.2375    0.0000 O   0  0  0  0  0  0  0  2  0  0  0  0
   -1.4289    0.4125    0.0000 C   0  0  0  0  0  0  0  2  0  0  0  0
   -2.1434   -0.0000    0.0000 O   0  0  0  0  0  0  0  2  0  0  0  0
   -2.8579    0.4125    0.0000 C   0  0  0  0  0  0  0  2  0  0  0  0
   -0.7145   -0.0000    0.0000 C   0  0  0  0  0  0  0  2  0  0  0  0
   -0.7145   -0.8250    0.0000 C   0  0  0  0  0  0  0  2  0  0  0  0
    0.0000   -1.2375    0.0000 C   0  0  0  0  0  0  0  2  0  0  0  0
    0.7145   -0.8250    0.0000 C   0  0  0  0  0  0  0  2  0  0  0  0
    0.7145   -0.0000    0.0000 C   0  0  0  0  0  0  0  2  0  0  0  0
    1.4289    0.4125    0.0000 C   0  0  0  0  0  0  0  2  0  0  0  0
    1.4289    1.2375    0.0000 O   0  0  0  0  0  0  0  2  0  0  0  0
    2.1434   -0.0000    0.0000 O   0  0  0  0  0  0  0  2  0  0  0  0
    2.8579    0.4125    0.0000 C   0  0  0  0  0  0  0  2  0  0  0  0
    0.0000    0.4125    0.0000 C   0  0  0  0  0  0  0  2  0  0  0  0
  1  2  2  0        0
  2  3  1  0        0
  3  4  1  0        0
  2  5  1  0        0
  5  6  4  0        0
  6  7  4  0        0
  7  8  4  0        0
  8  9  4  0        0
  9 10  1  0        0
 10 11  2  0        0
 10 12  1  0        0
 12 13  1  0        0
  9 14  4  0        0
  5 14  4  0        0
M  END
$$$$

CDXL12

  6  7  0  0  0  0  0  0  0  0999 V2000
   -0.7697    0.9207    0.0000 O   0  0  0  0  0  0  0  2  0  0  0  0
   -0.3572    0.2062    0.0000 C   0  0  0  0  0  0  0  2  0  0  0  0
    0.3572   -0.2062    0.0000 C   0  0  0  0  0  0  0  2  0  0  0  0
    1.1822   -0.2062    0.0000 O   0  0  0  0  0  0  0  2  0  0  0  0
    0.7697   -0.9207    0.0000 C   0  0  0  0  0  0  0  2  0  0  0  0
   -1.1822    0.2062    0.0000 C   0  0  0  0  0  0  0  2  0  0  0  0
  1  2  1  0        0
  2  3  1  0        0
  3  4  1  0        0
  4  5  1  0        0
  3  5  1  0        0
  2  6  1  0        0
  1  6  1  0        0
M  END
$$$$

CDXL12

 10 11  0  0  0  0  0  0  0  0999 V2000
   -1.7065   -0.8250    0.0000 O   0  0  0  0  0  0  0  2  0  0  0  0
   -0.9920   -0.4125    0.0000 C   0  0  0  0  0  0  0  2  0  0  0  0
   -0.9920    0.4125    0.0000 C   0  0  0  0  0  0  0  2  0  0  0  0
   -0.2775    0.8250    0.0000 C   0  0  0  0  0  0  0  2  0  0  0  0
    0.4369    0.4125    0.0000 C   0  0  0  0  0  0  0  2  0  0  0  0
    0.4369   -0.4125    0.0000 C   0  0  0  0  0  0  0  2  0  0  0  0
    1.2216   -0.6674    0.0000 C   0  0  0  0  0  0  0  2  0  0  0  0
    1.7065   -0.0000    0.0000 C   0  0  0  0  0  0  0  2  0  0  0  0
    1.2216    0.6674    0.0000 C   0  0  0  0  0  0  0  2  0  0  0  0
   -0.2775   -0.8250    0.0000 C   0  0  0  0  0  0  0  2  0  0  0  0
  1  2  1  0        0
  2  3  4  0        0
  3  4  4  0        0
  4  5  4  0        0
  5  6  4  0        0
  6  7  1  0        0
  7  8  1  0        0
  8  9  1  0        0
  5  9  1  0        0
  6 10  4  0        0
  2 10  4  0        0
M  END
$$$$

CDXL12

 18 17  0  0  0  0  0  0  0  0999 V2000
    3.5724   -0.3020    0.0000 C   0  0  0  0  0  0  0  2  0  0  0  0
    2.8579   -0.7145    0.0000 C   0  0  0  0  0  0  0  2  0  0  0  0
    2.1434   -0.3020    0.0000 C   0  0  0  0  0  0  0  2  0  0  0  0
    1.4289   -0.7145    0.0000 O   0  0  0  0  0  0  0  2  0  0  0  0
    0.7145   -0.3020    0.0000 C   0  0  0  0  0  0  0  2  0  0  0  0
   -0.0000   -0.7145    0.0000 C   0  0  0  0  0  0  0  2  0  0  0  0
   -0.7145   -1.1270    0.0000 C   0  0  0  0  0  0  0  2  0  0  0  0
   -1.4289   -0.7145    0.0000 O   0  0  0  0  0  0  0  2  0  0  0  0
   -2.1434   -1.1270    0.0000 C   0  0  0  0  0  0  0  2  0  0  0  0
   -2.8579   -0.7145    0.0000 C   0  0  0  0  0  0  0  2  0  0  0  0
   -3.5724   -1.1270    0.0000 C   0  0  0  0  0  0  0  2  0  0  0  0
   -0.4125    0.0000    0.0000 C   0  0  0  0  0  0  0  2  0  0  0  0
   -1.2375    0.0000    0.0000 O   0  0  0  0  0  0  0  2  0  0  0  0
   -1.6500    0.7145    0.0000 C   0  0  0  0  0  0  0  2  0  0  0  0
   -2.4750    0.7145    0.0000 C   0  0  0  0  0  0  0  2  0  0  0  0
   -2.8875    1.4289    0.0000 C   0  0  0  0  0  0  0  2  0  0  0  0
    0.4125   -1.4289    0.0000 C   0  0  0  0  0  0  0  2  0  0  0  0
    1.2375   -1.4289    0.0000 O   0  0  0  0  0  0  0  2  0  0  0  0
  1  2  2  0        0
  2  3  1  0        0
  3  4  1  0        0
  4  5  1  0        0
  5  6  1  0        0
  6  7  1  0        0
  7  8  1  0        0
  8  9  1  0        0
  9 10  1  0        0
 10 11  2  0        0
  6 12  1  0        0
 12 13  1  0        0
 13 14  1  0        0
 14 15  1  0        0
 15 16  2  0        0
  6 17  1  0        0
 17 18  1  0        0
M  END
$$$$

CDXL12

 13 14  0  0  0  0  0  0  0  0999 V2000
    0.3572    1.4438    0.0000 O   0  0  0  0  0  0  0  2  0  0  0  0
   -0.3572    1.0313    0.0000 C   0  0  0  0  0  0  0  2  0  0  0  0
   -0.3572    0.2062    0.0000 C   0  0  0  0  0  0  0  2  0  0  0  0
    0.3572   -0.2062    0.0000 C   0  0  0  0  0  0  0  2  0  0  0  0
    1.0717    0.2062    0.0000 C   0  0  0  0  0  0  0  2  0  0  0  0
    1.7862   -0.2062    0.0000 C   0  0  0  0  0  0  0  2  0  0  0  0
    1.7862   -1.0313    0.0000 C   0  0  0  0  0  0  0  2  0  0  0  0
    1.0717   -1.4438    0.0000 C   0  0  0  0  0  0  0  2  0  0  0  0
    0.3572   -1.0313    0.0000 C   0  0  0  0  0  0  0  2  0  0  0  0
   -1.0717   -0.2062    0.0000 C   0  0  0  0  0  0  0  2  0  0  0  0
   -1.7862    0.2062    0.0000 C   0  0  0  0  0  0  0  2  0  0  0  0
   -1.7862    1.0313    0.0000 C   0  0  0  0  0  0  0  2  0  0  0  0
   -1.0717    1.4438    0.0000 C   0  0  0  0  0  0  0  2  0  0  0  0
  1  2  2  0        0
  2  3  1  0        0
  3  4  1  0        0
  4  5  2  0        0
  5  6  1  0        0
  6  7  1  0        0
  7  8  1  0        0
  8  9  1  0        0
  4  9  1  0        0
  3 10  1  0        0
 10 11  1  0        0
 11 12  1  0        0
 12 13  1  0        0
  2 13  1  0        0
M  END
$$$$

CDXL12

 12 11  0  0  0  0  0  0  0  0999 V2000
   -0.3572    1.2375    0.0000 O   0  0  0  0  0  0  0  2  0  0  0  0
   -0.3572    0.4125    0.0000 C   0  0  0  0  0  0  0  2  0  0  0  0
    0.3572   -0.0000    0.0000 C   0  0  0  0  0  0  0  2  0  0  0  0
    1.0717    0.4125    0.0000 C   0  0  0  0  0  0  0  2  0  0  0  0
    1.7862   -0.0000    0.0000 C   0  0  0  0  0  0  0  2  0  0  0  0
    2.5006    0.4125    0.0000 O   0  0  0  0  0  0  0  2  0  0  0  0
    1.7862   -0.8250    0.0000 O   0  0  0  0  0  0  0  2  0  0  0  0
   -1.0717   -0.0000    0.0000 N   0  0  0  0  0  0  0  2  0  0  0  0
   -1.7862    0.4125    0.0000 C   0  0  0  0  0  0  0  2  0  0  0  0
   -2.5006   -0.0000    0.0000 C   0  0  0  0  0  0  0  2  0  0  0  0
   -1.0717   -0.8250    0.0000 C   0  0  0  0  0  0  0  2  0  0  0  0
   -1.7862   -1.2375    0.0000 C   0  0  0  0  0  0  0  2  0  0  0  0
  1  2  2  0        0
  2  3  1  0        0
  3  4  1  0        0
  4  5  1  0        0
  5  6  1  0        0
  5  7  2  0        0
  2  8  1  0        0
  8  9  1  0        0
  9 10  1  0        0
  8 11  1  0        0
 11 12  1  0        0
M  END
$$$$

CDXL12

 16 17  0  0  0  0  0  0  0  0999 V2000
   -0.9920    1.8563    0.0000 O   0  0  0  0  0  0  0  2  0  0  0  0
   -0.9920    1.0313    0.0000 C   0  0  0  0  0  0  0  2  0  0  0  0
   -0.2775    0.6188    0.0000 O   0  0  0  0  0  0  0  2  0  0  0  0
   -0.2775   -0.2062    0.0000 C   0  0  0  0  0  0  0  2  0  0  0  0
    0.4369   -0.6188    0.0000 C   0  0  0  0  0  0  0  2  0  0  0  0
    1.2216   -0.3638    0.0000 O   0  0  0  0  0  0  0  2  0  0  0  0
    1.7065   -1.0313    0.0000 C   0  0  0  0  0  0  0  2  0  0  0  0
    1.2216   -1.6987    0.0000 C   0  0  0  0  0  0  0  2  0  0  0  0
    0.4369   -1.4438    0.0000 C   0  0  0  0  0  0  0  2  0  0  0  0
   -0.2775   -1.8563    0.0000 C   0  0  0  0  0  0  0  2  0  0  0  0
   -0.9920   -1.4437    0.0000 C   0  0  0  0  0  0  0  2  0  0  0  0
   -0.9920   -0.6188    0.0000 C   0  0  0  0  0  0  0  2  0  0  0  0
    2.4209   -0.6188    0.0000 C   0  0  0  0  0  0  0  2  0  0  0  0
    2.4209   -1.4438    0.0000 C   0  0  0  0  0  0  0  2  0  0  0  0
   -1.7065    0.6188    0.0000 N   0  0  0  0  0  0  0  2  0  0  0  0
   -2.4209    1.0313    0.0000 C   0  0  0  0  0  0  0  2  0  0  0  0
  1  2  2  0        0
  2  3  1  0        0
  3  4  1  0        0
  4  5  4  0        0
  5  6  1  0        0
  6  7  1  0        0
  7  8  1  0        0
  8  9  1  0        0
  5  9  4  0        0
  9 10  4  0        0
 10 11  4  0        0
 11 12  4  0        0
  4 12  4  0        0
  7 13  1  0        0
  7 14  1  0        0
  2 15  1  0        0
 15 16  1  0        0
M  END
$$$$

CDXL12

  9  9  0  0  0  0  0  0  0  0999 V2000
    1.4289    0.8250    0.0000 O   0  0  0  0  0  0  0  2  0  0  0  0
    0.7145    0.4125    0.0000 C   0  0  0  0  0  0  0  2  0  0  0  0
    0.7145   -0.4125    0.0000 C   0  0  0  0  0  0  0  2  0  0  0  0
    0.0000   -0.8250    0.0000 C   0  0  0  0  0  0  0  2  0  0  0  0
   -0.7145   -0.4125    0.0000 C   0  0  0  0  0  0  0  2  0  0  0  0
   -0.7145    0.4125    0.0000 C   0  0  0  0  0  0  0  2  0  0  0  0
    0.0000    0.8250    0.0000 C   0  0  0  0  0  0  0  2  0  0  0  0
   -1.4289   -0.8250    0.0000 Cl  0  0  0  0  0  0  0  2  0  0  0  0
    1.4289   -0.8250    0.0000 C   0  0  0  0  0  0  0  2  0  0  0  0
  1  2  1  0        0
  2  3  4  0        0
  3  4  4  0        0
  4  5  4  0        0
  5  6  4  0        0
  6  7  4  0        0
  2  7  4  0        0
  5  8  1  0        0
  3  9  1  0        0
M  END
$$$$

CDXL12

 10 10  0  0  0  0  0  0  0  0999 V2000
    0.7145    1.2375    0.0000 O   0  0  0  0  0  0  0  2  0  0  0  0
    0.7145    0.4125    0.0000 P   0  0  0  0  0  0  0  2  0  0  0  0
    0.7145   -0.4125    0.0000 O   0  0  0  0  0  0  0  2  0  0  0  0
    1.4289   -0.0000    0.0000 O   0  0  0  0  0  0  0  2  0  0  0  0
    0.0000   -0.0000    0.0000 C   0  0  0  0  0  0  0  2  0  0  0  0
    0.0000   -0.8250    0.0000 C   0  0  0  0  0  0  0  2  0  0  0  0
   -0.7145   -1.2375    0.0000 C   0  0  0  0  0  0  0  2  0  0  0  0
   -1.4289   -0.8250    0.0000 C   0  0  0  0  0  0  0  2  0  0  0  0
   -1.4289   -0.0000    0.0000 C   0  0  0  0  0  0  0  2  0  0  0  0
   -0.7145    0.4125    0.0000 C   0  0  0  0  0  0  0  2  0  0  0  0
  1  2  2  0        0
  2  3  1  0        0
  2  4  1  0        0
  2  5  1  0        0
  5  6  4  0        0
  6  7  4  0        0
  7  8  4  0        0
  8  9  4  0        0
  9 10  4  0        0
  5 10  4  0        0
M  END
$$$$

CDXL12

 11 10  0  0  0  0  0  0  0  0999 V2000
   -1.7862   -1.0312    0.0000 C   0  0  0  0  0  0  0  2  0  0  0  0
   -1.7862   -0.2062    0.0000 N   0  0  0  0  0  0  0  2  0  0  0  0
   -2.5006    0.2062    0.0000 C   0  0  0  0  0  0  0  2  0  0  0  0
   -1.0717    0.2062    0.0000 N   0  0  0  0  0  0  0  2  0  0  0  0
   -0.3572   -0.2062    0.0000 C   0  0  0  0  0  0  0  2  0  0  0  0
   -0.3572   -1.0312    0.0000 O   0  0  0  0  0  0  0  2  0  0  0  0
    0.3572    0.2063    0.0000 C   0  0  0  0  0  0  0  2  0  0  0  0
    1.0717   -0.2062    0.0000 C   0  0  0  0  0  0  0  2  0  0  0  0
    1.7862    0.2062    0.0000 C   0  0  0  0  0  0  0  2  0  0  0  0
    2.5006   -0.2062    0.0000 O   0  0  0  0  0  0  0  2  0  0  0  0
    1.7862    1.0312    0.0000 O   0  0  0  0  0  0  0  2  0  0  0  0
  1  2  1  0        0
  2  3  1  0        0
  2  4  1  0        0
  4  5  1  0        0
  5  6  2  0        0
  5  7  1  0        0
  7  8  1  0        0
  8  9  1  0        0
  9 10  1  0        0
  9 11  2  0        0
M  END
$$$$

CDXL12

  9  8  0  0  0  0  0  0  0  0999 V2000
   -2.1434   -0.6187    0.0000 C   0  0  0  0  0  0  0  2  0  0  0  0
   -1.4289   -0.2062    0.0000 C   0  0  0  0  0  0  0  2  0  0  0  0
   -1.4289    0.6187    0.0000 O   0  0  0  0  0  0  0  2  0  0  0  0
   -0.7145   -0.6187    0.0000 O   0  0  0  0  0  0  0  2  0  0  0  0
    0.0000   -0.2062    0.0000 Hg  0  0  0  0  0  0  0  2  0  0  0  0
    0.7145   -0.6187    0.0000 O   0  0  0  0  0  0  0  2  0  0  0  0
    1.4289   -0.2062    0.0000 C   0  0  0  0  0  0  0  2  0  0  0  0
    1.4289    0.6187    0.0000 O   0  0  0  0  0  0  0  2  0  0  0  0
    2.1434   -0.6187    0.0000 C   0  0  0  0  0  0  0  2  0  0  0  0
  1  2  1  0        0
  2  3  2  0        0
  2  4  1  0        0
  4  5  1  0        0
  5  6  1  0        0
  6  7  1  0        0
  7  8  2  0        0
  7  9  1  0        0
M  END
$$$$

CDXL12

 15 15  0  0  0  0  0  0  0  0999 V2000
    2.8579   -1.4438    0.0000 C   0  0  0  0  0  0  0  2  0  0  0  0
    2.1434   -1.0313    0.0000 C   0  0  0  0  0  0  0  2  0  0  0  0
    1.4289   -1.4438    0.0000 N   0  0  0  0  0  0  0  2  0  0  0  0
    0.7145   -1.0313    0.0000 C   0  0  0  0  0  0  0  2  0  0  0  0
    0.0000   -1.4438    0.0000 N   0  0  0  0  0  0  0  2  0  0  0  0
   -0.7145   -1.0313    0.0000 C   0  0  0  0  0  0  0  2  0  0  0  0
   -1.4289   -1.4438    0.0000 N   0  0  0  0  0  0  0  2  0  0  0  0
   -2.1434   -1.0313    0.0000 C   0  0  0  0  0  0  0  2  0  0  0  0
   -2.1434   -0.2062    0.0000 C   0  0  0  0  0  0  0  2  0  0  0  0
   -2.8579   -1.4438    0.0000 C   0  0  0  0  0  0  0  2  0  0  0  0
   -0.7145   -0.2062    0.0000 N   0  0  0  0  0  0  0  2  0  0  0  0
    0.0000    0.2062    0.0000 C   0  0  0  0  0  0  0  2  0  0  0  0
    0.0000    1.0313    0.0000 O   0  0  0  0  0  0  0  2  0  0  0  0
   -0.7145    1.4438    0.0000 C   0  0  0  0  0  0  0  2  0  0  0  0
    0.7145   -0.2062    0.0000 N   0  0  0  0  0  0  0  2  0  0  0  0
  1  2  1  0        0
  2  3  1  0        0
  3  4  1  0        0
  4  5  4  0        0
  5  6  4  0        0
  6  7  1  0        0
  7  8  1  0        0
  8  9  1  0        0
  8 10  1  0        0
  6 11  4  0        0
 11 12  4  0        0
 12 13  1  0        0
 13 14  1  0        0
 12 15  4  0        0
  4 15  4  0        0
M  END
$$$$

CDXL12

 16 16  0  0  0  0  0  0  0  0999 V2000
    0.0000    1.0313    0.0000 O   0  0  0  0  0  0  0  2  0  0  0  0
    0.0000    0.2062    0.0000 C   0  0  0  0  0  0  0  2  0  0  0  0
   -0.7145   -0.2062    0.0000 N   0  0  0  0  0  0  0  2  0  0  0  0
   -0.7145   -1.0313    0.0000 C   0  0  0  0  0  0  0  2  0  0  0  0
    0.0000   -1.4438    0.0000 N   0  0  0  0  0  0  0  2  0  0  0  0
    0.7145   -1.0313    0.0000 C   0  0  0  0  0  0  0  2  0  0  0  0
    1.4289   -1.4438    0.0000 N   0  0  0  0  0  0  0  2  0  0  0  0
    2.1434   -1.0313    0.0000 C   0  0  0  0  0  0  0  2  0  0  0  0
    2.1434   -0.2062    0.0000 C   0  0  0  0  0  0  0  2  0  0  0  0
    2.8579   -1.4438    0.0000 C   0  0  0  0  0  0  0  2  0  0  0  0
    0.7145   -0.2063    0.0000 N   0  0  0  0  0  0  0  2  0  0  0  0
   -1.4289   -1.4438    0.0000 N   0  0  0  0  0  0  0  2  0  0  0  0
   -2.1434   -1.0313    0.0000 C   0  0  0  0  0  0  0  2  0  0  0  0
   -2.1434   -0.2062    0.0000 C   0  0  0  0  0  0  0  2  0  0  0  0
   -2.8579   -1.4438    0.0000 C   0  0  0  0  0  0  0  2  0  0  0  0
   -0.7145    1.4438    0.0000 C   0  0  0  0  0  0  0  2  0  0  0  0
  1  2  1  0        0
  2  3  4  0        0
  3  4  4  0        0
  4  5  4  0        0
  5  6  4  0        0
  6  7  1  0        0
  7  8  1  0        0
  8  9  1  0        0
  8 10  1  0        0
  6 11  4  0        0
  2 11  4  0        0
  4 12  1  0        0
 12 13  1  0        0
 13 14  1  0        0
 13 15  1  0        0
  1 16  1  0        0
M  END
$$$$

CDXL12

  7  6  0  0  0  0  0  0  0  0999 V2000
    0.3572    0.6187    0.0000 O   0  0  0  0  0  0  0  2  0  0  0  0
    0.3572   -0.2062    0.0000 C   0  0  0  0  0  0  0  2  0  0  0  0
    1.0717   -0.6187    0.0000 C   0  0  0  0  0  0  0  2  0  0  0  0
    1.7862   -0.2062    0.0000 C   0  0  0  0  0  0  0  2  0  0  0  0
   -0.3572   -0.6187    0.0000 C   0  0  0  0  0  0  0  2  0  0  0  0
   -1.0717   -0.2062    0.0000 C   0  0  0  0  0  0  0  2  0  0  0  0
   -1.7862   -0.6187    0.0000 C   0  0  0  0  0  0  0  2  0  0  0  0
  1  2  2  0        0
  2  3  1  0        0
  3  4  2  0        0
  2  5  1  0        0
  5  6  1  0        0
  6  7  1  0        0
M  END
$$$$

CDXL12

  6  5  0  0  0  0  0  0  0  0999 V2000
   -0.3572   -0.6188    0.0000 O   0  0  0  0  0  0  0  2  0  0  0  0
    0.3572   -0.2062    0.0000 C   0  0  0  0  0  0  0  2  0  0  0  0
    0.3572    0.6188    0.0000 C   0  0  0  0  0  0  0  2  0  0  0  0
    1.0717    0.2062    0.0000 C   0  0  0  0  0  0  0  2  0  0  0  0
    1.0717   -0.6188    0.0000 C   0  0  0  0  0  0  0  2  0  0  0  0
   -1.0717   -0.2063    0.0000 C   0  0  0  0  0  0  0  2  0  0  0  0
  1  2  1  0        0
  2  3  1  0        0
  2  4  1  0        0
  2  5  1  0        0
  1  6  1  0        0
M  END
$$$$

CDXL12

 16 15  0  0  0  0  0  0  0  0999 V2000
    3.9296    0.8250    0.0000 O   0  0  0  0  0  0  0  2  0  0  0  0
    3.9296    0.0000    0.0000 N   0  0  0  0  0  0  0  2  0  0  0  0
    3.2151   -0.4125    0.0000 C   0  0  0  0  0  0  0  2  0  0  0  0
    2.5006   -0.0000    0.0000 C   0  0  0  0  0  0  0  2  0  0  0  0
    1.7862   -0.4125    0.0000 C   0  0  0  0  0  0  0  2  0  0  0  0
    1.0717   -0.0000    0.0000 C   0  0  0  0  0  0  0  2  0  0  0  0
    0.3572   -0.4125    0.0000 C   0  0  0  0  0  0  0  2  0  0  0  0
   -0.3572   -0.0000    0.0000 C   0  0  0  0  0  0  0  2  0  0  0  0
   -1.0717   -0.4125    0.0000 C   0  0  0  0  0  0  0  2  0  0  0  0
   -1.7862   -0.0000    0.0000 C   0  0  0  0  0  0  0  2  0  0  0  0
   -2.5006   -0.4125    0.0000 C   0  0  0  0  0  0  0  2  0  0  0  0
   -3.2151   -0.0000    0.0000 C   0  0  0  0  0  0  0  2  0  0  0  0
   -3.9296   -0.4125    0.0000 C   0  0  0  0  0  0  0  2  0  0  0  0
   -4.6441   -0.0000    0.0000 C   0  0  0  0  0  0  0  2  0  0  0  0
    3.9296   -0.8250    0.0000 C   0  0  0  0  0  0  0  2  0  0  0  0
    4.6441   -0.4125    0.0000 C   0  0  0  0  0  0  0  2  0  0  0  0
  1  2  2  0        0
  2  3  1  0        0
  3  4  1  0        0
  4  5  1  0        0
  5  6  1  0        0
  6  7  1  0        0
  7  8  1  0        0
  8  9  1  0        0
  9 10  1  0        0
 10 11  1  0        0
 11 12  1  0        0
 12 13  1  0        0
 13 14  1  0        0
  2 15  1  0        0
  2 16  1  0        0
M  END
$$$$

CDXL12

 13 12  0  0  0  0  0  0  0  0999 V2000
   -2.8579   -0.2062    0.0000 C   0  0  0  0  0  0  0  2  0  0  0  0
   -2.1434    0.2062    0.0000 N   0  0  0  0  0  0  0  2  0  0  0  0
   -1.4289   -0.2062    0.0000 C   0  0  0  0  0  0  0  2  0  0  0  0
   -1.4289   -1.0313    0.0000 O   0  0  0  0  0  0  0  2  0  0  0  0
   -0.7145    0.2062    0.0000 O   0  0  0  0  0  0  0  2  0  0  0  0
    0.0000   -0.2062    0.0000 N   0  0  0  0  0  0  0  2  0  0  0  0
    0.7145    0.2062    0.0000 C   0  0  0  0  0  0  0  2  0  0  0  0
    1.4289   -0.2062    0.0000 C   0  0  0  0  0  0  0  2  0  0  0  0
    1.0164   -0.9207    0.0000 C   0  0  0  0  0  0  0  2  0  0  0  0
    1.8414   -0.9207    0.0000 C   0  0  0  0  0  0  0  2  0  0  0  0
    2.1434    0.2062    0.0000 S   0  0  0  0  0  0  0  2  0  0  0  0
    2.8579   -0.2062    0.0000 C   0  0  0  0  0  0  0  2  0  0  0  0
    2.1434    1.0313    0.0000 O   0  0  0  0  0  0  0  2  0  0  0  0
  1  2  1  0        0
  2  3  1  0        0
  3  4  2  0        0
  3  5  1  0        0
  5  6  1  0        0
  6  7  2  0        0
  7  8  1  0        0
  8  9  1  0        0
  8 10  1  0        0
  8 11  1  0        0
 11 12  1  0        0
 11 13  2  0        0
M  END
$$$$

CDXL12

 14 13  0  0  0  0  0  0  0  0999 V2000
   -2.8579    0.1510    0.0000 C   0  0  0  0  0  0  0  2  0  0  0  0
   -2.1434   -0.2615    0.0000 N   0  0  0  0  0  0  0  2  0  0  0  0
   -1.4289    0.1510    0.0000 C   0  0  0  0  0  0  0  2  0  0  0  0
   -1.4289    0.9760    0.0000 O   0  0  0  0  0  0  0  2  0  0  0  0
   -0.7145   -0.2615    0.0000 O   0  0  0  0  0  0  0  2  0  0  0  0
    0.0000    0.1510    0.0000 N   0  0  0  0  0  0  0  2  0  0  0  0
    0.7145   -0.2615    0.0000 C   0  0  0  0  0  0  0  2  0  0  0  0
    1.4289    0.1510    0.0000 C   0  0  0  0  0  0  0  2  0  0  0  0
    1.0164    0.8655    0.0000 C   0  0  0  0  0  0  0  2  0  0  0  0
    1.8414    0.8655    0.0000 C   0  0  0  0  0  0  0  2  0  0  0  0
    2.1434   -0.2615    0.0000 S   0  0  0  0  0  0  0  2  0  0  0  0
    2.8579   -0.6740    0.0000 C   0  0  0  0  0  0  0  2  0  0  0  0
    1.7309   -0.9760    0.0000 O   0  0  0  0  0  0  0  2  0  0  0  0
    2.5559    0.4530    0.0000 O   0  0  0  0  0  0  0  2  0  0  0  0
  1  2  1  0        0
  2  3  1  0        0
  3  4  2  0        0
  3  5  1  0        0
  5  6  1  0        0
  6  7  2  0        0
  7  8  1  0        0
  8  9  1  0        0
  8 10  1  0        0
  8 11  1  0        0
 11 12  1  0        0
 11 13  2  0        0
 11 14  2  0        0
M  END
$$$$

CDXL12

  8  8  0  0  0  0  0  0  0  0999 V2000
    1.4289   -0.4125    0.0000 C   0  0  0  0  0  0  0  2  0  0  0  0
    0.7145   -0.8250    0.0000 C   0  0  0  0  0  0  0  2  0  0  0  0
    0.0000   -0.4125    0.0000 C   0  0  0  0  0  0  0  2  0  0  0  0
   -0.7145   -0.8250    0.0000 C   0  0  0  0  0  0  0  2  0  0  0  0
   -1.4289   -0.4125    0.0000 C   0  0  0  0  0  0  0  2  0  0  0  0
   -1.4289    0.4125    0.0000 C   0  0  0  0  0  0  0  2  0  0  0  0
   -0.7145    0.8250    0.0000 C   0  0  0  0  0  0  0  2  0  0  0  0
    0.0000    0.4125    0.0000 C   0  0  0  0  0  0  0  2  0  0  0  0
  1  2  1  0        0
  2  3  1  0        0
  3  4  1  0        0
  4  5  1  0        0
  5  6  1  0        0
  6  7  1  0        0
  7  8  1  0        0
  3  8  1  0        0
M  END
$$$$

CDXL12

 10 10  0  0  0  0  0  0  0  0999 V2000
    0.7145   -0.4125    0.0000 C   0  0  0  0  0  0  0  2  0  0  0  0
    0.7145    0.4125    0.0000 C   0  0  0  0  0  0  0  2  0  0  0  0
    1.4289    0.8250    0.0000 C   0  0  0  0  0  0  0  2  0  0  0  0
    2.1434    0.4125    0.0000 C   0  0  0  0  0  0  0  2  0  0  0  0
    2.1434   -0.4125    0.0000 C   0  0  0  0  0  0  0  2  0  0  0  0
    1.4289   -0.8250    0.0000 C   0  0  0  0  0  0  0  2  0  0  0  0
    0.0000   -0.8250    0.0000 C   0  0  0  0  0  0  0  2  0  0  0  0
   -0.7145   -0.4125    0.0000 C   0  0  0  0  0  0  0  2  0  0  0  0
   -1.4289   -0.8250    0.0000 C   0  0  0  0  0  0  0  2  0  0  0  0
   -2.1434   -0.4125    0.0000 C   0  0  0  0  0  0  0  2  0  0  0  0
  1  2  1  0        0
  2  3  1  0        0
  3  4  1  0        0
  4  5  1  0        0
  5  6  1  0        0
  1  6  1  0        0
  1  7  1  0        0
  7  8  1  0        0
  8  9  1  0        0
  9 10  1  0        0
M  END
$$$$

CDXL12

 15 16  0  0  0  0  0  0  0  0999 V2000
    2.8579    1.4437    0.0000 O   0  0  0  0  0  0  0  2  0  0  0  0
    2.1434    1.0312    0.0000 C   0  0  0  0  0  0  0  2  0  0  0  0
    2.1434    0.2062    0.0000 C   0  0  0  0  0  0  0  2  0  0  0  0
    1.4289   -0.2062    0.0000 C   0  0  0  0  0  0  0  2  0  0  0  0
    0.7145    0.2062    0.0000 C   0  0  0  0  0  0  0  2  0  0  0  0
    0.0000   -0.2062    0.0000 N   0  0  0  0  0  0  0  2  0  0  0  0
   -0.7145    0.2062    0.0000 N   0  0  0  0  0  0  0  2  0  0  0  0
   -1.4289   -0.2062    0.0000 C   0  0  0  0  0  0  0  2  0  0  0  0
   -1.4289   -1.0312    0.0000 C   0  0  0  0  0  0  0  2  0  0  0  0
   -2.1434   -1.4437    0.0000 C   0  0  0  0  0  0  0  2  0  0  0  0
   -2.8579   -1.0312    0.0000 C   0  0  0  0  0  0  0  2  0  0  0  0
   -2.8579   -0.2062    0.0000 C   0  0  0  0  0  0  0  2  0  0  0  0
   -2.1434    0.2062    0.0000 C   0  0  0  0  0  0  0  2  0  0  0  0
    0.7145    1.0312    0.0000 C   0  0  0  0  0  0  0  2  0  0  0  0
    1.4289    1.4437    0.0000 C   0  0  0  0  0  0  0  2  0  0  0  0
  1  2  1  0        0
  2  3  4  0        0
  3  4  4  0        0
  4  5  4  0        0
  5  6  1  0        0
  6  7  2  0        0
  7  8  1  0        0
  8  9  4  0        0
  9 10  4  0        0
 10 11  4  0        0
 11 12  4  0        0
 12 13  4  0        0
  8 13  4  0        0
  5 14  4  0        0
 14 15  4  0        0
  2 15  4  0        0
M  END
$$$$

CDXL12

 11 11  0  0  0  0  0  0  0  0999 V2000
    1.7862    0.6188    0.0000 O   0  0  0  0  0  0  0  2  0  0  0  0
    1.0717    0.2063    0.0000 C   0  0  0  0  0  0  0  2  0  0  0  0
    0.3572    0.6188    0.0000 C   0  0  0  0  0  0  0  2  0  0  0  0
    0.3572    1.4437    0.0000 I   0  0  0  0  0  0  0  2  0  0  0  0
   -0.3572    0.2063    0.0000 C   0  0  0  0  0  0  0  2  0  0  0  0
   -0.3572   -0.6187    0.0000 C   0  0  0  0  0  0  0  2  0  0  0  0
   -1.0717   -1.0312    0.0000 C   0  0  0  0  0  0  0  2  0  0  0  0
   -1.7862   -1.4437    0.0000 N   0  0  0  0  0  0  0  2  0  0  0  0
    0.3572   -1.0312    0.0000 C   0  0  0  0  0  0  0  2  0  0  0  0
    1.0717   -0.6187    0.0000 C   0  0  0  0  0  0  0  2  0  0  0  0
    1.7862   -1.0312    0.0000 I   0  0  0  0  0  0  0  2  0  0  0  0
  1  2  1  0        0
  2  3  4  0        0
  3  4  1  0        0
  3  5  4  0        0
  5  6  4  0        0
  6  7  1  0        0
  7  8  3  0        0
  6  9  4  0        0
  9 10  4  0        0
  2 10  4  0        0
 10 11  1  0        0
M  END
$$$$

CDXL12

 11 11  0  0  0  0  0  0  0  0999 V2000
    1.7862    0.6188    0.0000 O   0  0  0  0  0  0  0  2  0  0  0  0
    1.0717    0.2063    0.0000 C   0  0  0  0  0  0  0  2  0  0  0  0
    0.3572    0.6188    0.0000 C   0  0  0  0  0  0  0  2  0  0  0  0
    0.3572    1.4437    0.0000 Br  0  0  0  0  0  0  0  2  0  0  0  0
   -0.3572    0.2063    0.0000 C   0  0  0  0  0  0  0  2  0  0  0  0
   -0.3572   -0.6187    0.0000 C   0  0  0  0  0  0  0  2  0  0  0  0
   -1.0717   -1.0312    0.0000 C   0  0  0  0  0  0  0  2  0  0  0  0
   -1.7862   -1.4437    0.0000 N   0  0  0  0  0  0  0  2  0  0  0  0
    0.3572   -1.0312    0.0000 C   0  0  0  0  0  0  0  2  0  0  0  0
    1.0717   -0.6187    0.0000 C   0  0  0  0  0  0  0  2  0  0  0  0
    1.7862   -1.0312    0.0000 Br  0  0  0  0  0  0  0  2  0  0  0  0
  1  2  1  0        0
  2  3  4  0        0
  3  4  1  0        0
  3  5  4  0        0
  5  6  4  0        0
  6  7  1  0        0
  7  8  3  0        0
  6  9  4  0        0
  9 10  4  0        0
  2 10  4  0        0
 10 11  1  0        0
M  END
$$$$

CDXL12

 20 20  0  0  0  0  0  0  0  0999 V2000
    0.3572    0.6187    0.0000 O   0  0  0  0  0  0  0  2  0  0  0  0
    0.3572   -0.2063    0.0000 C   0  0  0  0  0  0  0  2  0  0  0  0
    1.0717   -0.6188    0.0000 O   0  0  0  0  0  0  0  2  0  0  0  0
    1.7862   -0.2063    0.0000 C   0  0  0  0  0  0  0  2  0  0  0  0
    1.7862    0.6187    0.0000 C   0  0  0  0  0  0  0  2  0  0  0  0
    2.5006    1.0312    0.0000 C   0  0  0  0  0  0  0  2  0  0  0  0
    3.2151    0.6187    0.0000 C   0  0  0  0  0  0  0  2  0  0  0  0
    3.9296    1.0312    0.0000 C   0  0  0  0  0  0  0  2  0  0  0  0
    4.6441    1.4437    0.0000 N   0  0  0  0  0  0  0  2  0  0  0  0
    3.2151   -0.2063    0.0000 C   0  0  0  0  0  0  0  2  0  0  0  0
    2.5006   -0.6188    0.0000 C   0  0  0  0  0  0  0  2  0  0  0  0
    2.5006   -1.4437    0.0000 Br  0  0  0  0  0  0  0  2  0  0  0  0
    1.0717    1.0312    0.0000 Br  0  0  0  0  0  0  0  2  0  0  0  0
   -0.3572   -0.6188    0.0000 C   0  0  0  0  0  0  0  2  0  0  0  0
   -1.0717   -0.2063    0.0000 C   0  0  0  0  0  0  0  2  0  0  0  0
   -1.7862   -0.6188    0.0000 C   0  0  0  0  0  0  0  2  0  0  0  0
   -2.5006   -0.2063    0.0000 C   0  0  0  0  0  0  0  2  0  0  0  0
   -3.2151   -0.6188    0.0000 C   0  0  0  0  0  0  0  2  0  0  0  0
   -3.9296   -0.2063    0.0000 C   0  0  0  0  0  0  0  2  0  0  0  0
   -4.6441   -0.6188    0.0000 C   0  0  0  0  0  0  0  2  0  0  0  0
  1  2  2  0        0
  2  3  1  0        0
  3  4  1  0        0
  4  5  4  0        0
  5  6  4  0        0
  6  7  4  0        0
  7  8  1  0        0
  8  9  3  0        0
  7 10  4  0        0
 10 11  4  0        0
  4 11  4  0        0
 11 12  1  0        0
  5 13  1  0        0
  2 14  1  0        0
 14 15  1  0        0
 15 16  1  0        0
 16 17  1  0        0
 17 18  1  0        0
 18 19  1  0        0
 19 20  1  0        0
M  END
$$$$

CDXL12

 15 16  0  0  0  0  0  0  0  0999 V2000
   -0.7145   -1.0313    0.0000 C   0  0  0  0  0  0  0  2  0  0  0  0
   -1.4289   -1.4437    0.0000 C   0  0  0  0  0  0  0  2  0  0  0  0
   -2.1434   -1.0312    0.0000 C   0  0  0  0  0  0  0  2  0  0  0  0
   -2.1434   -0.2062    0.0000 C   0  0  0  0  0  0  0  2  0  0  0  0
   -1.4289    0.2062    0.0000 C   0  0  0  0  0  0  0  2  0  0  0  0
   -0.7145   -0.2063    0.0000 C   0  0  0  0  0  0  0  2  0  0  0  0
    0.0000    0.2062    0.0000 N   0  0  0  0  0  0  0  2  0  0  0  0
    0.7145   -0.2062    0.0000 C   0  0  0  0  0  0  0  2  0  0  0  0
    0.7145   -1.0312    0.0000 O   0  0  0  0  0  0  0  2  0  0  0  0
    1.4289    0.2062    0.0000 C   0  0  0  0  0  0  0  2  0  0  0  0
    2.1434   -0.2062    0.0000 Cl  0  0  0  0  0  0  0  2  0  0  0  0
    1.4289    1.0312    0.0000 C   0  0  0  0  0  0  0  2  0  0  0  0
    2.1434    1.4437    0.0000 N   0  0  0  0  0  0  0  2  0  0  0  0
    0.7145    1.4437    0.0000 C   0  0  0  0  0  0  0  2  0  0  0  0
    0.0000    1.0312    0.0000 N   0  0  0  0  0  0  0  2  0  0  0  0
  1  2  4  0        0
  2  3  4  0        0
  3  4  4  0        0
  4  5  4  0        0
  5  6  4  0        0
  1  6  4  0        0
  6  7  1  0        0
  7  8  1  0        0
  8  9  2  0        0
  8 10  1  0        0
 10 11  1  0        0
 10 12  2  0        0
 12 13  1  0        0
 12 14  1  0        0
 14 15  2  0        0
  7 15  1  0        0
M  END
$$$$

CDXL12

 11 11  0  0  0  0  0  0  0  0999 V2000
    1.7862    0.0000    0.0000 O   0  0  0  0  0  0  0  2  0  0  0  0
    1.0717    0.4125    0.0000 C   0  0  0  0  0  0  0  2  0  0  0  0
    1.0717    1.2375    0.0000 O   0  0  0  0  0  0  0  2  0  0  0  0
    0.3572    0.0000    0.0000 C   0  0  0  0  0  0  0  2  0  0  0  0
   -0.3572    0.4125    0.0000 N   0  0  0  0  0  0  0  2  0  0  0  0
   -1.0717   -0.0000    0.0000 C   0  0  0  0  0  0  0  2  0  0  0  0
   -1.7862    0.4125    0.0000 Cl  0  0  0  0  0  0  0  2  0  0  0  0
   -1.0717   -0.8250    0.0000 C   0  0  0  0  0  0  0  2  0  0  0  0
   -0.3572   -1.2375    0.0000 C   0  0  0  0  0  0  0  2  0  0  0  0
    0.3572   -0.8250    0.0000 C   0  0  0  0  0  0  0  2  0  0  0  0
    1.0717   -1.2375    0.0000 Cl  0  0  0  0  0  0  0  2  0  0  0  0
  1  2  1  0        0
  2  3  2  0        0
  2  4  1  0        0
  4  5  4  0        0
  5  6  4  0        0
  6  7  1  0        0
  6  8  4  0        0
  8  9  4  0        0
  9 10  4  0        0
  4 10  4  0        0
 10 11  1  0        0
M  END
$$$$

CDXL12

 19 22  0  0  0  0  0  0  0  0999 V2000
   -0.3572   -1.8562    0.0000 C   0  0  0  0  0  0  0  2  0  0  0  0
   -0.3572   -1.0312    0.0000 C   0  0  0  0  0  0  0  2  0  0  0  0
    0.3572   -0.6187    0.0000 C   0  0  0  0  0  0  0  2  0  0  0  0
    0.3572    0.2062    0.0000 C   0  0  0  0  0  0  0  2  0  0  0  0
    1.0717    0.6187    0.0000 C   0  0  0  0  0  0  0  2  0  0  0  0
    1.7862    0.2062    0.0000 C   0  0  0  0  0  0  0  2  0  0  0  0
    2.5006    0.6187    0.0000 C   0  0  0  0  0  0  0  2  0  0  0  0
    2.5006    1.4437    0.0000 C   0  0  0  0  0  0  0  2  0  0  0  0
    1.7862    1.8562    0.0000 C   0  0  0  0  0  0  0  2  0  0  0  0
    1.0717    1.4437    0.0000 C   0  0  0  0  0  0  0  2  0  0  0  0
    0.3572    1.8562    0.0000 C   0  0  0  0  0  0  0  2  0  0  0  0
   -0.3572    1.4437    0.0000 C   0  0  0  0  0  0  0  2  0  0  0  0
   -0.3572    0.6187    0.0000 C   0  0  0  0  0  0  0  2  0  0  0  0
   -1.0717    0.2063    0.0000 C   0  0  0  0  0  0  0  2  0  0  0  0
   -1.7862    0.6188    0.0000 C   0  0  0  0  0  0  0  2  0  0  0  0
   -2.5006    0.2063    0.0000 C   0  0  0  0  0  0  0  2  0  0  0  0
   -2.5006   -0.6187    0.0000 C   0  0  0  0  0  0  0  2  0  0  0  0
   -1.7862   -1.0312    0.0000 C   0  0  0  0  0  0  0  2  0  0  0  0
   -1.0717   -0.6187    0.0000 C   0  0  0  0  0  0  0  2  0  0  0  0
  1  2  1  0        0
  2  3  4  0        0
  3  4  4  0        0
  4  5  4  0        0
  5  6  4  0        0
  6  7  4  0        0
  7  8  4  0        0
  8  9  4  0        0
  9 10  4  0        0
  5 10  4  0        0
 10 11  4  0        0
 11 12  4  0        0
 12 13  4  0        0
  4 13  4  0        0
 13 14  4  0        0
 14 15  4  0        0
 15 16  4  0        0
 16 17  4  0        0
 17 18  4  0        0
 18 19  4  0        0
  2 19  4  0        0
 14 19  4  0        0
M  END
$$$$

CDXL12

 10 10  0  0  0  0  0  0  0  0999 V2000
    0.3572    0.4125    0.0000 C   0  0  0  0  0  0  0  2  0  0  0  0
    1.0717    0.0000    0.0000 C   0  0  0  0  0  0  0  2  0  0  0  0
    1.0717   -0.8250    0.0000 C   0  0  0  0  0  0  0  2  0  0  0  0
    1.7862   -1.2375    0.0000 Cl  0  0  0  0  0  0  0  2  0  0  0  0
    0.3572   -1.2375    0.0000 C   0  0  0  0  0  0  0  2  0  0  0  0
   -0.3572   -0.8250    0.0000 C   0  0  0  0  0  0  0  2  0  0  0  0
   -0.3572   -0.0000    0.0000 C   0  0  0  0  0  0  0  2  0  0  0  0
   -1.0717    0.4125    0.0000 C   0  0  0  0  0  0  0  2  0  0  0  0
   -1.0717    1.2375    0.0000 C   0  0  0  0  0  0  0  2  0  0  0  0
   -1.7862   -0.0000    0.0000 C   0  0  0  0  0  0  0  2  0  0  0  0
  1  2  4  0        0
  2  3  4  0        0
  3  4  1  0        0
  3  5  4  0        0
  5  6  4  0        0
  6  7  4  0        0
  1  7  4  0        0
  7  8  1  0        0
  8  9  1  0        0
  8 10  2  0        0
M  END
$$$$

CDXL12

 14 16  0  0  0  0  0  0  0  0999 V2000
    2.0264   -0.2208    0.0000 C   0  0  0  0  0  0  0  2  0  0  0  0
    1.7715   -1.0054    0.0000 C   0  0  0  0  0  0  0  2  0  0  0  0
    0.9645   -1.1769    0.0000 C   0  0  0  0  0  0  0  2  0  0  0  0
    0.4125   -0.5638    0.0000 C   0  0  0  0  0  0  0  2  0  0  0  0
   -0.4125   -0.5638    0.0000 C   0  0  0  0  0  0  0  2  0  0  0  0
   -0.9645   -1.1769    0.0000 C   0  0  0  0  0  0  0  2  0  0  0  0
   -1.7715   -1.0054    0.0000 C   0  0  0  0  0  0  0  2  0  0  0  0
   -2.0264   -0.2208    0.0000 C   0  0  0  0  0  0  0  2  0  0  0  0
   -1.4744    0.3923    0.0000 C   0  0  0  0  0  0  0  2  0  0  0  0
   -0.6674    0.2208    0.0000 C   0  0  0  0  0  0  0  2  0  0  0  0
    0.0000    0.7057    0.0000 C   0  0  0  0  0  0  0  2  0  0  0  0
    0.6674    0.2208    0.0000 C   0  0  0  0  0  0  0  2  0  0  0  0
    1.4744    0.3923    0.0000 C   0  0  0  0  0  0  0  2  0  0  0  0
    1.7293    1.1769    0.0000 C   0  0  0  0  0  0  0  2  0  0  0  0
  1  2  4  0        0
  2  3  4  0        0
  3  4  4  0        0
  4  5  1  0        0
  5  6  4  0        0
  6  7  4  0        0
  7  8  4  0        0
  8  9  4  0        0
  9 10  4  0        0
  5 10  4  0        0
 10 11  1  0        0
 11 12  1  0        0
  4 12  4  0        0
 12 13  4  0        0
  1 13  4  0        0
 13 14  1  0        0
M  END
$$$$

CDXL12

 10 10  0  0  0  0  0  0  0  0999 V2000
    0.3572    0.8250    0.0000 O   0  0  0  0  0  0  0  2  0  0  0  0
   -0.3572    0.4125    0.0000 C   0  0  0  0  0  0  0  2  0  0  0  0
   -0.3572   -0.4125    0.0000 C   0  0  0  0  0  0  0  2  0  0  0  0
   -1.0717   -0.8250    0.0000 C   0  0  0  0  0  0  0  2  0  0  0  0
   -1.7862   -0.4125    0.0000 C   0  0  0  0  0  0  0  2  0  0  0  0
   -1.7862    0.4125    0.0000 C   0  0  0  0  0  0  0  2  0  0  0  0
   -1.0717    0.8250    0.0000 C   0  0  0  0  0  0  0  2  0  0  0  0
    0.3572   -0.8250    0.0000 C   0  0  0  0  0  0  0  2  0  0  0  0
    1.0717   -0.4125    0.0000 C   0  0  0  0  0  0  0  2  0  0  0  0
    1.7862   -0.8250    0.0000 C   0  0  0  0  0  0  0  2  0  0  0  0
  1  2  1  0        0
  2  3  4  0        0
  3  4  4  0        0
  4  5  4  0        0
  5  6  4  0        0
  6  7  4  0        0
  2  7  4  0        0
  3  8  1  0        0
  8  9  1  0        0
  9 10  2  0        0
M  END
$$$$

CDXL12

 14 14  0  0  0  0  0  0  0  0999 V2000
   -0.7145    0.8250    0.0000 O   0  0  0  0  0  0  0  2  0  0  0  0
   -0.7145    0.0000    0.0000 C   0  0  0  0  0  0  0  2  0  0  0  0
   -1.4289   -0.4125    0.0000 N   0  0  0  0  0  0  0  2  0  0  0  0
   -2.1434    0.0000    0.0000 O   0  0  0  0  0  0  0  2  0  0  0  0
   -2.8579   -0.4125    0.0000 C   0  0  0  0  0  0  0  2  0  0  0  0
   -1.4289   -1.2375    0.0000 C   0  0  0  0  0  0  0  2  0  0  0  0
    0.0000   -0.4125    0.0000 N   0  0  0  0  0  0  0  2  0  0  0  0
    0.7145    0.0000    0.0000 C   0  0  0  0  0  0  0  2  0  0  0  0
    0.7145    0.8250    0.0000 C   0  0  0  0  0  0  0  2  0  0  0  0
    1.4289    1.2375    0.0000 C   0  0  0  0  0  0  0  2  0  0  0  0
    2.1434    0.8250    0.0000 C   0  0  0  0  0  0  0  2  0  0  0  0
    2.1434    0.0000    0.0000 C   0  0  0  0  0  0  0  2  0  0  0  0
    1.4289   -0.4125    0.0000 C   0  0  0  0  0  0  0  2  0  0  0  0
    2.8579    1.2375    0.0000 Cl  0  0  0  0  0  0  0  2  0  0  0  0
  1  2  2  0        0
  2  3  1  0        0
  3  4  1  0        0
  4  5  1  0        0
  3  6  1  0        0
  2  7  1  0        0
  7  8  1  0        0
  8  9  4  0        0
  9 10  4  0        0
 10 11  4  0        0
 11 12  4  0        0
 12 13  4  0        0
  8 13  4  0        0
 11 14  1  0        0
M  END
$$$$

CDXL12

  7  6  0  0  0  0  0  0  0  0999 V2000
   -1.4289    0.2062    0.0000 N   0  0  0  0  0  0  0  2  0  0  0  0
   -0.7145   -0.2063    0.0000 C   0  0  0  0  0  0  0  2  0  0  0  0
    0.0000   -0.6188    0.0000 S   0  0  0  0  0  0  0  2  0  0  0  0
    0.7145   -0.2062    0.0000 N   0  0  0  0  0  0  0  2  0  0  0  0
    1.4289    0.2062    0.0000 H   0  0  0  0  0  0  0  2  0  0  0  0
    0.7145    0.6188    0.0000 H   0  0  0  0  0  0  0  2  0  0  0  0
    1.4289   -0.6188    0.0000 H   0  0  0  0  0  0  0  2  0  0  0  0
  1  2  3  0        0
  2  3  1  0        0
  3  4  1  0        0
  4  5  1  0        0
  4  6  1  0        0
  4  7  1  0        0
M  END
$$$$

CDXL12

 10 10  0  0  0  0  0  0  0  0999 V2000
    0.7145    1.2375    0.0000 O   0  0  0  0  0  0  0  2  0  0  0  0
    0.7145    0.4125    0.0000 P   0  0  0  0  0  0  0  2  0  0  0  0
    0.7145   -0.4125    0.0000 H   0  0  0  0  0  0  0  2  0  0  0  0
    1.4289   -0.0000    0.0000 O   0  0  0  0  0  0  0  2  0  0  0  0
    0.0000   -0.0000    0.0000 C   0  0  0  0  0  0  0  2  0  0  0  0
    0.0000   -0.8250    0.0000 C   0  0  0  0  0  0  0  2  0  0  0  0
   -0.7145   -1.2375    0.0000 C   0  0  0  0  0  0  0  2  0  0  0  0
   -1.4289   -0.8250    0.0000 C   0  0  0  0  0  0  0  2  0  0  0  0
   -1.4289   -0.0000    0.0000 C   0  0  0  0  0  0  0  2  0  0  0  0
   -0.7145    0.4125    0.0000 C   0  0  0  0  0  0  0  2  0  0  0  0
  1  2  2  0        0
  2  3  1  0        0
  2  4  1  0        0
  2  5  1  0        0
  5  6  4  0        0
  6  7  4  0        0
  7  8  4  0        0
  8  9  4  0        0
  9 10  4  0        0
  5 10  4  0        0
M  END
$$$$

CDXL12

 10 10  0  0  0  0  0  0  0  0999 V2000
   -0.3572   -0.8250    0.0000 C   0  0  0  0  0  0  0  2  0  0  0  0
   -1.0717   -0.4125    0.0000 C   0  0  0  0  0  0  0  2  0  0  0  0
   -1.7862   -0.8250    0.0000 Cl  0  0  0  0  0  0  0  2  0  0  0  0
   -1.0717    0.4125    0.0000 C   0  0  0  0  0  0  0  2  0  0  0  0
   -1.7862    0.8250    0.0000 Cl  0  0  0  0  0  0  0  2  0  0  0  0
   -0.3572    0.8250    0.0000 C   0  0  0  0  0  0  0  2  0  0  0  0
    0.3572    0.4125    0.0000 C   0  0  0  0  0  0  0  2  0  0  0  0
    0.3572   -0.4125    0.0000 C   0  0  0  0  0  0  0  2  0  0  0  0
    1.0717   -0.8250    0.0000 C   0  0  0  0  0  0  0  2  0  0  0  0
    1.7862   -0.4125    0.0000 O   0  0  0  0  0  0  0  2  0  0  0  0
  1  2  4  0        0
  2  3  1  0        0
  2  4  4  0        0
  4  5  1  0        0
  4  6  4  0        0
  6  7  4  0        0
  7  8  4  0        0
  1  8  4  0        0
  8  9  1  0        0
  9 10  1  0        0
M  END
$$$$

CDXL12

 12 11  0  0  0  0  0  0  0  0999 V2000
    0.0000   -0.2062    0.0000 P   0  0  0  0  0  0  0  2  0  0  0  0
    0.0000    0.6188    0.0000 O   0  0  0  0  0  0  0  2  0  0  0  0
   -0.7145   -0.6187    0.0000 O   0  0  0  0  0  0  0  2  0  0  0  0
   -1.4289   -0.2062    0.0000 C   0  0  0  0  0  0  0  2  0  0  0  0
   -2.1434   -0.6187    0.0000 C   0  0  0  0  0  0  0  2  0  0  0  0
   -2.8579   -0.2062    0.0000 C   0  0  0  0  0  0  0  2  0  0  0  0
   -3.5724   -0.6187    0.0000 C   0  0  0  0  0  0  0  2  0  0  0  0
    0.7145   -0.6188    0.0000 O   0  0  0  0  0  0  0  2  0  0  0  0
    1.4289   -0.2062    0.0000 C   0  0  0  0  0  0  0  2  0  0  0  0
    2.1434   -0.6188    0.0000 C   0  0  0  0  0  0  0  2  0  0  0  0
    2.8579   -0.2062    0.0000 C   0  0  0  0  0  0  0  2  0  0  0  0
    3.5724   -0.6188    0.0000 C   0  0  0  0  0  0  0  2  0  0  0  0
  1  2  1  0        0
  1  3  1  0        0
  3  4  1  0        0
  4  5  1  0        0
  5  6  1  0        0
  6  7  1  0        0
  1  8  1  0        0
  8  9  1  0        0
  9 10  1  0        0
 10 11  1  0        0
 11 12  1  0        0
M  END
$$$$

CDXL12

 17 17  0  0  0  0  0  0  0  0999 V2000
    0.3572    0.0000    0.0000 N   0  0  0  0  0  0  0  2  0  0  0  0
    1.0717    0.4125    0.0000 C   0  0  0  0  0  0  0  2  0  0  0  0
    1.0717    1.2375    0.0000 Cl  0  0  0  0  0  0  0  2  0  0  0  0
    1.7862   -0.0000    0.0000 N   0  0  0  0  0  0  0  2  0  0  0  0
    1.7862   -0.8250    0.0000 C   0  0  0  0  0  0  0  2  0  0  0  0
    2.5006   -1.2375    0.0000 N   0  0  0  0  0  0  0  2  0  0  0  0
    3.2151   -0.8250    0.0000 C   0  0  0  0  0  0  0  2  0  0  0  0
    3.2151   -0.0000    0.0000 C   0  0  0  0  0  0  0  2  0  0  0  0
    3.9296   -1.2375    0.0000 C   0  0  0  0  0  0  0  2  0  0  0  0
    1.0717   -1.2375    0.0000 N   0  0  0  0  0  0  0  2  0  0  0  0
    0.3572   -0.8250    0.0000 C   0  0  0  0  0  0  0  2  0  0  0  0
   -0.3572   -1.2375    0.0000 N   0  0  0  0  0  0  0  2  0  0  0  0
   -1.0717   -0.8250    0.0000 C   0  0  0  0  0  0  0  2  0  0  0  0
   -1.7862   -1.2375    0.0000 C   0  0  0  0  0  0  0  2  0  0  0  0
   -2.5006   -0.8250    0.0000 C   0  0  0  0  0  0  0  2  0  0  0  0
   -3.2151   -1.2375    0.0000 O   0  0  0  0  0  0  0  2  0  0  0  0
   -3.9296   -0.8250    0.0000 C   0  0  0  0  0  0  0  2  0  0  0  0
  1  2  4  0        0
  2  3  1  0        0
  2  4  4  0        0
  4  5  4  0        0
  5  6  1  0        0
  6  7  1  0        0
  7  8  1  0        0
  7  9  1  0        0
  5 10  4  0        0
 10 11  4  0        0
  1 11  4  0        0
 11 12  1  0        0
 12 13  1  0        0
 13 14  1  0        0
 14 15  1  0        0
 15 16  1  0        0
 16 17  1  0        0
M  END
$$$$

CDXL12

 12 13  0  0  0  0  0  0  0  0999 V2000
    0.0000   -0.4125    0.0000 C   0  0  0  0  0  0  0  2  0  0  0  0
    0.0000    0.4125    0.0000 C   0  0  0  0  0  0  0  2  0  0  0  0
    0.7145    0.8250    0.0000 C   0  0  0  0  0  0  0  2  0  0  0  0
    1.4289    0.4125    0.0000 C   0  0  0  0  0  0  0  2  0  0  0  0
    1.4289   -0.4125    0.0000 C   0  0  0  0  0  0  0  2  0  0  0  0
    0.7145   -0.8250    0.0000 C   0  0  0  0  0  0  0  2  0  0  0  0
    0.7145   -1.6500    0.0000 Cl  0  0  0  0  0  0  0  2  0  0  0  0
    0.7145    1.6500    0.0000 Cl  0  0  0  0  0  0  0  2  0  0  0  0
   -0.7145    0.8250    0.0000 C   0  0  0  0  0  0  0  2  0  0  0  0
   -1.4289    0.4125    0.0000 C   0  0  0  0  0  0  0  2  0  0  0  0
   -1.4289   -0.4125    0.0000 C   0  0  0  0  0  0  0  2  0  0  0  0
   -0.7145   -0.8250    0.0000 C   0  0  0  0  0  0  0  2  0  0  0  0
  1  2  4  0        0
  2  3  4  0        0
  3  4  4  0        0
  4  5  4  0        0
  5  6  4  0        0
  1  6  4  0        0
  6  7  1  0        0
  3  8  1  0        0
  2  9  4  0        0
  9 10  4  0        0
 10 11  4  0        0
 11 12  4  0        0
  1 12  4  0        0
M  END
$$$$

CDXL12

  7  6  0  0  0  0  0  0  0  0999 V2000
   -1.4289   -0.4125    0.0000 C   0  0  0  0  0  0  0  2  0  0  0  0
   -0.7145   -0.0000    0.0000 P   0  0  0  0  0  0  0  2  0  0  0  0
   -0.7145    0.8250    0.0000 O   0  0  0  0  0  0  0  2  0  0  0  0
   -0.7145   -0.8250    0.0000 O   0  0  0  0  0  0  0  2  0  0  0  0
    0.0000   -0.4125    0.0000 O   0  0  0  0  0  0  0  2  0  0  0  0
    0.7145    0.0000    0.0000 C   0  0  0  0  0  0  0  2  0  0  0  0
    1.4289   -0.4125    0.0000 C   0  0  0  0  0  0  0  2  0  0  0  0
  1  2  1  0        0
  2  3  2  0        0
  2  4  1  0        0
  2  5  1  0        0
  5  6  1  0        0
  6  7  1  0        0
M  END
$$$$

CDXL12

 18 19  0  0  0  0  0  0  0  0999 V2000
    2.5006   -1.2375    0.0000 O   0  0  0  0  0  0  0  2  0  0  0  0
    2.5006   -0.4125    0.0000 N   0  0  0  0  0  0  0  2  0  0  0  0
    3.2151   -0.0000    0.0000 O   0  0  0  0  0  0  0  2  0  0  0  0
    1.7862   -0.0000    0.0000 C   0  0  0  0  0  0  0  2  0  0  0  0
    1.0717   -0.4125    0.0000 C   0  0  0  0  0  0  0  2  0  0  0  0
    0.3572   -0.0000    0.0000 C   0  0  0  0  0  0  0  2  0  0  0  0
    0.3572    0.8250    0.0000 C   0  0  0  0  0  0  0  2  0  0  0  0
   -0.3572    1.2375    0.0000 O   0  0  0  0  0  0  0  2  0  0  0  0
   -1.0717    0.8250    0.0000 C   0  0  0  0  0  0  0  2  0  0  0  0
   -1.0717   -0.0000    0.0000 C   0  0  0  0  0  0  0  2  0  0  0  0
   -1.7862   -0.4125    0.0000 C   0  0  0  0  0  0  0  2  0  0  0  0
   -2.5006   -0.0000    0.0000 C   0  0  0  0  0  0  0  2  0  0  0  0
   -2.5006    0.8250    0.0000 C   0  0  0  0  0  0  0  2  0  0  0  0
   -1.7862    1.2375    0.0000 C   0  0  0  0  0  0  0  2  0  0  0  0
   -3.2151   -0.4125    0.0000 Cl  0  0  0  0  0  0  0  2  0  0  0  0
   -0.3572   -0.4125    0.0000 Cl  0  0  0  0  0  0  0  2  0  0  0  0
    1.0717    1.2375    0.0000 C   0  0  0  0  0  0  0  2  0  0  0  0
    1.7862    0.8250    0.0000 C   0  0  0  0  0  0  0  2  0  0  0  0
  1  2  2  0        0
  2  3  2  0        0
  2  4  1  0        0
  4  5  4  0        0
  5  6  4  0        0
  6  7  4  0        0
  7  8  1  0        0
  8  9  1  0        0
  9 10  4  0        0
 10 11  4  0        0
 11 12  4  0        0
 12 13  4  0        0
 13 14  4  0        0
  9 14  4  0        0
 12 15  1  0        0
 10 16  1  0        0
  7 17  4  0        0
 17 18  4  0        0
  4 18  4  0        0
M  END
$$$$

CDXL12

 19 20  0  0  0  0  0  0  0  0999 V2000
   -3.2151   -0.8250    0.0000 Cl  0  0  0  0  0  0  0  2  0  0  0  0
   -2.5006   -0.4125    0.0000 C   0  0  0  0  0  0  0  2  0  0  0  0
   -2.5006    0.4125    0.0000 C   0  0  0  0  0  0  0  2  0  0  0  0
   -1.7862    0.8250    0.0000 C   0  0  0  0  0  0  0  2  0  0  0  0
   -1.7862    1.6500    0.0000 Cl  0  0  0  0  0  0  0  2  0  0  0  0
   -1.0717    0.4125    0.0000 C   0  0  0  0  0  0  0  2  0  0  0  0
   -0.3572    0.8250    0.0000 O   0  0  0  0  0  0  0  2  0  0  0  0
    0.3572    0.4125    0.0000 C   0  0  0  0  0  0  0  2  0  0  0  0
    1.0717    0.8250    0.0000 C   0  0  0  0  0  0  0  2  0  0  0  0
    1.7862    0.4125    0.0000 C   0  0  0  0  0  0  0  2  0  0  0  0
    1.7862   -0.4125    0.0000 C   0  0  0  0  0  0  0  2  0  0  0  0
    1.0717   -0.8250    0.0000 C   0  0  0  0  0  0  0  2  0  0  0  0
    0.3572   -0.4125    0.0000 C   0  0  0  0  0  0  0  2  0  0  0  0
    2.5006   -0.8250    0.0000 N   0  0  0  0  0  0  0  2  0  0  0  0
    2.5006   -1.6500    0.0000 O   0  0  0  0  0  0  0  2  0  0  0  0
    3.2151   -0.4125    0.0000 O   0  0  0  0  0  0  0  2  0  0  0  0
   -1.0717   -0.4125    0.0000 C   0  0  0  0  0  0  0  2  0  0  0  0
   -0.3572   -0.8250    0.0000 Cl  0  0  0  0  0  0  0  2  0  0  0  0
   -1.7862   -0.8250    0.0000 C   0  0  0  0  0  0  0  2  0  0  0  0
  1  2  1  0        0
  2  3  4  0        0
  3  4  4  0        0
  4  5  1  0        0
  4  6  4  0        0
  6  7  1  0        0
  7  8  1  0        0
  8  9  4  0        0
  9 10  4  0        0
 10 11  4  0        0
 11 12  4  0        0
 12 13  4  0        0
  8 13  4  0        0
 11 14  1  0        0
 14 15  2  0        0
 14 16  2  0        0
  6 17  4  0        0
 17 18  1  0        0
 17 19  4  0        0
  2 19  4  0        0
M  END
$$$$

CDXL12

 18 18  0  0  0  0  0  0  0  0999 V2000
    2.8579   -0.8250    0.0000 C   0  0  0  0  0  0  0  2  0  0  0  0
    2.1434   -0.4125    0.0000 O   0  0  0  0  0  0  0  2  0  0  0  0
    1.4289   -0.8250    0.0000 C   0  0  0  0  0  0  0  2  0  0  0  0
    1.4289   -1.6500    0.0000 O   0  0  0  0  0  0  0  2  0  0  0  0
    0.7145   -0.4125    0.0000 C   0  0  0  0  0  0  0  2  0  0  0  0
    0.0000   -0.8250    0.0000 C   0  0  0  0  0  0  0  2  0  0  0  0
    0.0000   -1.6500    0.0000 Cl  0  0  0  0  0  0  0  2  0  0  0  0
   -0.7145   -0.4125    0.0000 C   0  0  0  0  0  0  0  2  0  0  0  0
   -1.4289   -0.8250    0.0000 Cl  0  0  0  0  0  0  0  2  0  0  0  0
   -0.7145    0.4125    0.0000 C   0  0  0  0  0  0  0  2  0  0  0  0
   -1.4289    0.8250    0.0000 C   0  0  0  0  0  0  0  2  0  0  0  0
   -1.4289    1.6500    0.0000 O   0  0  0  0  0  0  0  2  0  0  0  0
   -2.1434    0.4125    0.0000 O   0  0  0  0  0  0  0  2  0  0  0  0
   -2.8579    0.8250    0.0000 C   0  0  0  0  0  0  0  2  0  0  0  0
    0.0000    0.8250    0.0000 C   0  0  0  0  0  0  0  2  0  0  0  0
    0.0000    1.6500    0.0000 Cl  0  0  0  0  0  0  0  2  0  0  0  0
    0.7145    0.4125    0.0000 C   0  0  0  0  0  0  0  2  0  0  0  0
    1.4289    0.8250    0.0000 Cl  0  0  0  0  0  0  0  2  0  0  0  0
  1  2  1  0        0
  2  3  1  0        0
  3  4  2  0        0
  3  5  1  0        0
  5  6  4  0        0
  6  7  1  0        0
  6  8  4  0        0
  8  9  1  0        0
  8 10  4  0        0
 10 11  1  0        0
 11 12  2  0        0
 11 13  1  0        0
 13 14  1  0        0
 10 15  4  0        0
 15 16  1  0        0
 15 17  4  0        0
  5 17  4  0        0
 17 18  1  0        0
M  END
$$$$

CDXL12

 15 15  0  0  0  0  0  0  0  0999 V2000
    1.4289   -1.2375    0.0000 Cl  0  0  0  0  0  0  0  2  0  0  0  0
    1.4289   -0.4125    0.0000 C   0  0  0  0  0  0  0  2  0  0  0  0
    0.7145    0.0000    0.0000 C   0  0  0  0  0  0  0  2  0  0  0  0
    0.0000   -0.4125    0.0000 C   0  0  0  0  0  0  0  2  0  0  0  0
   -0.7145   -0.0000    0.0000 O   0  0  0  0  0  0  0  2  0  0  0  0
   -1.4289   -0.4125    0.0000 C   0  0  0  0  0  0  0  2  0  0  0  0
   -2.1434   -0.0000    0.0000 C   0  0  0  0  0  0  0  2  0  0  0  0
   -2.8579   -0.4125    0.0000 C   0  0  0  0  0  0  0  2  0  0  0  0
   -2.1434    0.8250    0.0000 O   0  0  0  0  0  0  0  2  0  0  0  0
    0.7145    0.8250    0.0000 C   0  0  0  0  0  0  0  2  0  0  0  0
    0.0000    1.2375    0.0000 Cl  0  0  0  0  0  0  0  2  0  0  0  0
    1.4289    1.2375    0.0000 C   0  0  0  0  0  0  0  2  0  0  0  0
    2.1434    0.8250    0.0000 C   0  0  0  0  0  0  0  2  0  0  0  0
    2.1434   -0.0000    0.0000 C   0  0  0  0  0  0  0  2  0  0  0  0
    2.8579   -0.4125    0.0000 Cl  0  0  0  0  0  0  0  2  0  0  0  0
  1  2  1  0        0
  2  3  4  0        0
  3  4  1  0        0
  4  5  1  0        0
  5  6  1  0        0
  6  7  1  0        0
  7  8  1  0        0
  7  9  1  0        0
  3 10  4  0        0
 10 11  1  0        0
 10 12  4  0        0
 12 13  4  0        0
 13 14  4  0        0
  2 14  4  0        0
 14 15  1  0        0
M  END
$$$$

CDXL12

  9  8  0  0  0  0  0  0  0  0999 V2000
    0.0000    0.2062    0.0000 C   0  0  0  0  0  0  0  2  0  0  0  0
   -0.7145   -0.2062    0.0000 C   0  0  0  0  0  0  0  2  0  0  0  0
   -0.7145   -1.0312    0.0000 Cl  0  0  0  0  0  0  0  2  0  0  0  0
   -1.4289    0.2062    0.0000 Cl  0  0  0  0  0  0  0  2  0  0  0  0
    0.7145   -0.2062    0.0000 C   0  0  0  0  0  0  0  2  0  0  0  0
    1.4289    0.2062    0.0000 Cl  0  0  0  0  0  0  0  2  0  0  0  0
    0.7145   -1.0313    0.0000 Cl  0  0  0  0  0  0  0  2  0  0  0  0
    1.4289   -0.6188    0.0000 Cl  0  0  0  0  0  0  0  2  0  0  0  0
    0.0000    1.0313    0.0000 Cl  0  0  0  0  0  0  0  2  0  0  0  0
  1  2  2  0        0
  2  3  1  0        0
  2  4  1  0        0
  1  5  1  0        0
  5  6  1  0        0
  5  7  1  0        0
  5  8  1  0        0
  1  9  1  0        0
M  END
$$$$

CDXL12

 14 14  0  0  0  0  0  0  0  0999 V2000
   -2.1434   -1.2375    0.0000 N   0  0  0  0  0  0  0  2  0  0  0  0
   -1.4289   -0.8250    0.0000 C   0  0  0  0  0  0  0  2  0  0  0  0
   -0.7145   -0.4125    0.0000 C   0  0  0  0  0  0  0  2  0  0  0  0
   -0.7145    0.4125    0.0000 C   0  0  0  0  0  0  0  2  0  0  0  0
    0.0000    0.8250    0.0000 C   0  0  0  0  0  0  0  2  0  0  0  0
    0.7145    0.4125    0.0000 C   0  0  0  0  0  0  0  2  0  0  0  0
    0.7145   -0.4125    0.0000 C   0  0  0  0  0  0  0  2  0  0  0  0
    1.4289   -0.8250    0.0000 C   0  0  0  0  0  0  0  2  0  0  0  0
    2.1434   -1.2375    0.0000 N   0  0  0  0  0  0  0  2  0  0  0  0
    0.0000   -0.8250    0.0000 C   0  0  0  0  0  0  0  2  0  0  0  0
    0.0000   -1.6500    0.0000 Cl  0  0  0  0  0  0  0  2  0  0  0  0
    1.4289    0.8250    0.0000 Cl  0  0  0  0  0  0  0  2  0  0  0  0
    0.0000    1.6500    0.0000 Cl  0  0  0  0  0  0  0  2  0  0  0  0
   -1.4289    0.8250    0.0000 Cl  0  0  0  0  0  0  0  2  0  0  0  0
  1  2  3  0        0
  2  3  1  0        0
  3  4  4  0        0
  4  5  4  0        0
  5  6  4  0        0
  6  7  4  0        0
  7  8  1  0        0
  8  9  3  0        0
  7 10  4  0        0
  3 10  4  0        0
 10 11  1  0        0
  6 12  1  0        0
  5 13  1  0        0
  4 14  1  0        0
M  END
$$$$

CDXL12

 11 11  0  0  0  0  0  0  0  0999 V2000
   -1.7862    0.4678    0.0000 C   0  0  0  0  0  0  0  2  0  0  0  0
   -1.0717    0.0553    0.0000 C   0  0  0  0  0  0  0  2  0  0  0  0
   -1.0717   -0.7697    0.0000 C   0  0  0  0  0  0  0  2  0  0  0  0
   -0.3572   -1.1822    0.0000 C   0  0  0  0  0  0  0  2  0  0  0  0
    0.3572   -0.7697    0.0000 C   0  0  0  0  0  0  0  2  0  0  0  0
    0.3572    0.0553    0.0000 C   0  0  0  0  0  0  0  2  0  0  0  0
   -0.3572    0.4678    0.0000 C   0  0  0  0  0  0  0  2  0  0  0  0
    1.0717    0.4678    0.0000 S   0  0  0  0  0  0  0  2  0  0  0  0
    1.7862    0.8803    0.0000 N   0  0  0  0  0  0  0  2  0  0  0  0
    1.4842   -0.2467    0.0000 O   0  0  0  0  0  0  0  2  0  0  0  0
    0.6592    1.1822    0.0000 O   0  0  0  0  0  0  0  2  0  0  0  0
  1  2  1  0        0
  2  3  4  0        0
  3  4  4  0        0
  4  5  4  0        0
  5  6  4  0        0
  6  7  4  0        0
  2  7  4  0        0
  6  8  1  0        0
  8  9  1  0        0
  8 10  2  0        0
  8 11  2  0        0
M  END
$$$$

CDXL12

 16 17  0  0  0  0  0  0  0  0999 V2000
    2.6112    1.0313    0.0000 C   0  0  0  0  0  0  0  2  0  0  0  0
    1.7862    1.0313    0.0000 N   0  0  0  0  0  0  0  2  0  0  0  0
    2.1987    1.7457    0.0000 Cl  0  0  0  0  0  0  0  2  0  0  0  0
    1.7862    0.2062    0.0000 C   0  0  0  0  0  0  0  2  0  0  0  0
    1.0717   -0.2062    0.0000 C   0  0  0  0  0  0  0  2  0  0  0  0
    0.3572    0.2062    0.0000 C   0  0  0  0  0  0  0  2  0  0  0  0
    0.3572    1.0313    0.0000 C   0  0  0  0  0  0  0  2  0  0  0  0
    1.0717    1.4438    0.0000 C   0  0  0  0  0  0  0  2  0  0  0  0
   -0.3572   -0.2062    0.0000 C   0  0  0  0  0  0  0  2  0  0  0  0
   -0.3572   -1.0312    0.0000 C   0  0  0  0  0  0  0  2  0  0  0  0
   -1.0717   -1.4437    0.0000 C   0  0  0  0  0  0  0  2  0  0  0  0
   -1.7862   -1.0312    0.0000 N   0  0  0  0  0  0  0  2  0  0  0  0
   -2.6112   -1.0312    0.0000 Cl  0  0  0  0  0  0  0  2  0  0  0  0
   -2.1987   -1.7457    0.0000 C   0  0  0  0  0  0  0  2  0  0  0  0
   -1.7862   -0.2062    0.0000 C   0  0  0  0  0  0  0  2  0  0  0  0
   -1.0717    0.2062    0.0000 C   0  0  0  0  0  0  0  2  0  0  0  0
  1  2  1  0        0
  2  3  1  0        0
  2  4  1  0        0
  4  5  1  0        0
  5  6  1  0        0
  6  7  1  0        0
  7  8  1  0        0
  2  8  1  0        0
  6  9  1  0        0
  9 10  1  0        0
 10 11  1  0        0
 11 12  1  0        0
 12 13  1  0        0
 12 14  1  0        0
 12 15  1  0        0
 15 16  1  0        0
  9 16  1  0        0
M  END
$$$$

CDXL12

 16 16  0  0  0  0  0  0  0  0999 V2000
   -0.7145    1.0313    0.0000 C   0  0  0  0  0  0  0  2  0  0  0  0
    0.0000    1.4437    0.0000 C   0  0  0  0  0  0  0  2  0  0  0  0
    0.7145    1.0313    0.0000 N   0  0  0  0  0  0  0  2  0  0  0  0
    1.4289    1.4438    0.0000 C   0  0  0  0  0  0  0  2  0  0  0  0
    2.1434    1.0313    0.0000 C   0  0  0  0  0  0  0  2  0  0  0  0
    0.7145    0.2062    0.0000 C   0  0  0  0  0  0  0  2  0  0  0  0
    1.4289   -0.2062    0.0000 N   0  0  0  0  0  0  0  2  0  0  0  0
    1.4289   -1.0313    0.0000 C   0  0  0  0  0  0  0  2  0  0  0  0
    2.1434   -1.4438    0.0000 Cl  0  0  0  0  0  0  0  2  0  0  0  0
    0.7145   -1.4438    0.0000 N   0  0  0  0  0  0  0  2  0  0  0  0
    0.0000   -1.0313    0.0000 C   0  0  0  0  0  0  0  2  0  0  0  0
   -0.7145   -1.4438    0.0000 N   0  0  0  0  0  0  0  2  0  0  0  0
   -1.4289   -1.0313    0.0000 C   0  0  0  0  0  0  0  2  0  0  0  0
   -1.4289   -0.2062    0.0000 C   0  0  0  0  0  0  0  2  0  0  0  0
   -2.1434   -1.4438    0.0000 C   0  0  0  0  0  0  0  2  0  0  0  0
    0.0000   -0.2062    0.0000 N   0  0  0  0  0  0  0  2  0  0  0  0
  1  2  1  0        0
  2  3  1  0        0
  3  4  1  0        0
  4  5  1  0        0
  3  6  1  0        0
  6  7  4  0        0
  7  8  4  0        0
  8  9  1  0        0
  8 10  4  0        0
 10 11  4  0        0
 11 12  1  0        0
 12 13  1  0        0
 13 14  1  0        0
 13 15  1  0        0
 11 16  4  0        0
  6 16  4  0        0
M  END
$$$$

CDXL12

 15 15  0  0  0  0  0  0  0  0999 V2000
    0.7145   -1.4438    0.0000 N   0  0  0  0  0  0  0  2  0  0  0  0
    0.0000   -1.0313    0.0000 C   0  0  0  0  0  0  0  2  0  0  0  0
    0.0000   -0.2062    0.0000 N   0  0  0  0  0  0  0  2  0  0  0  0
    0.7145    0.2062    0.0000 C   0  0  0  0  0  0  0  2  0  0  0  0
    1.4289   -0.2062    0.0000 N   0  0  0  0  0  0  0  2  0  0  0  0
    1.4289   -1.0313    0.0000 C   0  0  0  0  0  0  0  2  0  0  0  0
    2.1434   -1.4438    0.0000 Cl  0  0  0  0  0  0  0  2  0  0  0  0
    0.7145    1.0313    0.0000 N   0  0  0  0  0  0  0  2  0  0  0  0
    0.0000    1.4437    0.0000 C   0  0  0  0  0  0  0  2  0  0  0  0
   -0.7145    1.0313    0.0000 C   0  0  0  0  0  0  0  2  0  0  0  0
    1.4289    1.4438    0.0000 C   0  0  0  0  0  0  0  2  0  0  0  0
    2.1434    1.0313    0.0000 C   0  0  0  0  0  0  0  2  0  0  0  0
   -0.7145   -1.4438    0.0000 N   0  0  0  0  0  0  0  2  0  0  0  0
   -1.4289   -1.0313    0.0000 C   0  0  0  0  0  0  0  2  0  0  0  0
   -2.1434   -1.4438    0.0000 C   0  0  0  0  0  0  0  2  0  0  0  0
  1  2  4  0        0
  2  3  4  0        0
  3  4  4  0        0
  4  5  4  0        0
  5  6  4  0        0
  1  6  4  0        0
  6  7  1  0        0
  4  8  1  0        0
  8  9  1  0        0
  9 10  1  0        0
  8 11  1  0        0
 11 12  1  0        0
  2 13  1  0        0
 13 14  1  0        0
 14 15  1  0        0
M  END
$$$$

CDXL12

 13 13  0  0  0  0  0  0  0  0999 V2000
    1.4289   -0.4125    0.0000 C   0  0  0  0  0  0  0  2  0  0  0  0
    0.7145   -0.8250    0.0000 O   0  0  0  0  0  0  0  2  0  0  0  0
    0.0000   -0.4125    0.0000 C   0  0  0  0  0  0  0  2  0  0  0  0
   -0.7145   -0.8250    0.0000 C   0  0  0  0  0  0  0  2  0  0  0  0
   -0.7145   -1.6500    0.0000 Cl  0  0  0  0  0  0  0  2  0  0  0  0
   -1.4289   -0.4125    0.0000 C   0  0  0  0  0  0  0  2  0  0  0  0
   -1.4289    0.4125    0.0000 C   0  0  0  0  0  0  0  2  0  0  0  0
   -0.7145    0.8250    0.0000 C   0  0  0  0  0  0  0  2  0  0  0  0
   -0.7145    1.6500    0.0000 Cl  0  0  0  0  0  0  0  2  0  0  0  0
    0.0000    0.4125    0.0000 C   0  0  0  0  0  0  0  2  0  0  0  0
    0.7145    0.8250    0.0000 C   0  0  0  0  0  0  0  2  0  0  0  0
    1.4289    0.4125    0.0000 O   0  0  0  0  0  0  0  2  0  0  0  0
    0.7145    1.6500    0.0000 O   0  0  0  0  0  0  0  2  0  0  0  0
  1  2  1  0        0
  2  3  1  0        0
  3  4  4  0        0
  4  5  1  0        0
  4  6  4  0        0
  6  7  4  0        0
  7  8  4  0        0
  8  9  1  0        0
  8 10  4  0        0
  3 10  4  0        0
 10 11  1  0        0
 11 12  1  0        0
 11 13  2  0        0
M  END
$$$$

CDXL12

 13 13  0  0  0  0  0  0  0  0999 V2000
   -0.3572   -1.6500    0.0000 N   0  0  0  0  0  0  0  2  0  0  0  0
   -0.3572   -0.8250    0.0000 C   0  0  0  0  0  0  0  2  0  0  0  0
   -1.0717   -0.4125    0.0000 C   0  0  0  0  0  0  0  2  0  0  0  0
   -1.7862   -0.8250    0.0000 Cl  0  0  0  0  0  0  0  2  0  0  0  0
   -1.0717    0.4125    0.0000 C   0  0  0  0  0  0  0  2  0  0  0  0
   -1.7862    0.8250    0.0000 Cl  0  0  0  0  0  0  0  2  0  0  0  0
   -0.3572    0.8250    0.0000 N   0  0  0  0  0  0  0  2  0  0  0  0
    0.3572    0.4125    0.0000 C   0  0  0  0  0  0  0  2  0  0  0  0
    1.0717    0.8250    0.0000 C   0  0  0  0  0  0  0  2  0  0  0  0
    1.7862    0.4125    0.0000 O   0  0  0  0  0  0  0  2  0  0  0  0
    1.0717    1.6500    0.0000 O   0  0  0  0  0  0  0  2  0  0  0  0
    0.3572   -0.4125    0.0000 C   0  0  0  0  0  0  0  2  0  0  0  0
    1.0717   -0.8250    0.0000 Cl  0  0  0  0  0  0  0  2  0  0  0  0
  1  2  1  0        0
  2  3  4  0        0
  3  4  1  0        0
  3  5  4  0        0
  5  6  1  0        0
  5  7  4  0        0
  7  8  4  0        0
  8  9  1  0        0
  9 10  1  0        0
  9 11  2  0        0
  8 12  4  0        0
  2 12  4  0        0
 12 13  1  0        0
M  END
$$$$

CDXL12

 20 20  0  0  0  0  0  0  0  0999 V2000
    1.4289    2.4750    0.0000 C   0  0  0  0  0  0  0  2  0  0  0  0
    0.7145    2.0625    0.0000 C   0  0  0  0  0  0  0  2  0  0  0  0
    0.7145    1.2375    0.0000 C   0  0  0  0  0  0  0  2  0  0  0  0
    0.0000    0.8250    0.0000 N   0  0  0  0  0  0  0  2  0  0  0  0
   -0.7145    1.2375    0.0000 C   0  0  0  0  0  0  0  2  0  0  0  0
   -0.7145    2.0625    0.0000 C   0  0  0  0  0  0  0  2  0  0  0  0
   -1.4289    2.4750    0.0000 C   0  0  0  0  0  0  0  2  0  0  0  0
    0.0000    0.0000    0.0000 C   0  0  0  0  0  0  0  2  0  0  0  0
    0.7145   -0.4125    0.0000 C   0  0  0  0  0  0  0  2  0  0  0  0
    0.7145   -1.2375    0.0000 C   0  0  0  0  0  0  0  2  0  0  0  0
    0.0000   -1.6500    0.0000 C   0  0  0  0  0  0  0  2  0  0  0  0
    0.0000   -2.4750    0.0000 C   0  0  0  0  0  0  0  2  0  0  0  0
   -0.7145   -1.2375    0.0000 C   0  0  0  0  0  0  0  2  0  0  0  0
   -0.7145   -0.4125    0.0000 C   0  0  0  0  0  0  0  2  0  0  0  0
   -1.4289    0.0000    0.0000 N   0  0  0  0  0  0  0  2  0  0  0  0
   -1.4289    0.8250    0.0000 O   0  0  0  0  0  0  0  2  0  0  0  0
   -2.1434   -0.4125    0.0000 O   0  0  0  0  0  0  0  2  0  0  0  0
    1.4289    0.0000    0.0000 N   0  0  0  0  0  0  0  2  0  0  0  0
    1.4289    0.8250    0.0000 O   0  0  0  0  0  0  0  2  0  0  0  0
    2.1434   -0.4125    0.0000 O   0  0  0  0  0  0  0  2  0  0  0  0
  1  2  1  0        0
  2  3  1  0        0
  3  4  1  0        0
  4  5  1  0        0
  5  6  1  0        0
  6  7  1  0        0
  4  8  1  0        0
  8  9  4  0        0
  9 10  4  0        0
 10 11  4  0        0
 11 12  1  0        0
 11 13  4  0        0
 13 14  4  0        0
  8 14  4  0        0
 14 15  1  0        0
 15 16  2  0        0
 15 17  2  0        0
  9 18  1  0        0
 18 19  2  0        0
 18 20  2  0        0
M  END
$$$$

CDXL12

 20 20  0  0  0  0  0  0  0  0999 V2000
   -0.8574    1.6500    0.0000 C   0  0  0  0  0  0  0  2  0  0  0  0
   -0.1429    1.2375    0.0000 C   0  0  0  0  0  0  0  2  0  0  0  0
   -0.1429    2.0625    0.0000 C   0  0  0  0  0  0  0  2  0  0  0  0
   -0.8574    0.8250    0.0000 C   0  0  0  0  0  0  0  2  0  0  0  0
    0.5716    0.8250    0.0000 C   0  0  0  0  0  0  0  2  0  0  0  0
    1.2860    1.2375    0.0000 C   0  0  0  0  0  0  0  2  0  0  0  0
    2.0005    0.8250    0.0000 C   0  0  0  0  0  0  0  2  0  0  0  0
    2.7150    1.2375    0.0000 C   0  0  0  0  0  0  0  2  0  0  0  0
    2.0005   -0.0000    0.0000 C   0  0  0  0  0  0  0  2  0  0  0  0
    1.2860   -0.4125    0.0000 C   0  0  0  0  0  0  0  2  0  0  0  0
    1.2860   -1.2375    0.0000 C   0  0  0  0  0  0  0  2  0  0  0  0
    1.2860   -2.0625    0.0000 C   0  0  0  0  0  0  0  2  0  0  0  0
    0.5716   -1.6500    0.0000 C   0  0  0  0  0  0  0  2  0  0  0  0
    2.0005   -1.6500    0.0000 C   0  0  0  0  0  0  0  2  0  0  0  0
    0.5716    0.0000    0.0000 C   0  0  0  0  0  0  0  2  0  0  0  0
   -0.5716   -0.6600    0.0000 O   0  0  0  0  0  0  0  2  0  0  0  0
   -1.2860   -0.2475    0.0000 C   0  0  0  0  0  0  0  2  0  0  0  0
   -1.2860    0.5775    0.0000 O   0  0  0  0  0  0  0  2  0  0  0  0
   -2.0005   -0.6600    0.0000 N   0  0  0  0  0  0  0  2  0  0  0  0
   -2.7150   -0.2475    0.0000 C   0  0  0  0  0  0  0  2  0  0  0  0
  1  2  1  0        0
  2  3  1  0        0
  2  4  1  0        0
  2  5  1  0        0
  5  6  4  0        0
  6  7  4  0        0
  7  8  1  0        0
  7  9  4  0        0
  9 10  4  0        0
 10 11  1  0        0
 11 12  1  0        0
 11 13  1  0        0
 11 14  1  0        0
 10 15  4  0        0
  5 15  4  0        0
 15 16  1  0        0
 16 17  1  0        0
 17 18  2  0        0
 17 19  1  0        0
 19 20  1  0        0
M  END
$$$$

CDXL12

 11 11  0  0  0  0  0  0  0  0999 V2000
    1.4289    0.0000    0.0000 N   0  0  0  0  0  0  0  2  0  0  0  0
    0.7145    0.4125    0.0000 C   0  0  0  0  0  0  0  2  0  0  0  0
    0.7145    1.2375    0.0000 S   0  0  0  0  0  0  0  2  0  0  0  0
   -0.0000    0.0000    0.0000 C   0  0  0  0  0  0  0  2  0  0  0  0
   -0.7145    0.4125    0.0000 C   0  0  0  0  0  0  0  2  0  0  0  0
   -0.7145    1.2375    0.0000 Cl  0  0  0  0  0  0  0  2  0  0  0  0
   -1.4289   -0.0000    0.0000 C   0  0  0  0  0  0  0  2  0  0  0  0
   -1.4289   -0.8250    0.0000 C   0  0  0  0  0  0  0  2  0  0  0  0
   -0.7145   -1.2375    0.0000 C   0  0  0  0  0  0  0  2  0  0  0  0
   -0.0000   -0.8250    0.0000 C   0  0  0  0  0  0  0  2  0  0  0  0
    0.7145   -1.2375    0.0000 Cl  0  0  0  0  0  0  0  2  0  0  0  0
  1  2  1  0        0
  2  3  2  0        0
  2  4  1  0        0
  4  5  4  0        0
  5  6  1  0        0
  5  7  4  0        0
  7  8  4  0        0
  8  9  4  0        0
  9 10  4  0        0
  4 10  4  0        0
 10 11  1  0        0
M  END
$$$$

CDXL12

 14 14  0  0  0  0  0  0  0  0999 V2000
    1.0717    1.8563    0.0000 C   0  0  0  0  0  0  0  2  0  0  0  0
    1.0717    1.0313    0.0000 C   0  0  0  0  0  0  0  2  0  0  0  0
    1.7862    0.6188    0.0000 C   0  0  0  0  0  0  0  2  0  0  0  0
    0.3572    0.6188    0.0000 N   0  0  0  0  0  0  0  2  0  0  0  0
   -0.3572    1.0312    0.0000 C   0  0  0  0  0  0  0  2  0  0  0  0
   -0.3572    1.8563    0.0000 O   0  0  0  0  0  0  0  2  0  0  0  0
   -1.0717    0.6188    0.0000 C   0  0  0  0  0  0  0  2  0  0  0  0
   -1.7862    1.0312    0.0000 Cl  0  0  0  0  0  0  0  2  0  0  0  0
    0.3572   -0.2062    0.0000 C   0  0  0  0  0  0  0  2  0  0  0  0
    1.0717   -0.6188    0.0000 C   0  0  0  0  0  0  0  2  0  0  0  0
    1.0717   -1.4438    0.0000 C   0  0  0  0  0  0  0  2  0  0  0  0
    0.3572   -1.8563    0.0000 C   0  0  0  0  0  0  0  2  0  0  0  0
   -0.3572   -1.4438    0.0000 C   0  0  0  0  0  0  0  2  0  0  0  0
   -0.3572   -0.6188    0.0000 C   0  0  0  0  0  0  0  2  0  0  0  0
  1  2  1  0        0
  2  3  1  0        0
  2  4  1  0        0
  4  5  1  0        0
  5  6  2  0        0
  5  7  1  0        0
  7  8  1  0        0
  4  9  1  0        0
  9 10  4  0        0
 10 11  4  0        0
 11 12  4  0        0
 12 13  4  0        0
 13 14  4  0        0
  9 14  4  0        0
M  END
$$$$

CDXL12

 14 14  0  0  0  0  0  0  0  0999 V2000
   -2.8579   -1.2375    0.0000 Cl  0  0  0  0  0  0  0  2  0  0  0  0
   -2.1434   -0.8250    0.0000 C   0  0  0  0  0  0  0  2  0  0  0  0
   -1.4289   -1.2375    0.0000 C   0  0  0  0  0  0  0  2  0  0  0  0
   -0.7145   -0.8250    0.0000 C   0  0  0  0  0  0  0  2  0  0  0  0
    0.0000   -1.2375    0.0000 Cl  0  0  0  0  0  0  0  2  0  0  0  0
   -0.7145    0.0000    0.0000 C   0  0  0  0  0  0  0  2  0  0  0  0
    0.0000    0.4125    0.0000 O   0  0  0  0  0  0  0  2  0  0  0  0
    0.7145    0.0000    0.0000 C   0  0  0  0  0  0  0  2  0  0  0  0
    1.4289    0.4125    0.0000 C   0  0  0  0  0  0  0  2  0  0  0  0
    1.4289    1.2375    0.0000 O   0  0  0  0  0  0  0  2  0  0  0  0
    2.1434    0.0000    0.0000 O   0  0  0  0  0  0  0  2  0  0  0  0
    2.8579    0.4125    0.0000 C   0  0  0  0  0  0  0  2  0  0  0  0
   -1.4289    0.4125    0.0000 C   0  0  0  0  0  0  0  2  0  0  0  0
   -2.1434    0.0000    0.0000 C   0  0  0  0  0  0  0  2  0  0  0  0
  1  2  1  0        0
  2  3  4  0        0
  3  4  4  0        0
  4  5  1  0        0
  4  6  4  0        0
  6  7  1  0        0
  7  8  1  0        0
  8  9  1  0        0
  9 10  2  0        0
  9 11  1  0        0
 11 12  1  0        0
  6 13  4  0        0
 13 14  4  0        0
  2 14  4  0        0
M  END
$$$$

CDXL12

 16 16  0  0  0  0  0  0  0  0999 V2000
    1.0717    1.2375    0.0000 O   0  0  0  0  0  0  0  2  0  0  0  0
    1.0717    0.4125    0.0000 C   0  0  0  0  0  0  0  2  0  0  0  0
    1.7862    0.0000    0.0000 O   0  0  0  0  0  0  0  2  0  0  0  0
    2.5006    0.4125    0.0000 C   0  0  0  0  0  0  0  2  0  0  0  0
    3.2151    0.0000    0.0000 C   0  0  0  0  0  0  0  2  0  0  0  0
    0.3572    0.0000    0.0000 C   0  0  0  0  0  0  0  2  0  0  0  0
   -0.3572    0.4125    0.0000 O   0  0  0  0  0  0  0  2  0  0  0  0
   -1.0717    0.0000    0.0000 C   0  0  0  0  0  0  0  2  0  0  0  0
   -1.7862    0.4125    0.0000 C   0  0  0  0  0  0  0  2  0  0  0  0
   -2.5006    0.0000    0.0000 C   0  0  0  0  0  0  0  2  0  0  0  0
   -3.2151    0.4125    0.0000 Cl  0  0  0  0  0  0  0  2  0  0  0  0
   -2.5006   -0.8250    0.0000 C   0  0  0  0  0  0  0  2  0  0  0  0
   -3.2151   -1.2375    0.0000 Cl  0  0  0  0  0  0  0  2  0  0  0  0
   -1.7862   -1.2375    0.0000 C   0  0  0  0  0  0  0  2  0  0  0  0
   -1.0717   -0.8250    0.0000 C   0  0  0  0  0  0  0  2  0  0  0  0
   -0.3572   -1.2375    0.0000 Cl  0  0  0  0  0  0  0  2  0  0  0  0
  1  2  2  0        0
  2  3  1  0        0
  3  4  1  0        0
  4  5  1  0        0
  2  6  1  0        0
  6  7  1  0        0
  7  8  1  0        0
  8  9  4  0        0
  9 10  4  0        0
 10 11  1  0        0
 10 12  4  0        0
 12 13  1  0        0
 12 14  4  0        0
 14 15  4  0        0
  8 15  4  0        0
 15 16  1  0        0
M  END
$$$$

CDXL12

 21 21  0  0  0  0  0  0  0  0999 V2000
    5.3585   -0.0000    0.0000 C   0  0  0  0  0  0  0  2  0  0  0  0
    4.6441   -0.4125    0.0000 C   0  0  0  0  0  0  0  2  0  0  0  0
    3.9296   -0.0000    0.0000 C   0  0  0  0  0  0  0  2  0  0  0  0
    3.2151   -0.4125    0.0000 C   0  0  0  0  0  0  0  2  0  0  0  0
    2.5006   -0.0000    0.0000 C   0  0  0  0  0  0  0  2  0  0  0  0
    1.7862   -0.4125    0.0000 C   0  0  0  0  0  0  0  2  0  0  0  0
    1.0717   -0.0000    0.0000 C   0  0  0  0  0  0  0  2  0  0  0  0
    0.3572   -0.4125    0.0000 C   0  0  0  0  0  0  0  2  0  0  0  0
   -0.3572    0.0000    0.0000 O   0  0  0  0  0  0  0  2  0  0  0  0
   -1.0717   -0.4125    0.0000 C   0  0  0  0  0  0  0  2  0  0  0  0
   -1.0717   -1.2375    0.0000 O   0  0  0  0  0  0  0  2  0  0  0  0
   -1.7862   -0.0000    0.0000 C   0  0  0  0  0  0  0  2  0  0  0  0
   -2.5006   -0.4125    0.0000 O   0  0  0  0  0  0  0  2  0  0  0  0
   -3.2151   -0.0000    0.0000 C   0  0  0  0  0  0  0  2  0  0  0  0
   -3.9296   -0.4125    0.0000 C   0  0  0  0  0  0  0  2  0  0  0  0
   -4.6441    0.0000    0.0000 C   0  0  0  0  0  0  0  2  0  0  0  0
   -4.6441    0.8250    0.0000 C   0  0  0  0  0  0  0  2  0  0  0  0
   -5.3585    1.2375    0.0000 Cl  0  0  0  0  0  0  0  2  0  0  0  0
   -3.9296    1.2375    0.0000 C   0  0  0  0  0  0  0  2  0  0  0  0
   -3.2151    0.8250    0.0000 C   0  0  0  0  0  0  0  2  0  0  0  0
   -2.5006    1.2375    0.0000 Cl  0  0  0  0  0  0  0  2  0  0  0  0
  1  2  1  0        0
  2  3  1  0        0
  3  4  1  0        0
  4  5  1  0        0
  5  6  1  0        0
  6  7  1  0        0
  7  8  1  0        0
  8  9  1  0        0
  9 10  1  0        0
 10 11  2  0        0
 10 12  1  0        0
 12 13  1  0        0
 13 14  1  0        0
 14 15  4  0        0
 15 16  4  0        0
 16 17  4  0        0
 17 18  1  0        0
 17 19  4  0        0
 19 20  4  0        0
 14 20  4  0        0
 20 21  1  0        0
M  END
$$$$

CDXL12

 20 20  0  0  0  0  0  0  0  0999 V2000
    5.0013   -0.4125    0.0000 C   0  0  0  0  0  0  0  2  0  0  0  0
    4.2868   -0.0000    0.0000 C   0  0  0  0  0  0  0  2  0  0  0  0
    3.5724   -0.4125    0.0000 C   0  0  0  0  0  0  0  2  0  0  0  0
    2.8579   -0.0000    0.0000 C   0  0  0  0  0  0  0  2  0  0  0  0
    2.1434   -0.4125    0.0000 O   0  0  0  0  0  0  0  2  0  0  0  0
    1.4289   -0.0000    0.0000 C   0  0  0  0  0  0  0  2  0  0  0  0
    0.7145   -0.4125    0.0000 C   0  0  0  0  0  0  0  2  0  0  0  0
   -0.0000   -0.0000    0.0000 O   0  0  0  0  0  0  0  2  0  0  0  0
   -0.7145   -0.4125    0.0000 C   0  0  0  0  0  0  0  2  0  0  0  0
   -0.7145   -1.2375    0.0000 O   0  0  0  0  0  0  0  2  0  0  0  0
   -1.4289    0.0000    0.0000 C   0  0  0  0  0  0  0  2  0  0  0  0
   -2.1434   -0.4125    0.0000 O   0  0  0  0  0  0  0  2  0  0  0  0
   -2.8579   -0.0000    0.0000 C   0  0  0  0  0  0  0  2  0  0  0  0
   -3.5724   -0.4125    0.0000 C   0  0  0  0  0  0  0  2  0  0  0  0
   -4.2868   -0.0000    0.0000 C   0  0  0  0  0  0  0  2  0  0  0  0
   -4.2868    0.8250    0.0000 C   0  0  0  0  0  0  0  2  0  0  0  0
   -5.0013    1.2375    0.0000 Cl  0  0  0  0  0  0  0  2  0  0  0  0
   -3.5724    1.2375    0.0000 C   0  0  0  0  0  0  0  2  0  0  0  0
   -2.8579    0.8250    0.0000 C   0  0  0  0  0  0  0  2  0  0  0  0
   -2.1434    1.2375    0.0000 Cl  0  0  0  0  0  0  0  2  0  0  0  0
  1  2  1  0        0
  2  3  1  0        0
  3  4  1  0        0
  4  5  1  0        0
  5  6  1  0        0
  6  7  1  0        0
  7  8  1  0        0
  8  9  1  0        0
  9 10  2  0        0
  9 11  1  0        0
 11 12  1  0        0
 12 13  1  0        0
 13 14  4  0        0
 14 15  4  0        0
 15 16  4  0        0
 16 17  1  0        0
 16 18  4  0        0
 18 19  4  0        0
 13 19  4  0        0
 19 20  1  0        0
M  END
$$$$

CDXL12

 13 12  0  0  0  0  0  0  0  0999 V2000
    2.8579   -0.8250    0.0000 C   0  0  0  0  0  0  0  2  0  0  0  0
    2.1434   -0.4125    0.0000 C   0  0  0  0  0  0  0  2  0  0  0  0
    1.4289   -0.8250    0.0000 C   0  0  0  0  0  0  0  2  0  0  0  0
    0.7145   -0.4125    0.0000 S   0  0  0  0  0  0  0  2  0  0  0  0
    0.0000   -0.8250    0.0000 C   0  0  0  0  0  0  0  2  0  0  0  0
    0.0000   -1.6500    0.0000 O   0  0  0  0  0  0  0  2  0  0  0  0
   -0.7145   -0.4125    0.0000 N   0  0  0  0  0  0  0  2  0  0  0  0
   -1.4289   -0.8250    0.0000 C   0  0  0  0  0  0  0  2  0  0  0  0
   -2.1434   -0.4125    0.0000 C   0  0  0  0  0  0  0  2  0  0  0  0
   -2.8579   -0.8250    0.0000 C   0  0  0  0  0  0  0  2  0  0  0  0
   -0.7145    0.4125    0.0000 C   0  0  0  0  0  0  0  2  0  0  0  0
   -1.4289    0.8250    0.0000 C   0  0  0  0  0  0  0  2  0  0  0  0
   -1.4289    1.6500    0.0000 C   0  0  0  0  0  0  0  2  0  0  0  0
  1  2  1  0        0
  2  3  1  0        0
  3  4  1  0        0
  4  5  1  0        0
  5  6  2  0        0
  5  7  1  0        0
  7  8  1  0        0
  8  9  1  0        0
  9 10  1  0        0
  7 11  1  0        0
 11 12  1  0        0
 12 13  1  0        0
M  END
$$$$

CDXL12

 11 11  0  0  0  0  0  0  0  0999 V2000
   -0.3572    0.4125    0.0000 N   0  0  0  0  0  0  0  2  0  0  0  0
    0.3572   -0.0000    0.0000 C   0  0  0  0  0  0  0  2  0  0  0  0
    0.3572   -0.8250    0.0000 C   0  0  0  0  0  0  0  2  0  0  0  0
   -0.3572   -1.2375    0.0000 C   0  0  0  0  0  0  0  2  0  0  0  0
   -1.0717   -0.8250    0.0000 C   0  0  0  0  0  0  0  2  0  0  0  0
   -1.0717   -0.0000    0.0000 C   0  0  0  0  0  0  0  2  0  0  0  0
   -1.7862    0.4125    0.0000 Cl  0  0  0  0  0  0  0  2  0  0  0  0
    1.0717    0.4125    0.0000 C   0  0  0  0  0  0  0  2  0  0  0  0
    1.7862    0.8250    0.0000 Cl  0  0  0  0  0  0  0  2  0  0  0  0
    1.0717    1.2375    0.0000 Cl  0  0  0  0  0  0  0  2  0  0  0  0
    1.7862   -0.0000    0.0000 Cl  0  0  0  0  0  0  0  2  0  0  0  0
  1  2  4  0        0
  2  3  4  0        0
  3  4  4  0        0
  4  5  4  0        0
  5  6  4  0        0
  1  6  4  0        0
  6  7  1  0        0
  2  8  1  0        0
  8  9  1  0        0
  8 10  1  0        0
  8 11  1  0        0
M  END
$$$$

CDXL12

 15 15  0  0  0  0  0  0  0  0999 V2000
    2.8579    0.4125    0.0000 K   0  0  0  0  0  0  0  2  0  0  0  0
    2.1434   -0.0000    0.0000 O   0  0  0  0  0  0  0  2  0  0  0  0
    1.4289    0.4125    0.0000 C   0  0  0  0  0  0  0  2  0  0  0  0
    0.7145   -0.0000    0.0000 C   0  0  0  0  0  0  0  2  0  0  0  0
    0.7145   -0.8250    0.0000 C   0  0  0  0  0  0  0  2  0  0  0  0
    0.0000    0.4125    0.0000 O   0  0  0  0  0  0  0  2  0  0  0  0
   -0.7145   -0.0000    0.0000 C   0  0  0  0  0  0  0  2  0  0  0  0
   -0.7145   -0.8250    0.0000 C   0  0  0  0  0  0  0  2  0  0  0  0
    0.0000   -1.2375    0.0000 C   0  0  0  0  0  0  0  2  0  0  0  0
   -1.4289   -1.2375    0.0000 C   0  0  0  0  0  0  0  2  0  0  0  0
   -2.1434   -0.8250    0.0000 C   0  0  0  0  0  0  0  2  0  0  0  0
   -2.8579   -1.2375    0.0000 Cl  0  0  0  0  0  0  0  2  0  0  0  0
   -2.1434   -0.0000    0.0000 C   0  0  0  0  0  0  0  2  0  0  0  0
   -1.4289    0.4125    0.0000 C   0  0  0  0  0  0  0  2  0  0  0  0
    1.4289    1.2375    0.0000 O   0  0  0  0  0  0  0  2  0  0  0  0
  1  2  1  0        0
  2  3  1  0        0
  3  4  1  0        0
  4  5  1  0        0
  4  6  1  0        0
  6  7  1  0        0
  7  8  4  0        0
  8  9  1  0        0
  8 10  4  0        0
 10 11  4  0        0
 11 12  1  0        0
 11 13  4  0        0
 13 14  4  0        0
  7 14  4  0        0
  3 15  2  0        0
M  END
$$$$

CDXL12

 14 15  0  0  0  0  0  0  0  0999 V2000
    2.5867    1.1270    0.0000 C   0  0  0  0  0  0  0  2  0  0  0  0
    2.1742    0.4125    0.0000 N   0  0  0  0  0  0  0  2  0  0  0  0
    1.3492    0.4125    0.0000 C   0  0  0  0  0  0  0  2  0  0  0  0
    0.9367    1.1270    0.0000 O   0  0  0  0  0  0  0  2  0  0  0  0
    0.9367   -0.3020    0.0000 N   0  0  0  0  0  0  0  2  0  0  0  0
    0.1117   -0.3020    0.0000 C   0  0  0  0  0  0  0  2  0  0  0  0
   -0.3732   -0.9694    0.0000 N   0  0  0  0  0  0  0  2  0  0  0  0
   -1.1578   -0.7145    0.0000 C   0  0  0  0  0  0  0  2  0  0  0  0
   -1.8723   -1.1270    0.0000 C   0  0  0  0  0  0  0  2  0  0  0  0
   -2.5867   -0.7145    0.0000 C   0  0  0  0  0  0  0  2  0  0  0  0
   -2.5867    0.1105    0.0000 C   0  0  0  0  0  0  0  2  0  0  0  0
   -1.8723    0.5230    0.0000 C   0  0  0  0  0  0  0  2  0  0  0  0
   -1.1578    0.1105    0.0000 C   0  0  0  0  0  0  0  2  0  0  0  0
   -0.3732    0.3655    0.0000 S   0  0  0  0  0  0  0  2  0  0  0  0
  1  2  1  0        0
  2  3  1  0        0
  3  4  2  0        0
  3  5  1  0        0
  5  6  1  0        0
  6  7  4  0        0
  7  8  4  0        0
  8  9  4  0        0
  9 10  4  0        0
 10 11  4  0        0
 11 12  4  0        0
 12 13  4  0        0
  8 13  4  0        0
 13 14  4  0        0
  6 14  4  0        0
M  END
$$$$

CDXL12

 29 31  0  0  0  0  0  0  0  0999 V2000
    2.8579   -0.6740    0.0000 O   0  0  0  0  0  0  0  2  0  0  0  0
    2.1434   -1.0865    0.0000 C   0  0  0  0  0  0  0  2  0  0  0  0
    2.1434   -1.9115    0.0000 C   0  0  0  0  0  0  0  2  0  0  0  0
    1.4289   -2.3240    0.0000 C   0  0  0  0  0  0  0  2  0  0  0  0
    0.7145   -1.9115    0.0000 C   0  0  0  0  0  0  0  2  0  0  0  0
    0.0000   -2.3240    0.0000 C   0  0  0  0  0  0  0  2  0  0  0  0
   -0.7145   -1.9115    0.0000 C   0  0  0  0  0  0  0  2  0  0  0  0
   -0.7145   -1.0865    0.0000 C   0  0  0  0  0  0  0  2  0  0  0  0
    0.0000   -0.6740    0.0000 C   0  0  0  0  0  0  0  2  0  0  0  0
    0.7145   -1.0865    0.0000 C   0  0  0  0  0  0  0  2  0  0  0  0
    1.4289   -0.6740    0.0000 C   0  0  0  0  0  0  0  2  0  0  0  0
    1.4289    0.1510    0.0000 N   0  0  0  0  0  0  0  2  0  0  0  0
    2.1434    0.5635    0.0000 N   0  0  0  0  0  0  0  2  0  0  0  0
    2.1434    1.3885    0.0000 C   0  0  0  0  0  0  0  2  0  0  0  0
    1.4289    1.8010    0.0000 C   0  0  0  0  0  0  0  2  0  0  0  0
    1.4289    2.6260    0.0000 C   0  0  0  0  0  0  0  2  0  0  0  0
    2.1434    3.0385    0.0000 C   0  0  0  0  0  0  0  2  0  0  0  0
    2.8579    2.6260    0.0000 C   0  0  0  0  0  0  0  2  0  0  0  0
    2.8579    1.8010    0.0000 C   0  0  0  0  0  0  0  2  0  0  0  0
    0.0000    0.1510    0.0000 S   0  0  0  0  0  0  0  2  0  0  0  0
    0.0000    0.9760    0.0000 O   0  0  0  0  0  0  0  2  0  0  0  0
   -0.7145    1.3885    0.0000 Na  0  0  0  0  0  0  0  2  0  0  0  0
    0.8250    0.1510    0.0000 O   0  0  0  0  0  0  0  2  0  0  0  0
   -0.8250    0.1510    0.0000 O   0  0  0  0  0  0  0  2  0  0  0  0
   -1.4289   -2.3240    0.0000 S   0  0  0  0  0  0  0  2  0  0  0  0
   -2.1434   -2.7365    0.0000 O   0  0  0  0  0  0  0  2  0  0  0  0
   -2.8579   -2.3240    0.0000 Na  0  0  0  0  0  0  0  2  0  0  0  0
   -1.8414   -1.6095    0.0000 O   0  0  0  0  0  0  0  2  0  0  0  0
   -1.0164   -3.0385    0.0000 O   0  0  0  0  0  0  0  2  0  0  0  0
  1  2  1  0        0
  2  3  4  0        0
  3  4  4  0        0
  4  5  4  0        0
  5  6  4  0        0
  6  7  4  0        0
  7  8  4  0        0
  8  9  4  0        0
  9 10  4  0        0
  5 10  4  0        0
 10 11  4  0        0
  2 11  4  0        0
 11 12  1  0        0
 12 13  2  0        0
 13 14  1  0        0
 14 15  4  0        0
 15 16  4  0        0
 16 17  4  0        0
 17 18  4  0        0
 18 19  4  0        0
 14 19  4  0        0
  9 20  1  0        0
 20 21  1  0        0
 21 22  1  0        0
 20 23  2  0        0
 20 24  2  0        0
  7 25  1  0        0
 25 26  1  0        0
 26 27  1  0        0
 25 28  2  0        0
 25 29  2  0        0
M  END
$$$$

CDXL12

 16 16  0  0  0  0  0  0  0  0999 V2000
   -1.0717    1.8562    0.0000 O   0  0  0  0  0  0  0  2  0  0  0  0
   -1.0717    1.0312    0.0000 C   0  0  0  0  0  0  0  2  0  0  0  0
   -1.7862    0.6187    0.0000 O   0  0  0  0  0  0  0  2  0  0  0  0
   -2.5006    1.0312    0.0000 C   0  0  0  0  0  0  0  2  0  0  0  0
   -0.3572    0.6187    0.0000 C   0  0  0  0  0  0  0  2  0  0  0  0
   -0.3572   -0.2063    0.0000 C   0  0  0  0  0  0  0  2  0  0  0  0
    0.3572   -0.6188    0.0000 C   0  0  0  0  0  0  0  2  0  0  0  0
    0.3572   -1.4437    0.0000 N   0  0  0  0  0  0  0  2  0  0  0  0
   -0.3572   -1.8562    0.0000 O   0  0  0  0  0  0  0  2  0  0  0  0
    1.0717   -1.8562    0.0000 O   0  0  0  0  0  0  0  2  0  0  0  0
    1.0717   -0.2063    0.0000 C   0  0  0  0  0  0  0  2  0  0  0  0
    1.0717    0.6187    0.0000 C   0  0  0  0  0  0  0  2  0  0  0  0
    1.7862    1.0312    0.0000 C   0  0  0  0  0  0  0  2  0  0  0  0
    1.7862    1.8562    0.0000 O   0  0  0  0  0  0  0  2  0  0  0  0
    2.5006    0.6187    0.0000 O   0  0  0  0  0  0  0  2  0  0  0  0
    0.3572    1.0312    0.0000 C   0  0  0  0  0  0  0  2  0  0  0  0
  1  2  2  0        0
  2  3  1  0        0
  3  4  1  0        0
  2  5  1  0        0
  5  6  4  0        0
  6  7  4  0        0
  7  8  1  0        0
  8  9  2  0        0
  8 10  2  0        0
  7 11  4  0        0
 11 12  4  0        0
 12 13  1  0        0
 13 14  2  0        0
 13 15  1  0        0
 12 16  4  0        0
  5 16  4  0        0
M  END
$$$$

CDXL12

 15 15  0  0  0  0  0  0  0  0999 V2000
    1.7862    0.6187    0.0000 C   0  0  0  0  0  0  0  2  0  0  0  0
    1.7862   -0.2062    0.0000 C   0  0  0  0  0  0  0  2  0  0  0  0
    1.0717   -0.6187    0.0000 O   0  0  0  0  0  0  0  2  0  0  0  0
    0.3572   -0.2062    0.0000 C   0  0  0  0  0  0  0  2  0  0  0  0
    0.3572    0.6187    0.0000 O   0  0  0  0  0  0  0  2  0  0  0  0
   -0.3572   -0.6187    0.0000 N   0  0  0  0  0  0  0  2  0  0  0  0
   -1.0717   -0.2062    0.0000 C   0  0  0  0  0  0  0  2  0  0  0  0
   -1.0717    0.6187    0.0000 C   0  0  0  0  0  0  0  2  0  0  0  0
   -1.7862    1.0312    0.0000 C   0  0  0  0  0  0  0  2  0  0  0  0
   -2.5006    0.6187    0.0000 C   0  0  0  0  0  0  0  2  0  0  0  0
   -2.5006   -0.2062    0.0000 C   0  0  0  0  0  0  0  2  0  0  0  0
   -3.2151   -0.6187    0.0000 Cl  0  0  0  0  0  0  0  2  0  0  0  0
   -1.7862   -0.6187    0.0000 C   0  0  0  0  0  0  0  2  0  0  0  0
    2.5006   -0.6187    0.0000 C   0  0  0  0  0  0  0  2  0  0  0  0
    3.2151   -1.0312    0.0000 C   0  0  0  0  0  0  0  2  0  0  0  0
  1  2  1  0        0
  2  3  1  0        0
  3  4  1  0        0
  4  5  2  0        0
  4  6  1  0        0
  6  7  1  0        0
  7  8  4  0        0
  8  9  4  0        0
  9 10  4  0        0
 10 11  4  0        0
 11 12  1  0        0
 11 13  4  0        0
  7 13  4  0        0
  2 14  1  0        0
 14 15  3  0        0
M  END
$$$$

CDXL12

 20 21  0  0  0  0  0  0  0  0999 V2000
   -3.2151   -1.2375    0.0000 C   0  0  0  0  0  0  0  2  0  0  0  0
   -3.2151   -0.4125    0.0000 N   0  0  0  0  0  0  0  2  0  0  0  0
   -3.9296   -0.0000    0.0000 C   0  0  0  0  0  0  0  2  0  0  0  0
   -2.5006   -0.0000    0.0000 C   0  0  0  0  0  0  0  2  0  0  0  0
   -2.5006    0.8250    0.0000 O   0  0  0  0  0  0  0  2  0  0  0  0
   -1.7862   -0.4125    0.0000 N   0  0  0  0  0  0  0  2  0  0  0  0
   -1.0717   -0.0000    0.0000 C   0  0  0  0  0  0  0  2  0  0  0  0
   -1.0717    0.8250    0.0000 C   0  0  0  0  0  0  0  2  0  0  0  0
   -0.3572    1.2375    0.0000 C   0  0  0  0  0  0  0  2  0  0  0  0
    0.3572    0.8250    0.0000 C   0  0  0  0  0  0  0  2  0  0  0  0
    1.0717    1.2375    0.0000 O   0  0  0  0  0  0  0  2  0  0  0  0
    1.7862    0.8250    0.0000 C   0  0  0  0  0  0  0  2  0  0  0  0
    2.5006    1.2375    0.0000 C   0  0  0  0  0  0  0  2  0  0  0  0
    3.2151    0.8250    0.0000 C   0  0  0  0  0  0  0  2  0  0  0  0
    3.2151   -0.0000    0.0000 C   0  0  0  0  0  0  0  2  0  0  0  0
    3.9296   -0.4125    0.0000 Cl  0  0  0  0  0  0  0  2  0  0  0  0
    2.5006   -0.4125    0.0000 C   0  0  0  0  0  0  0  2  0  0  0  0
    1.7862   -0.0000    0.0000 C   0  0  0  0  0  0  0  2  0  0  0  0
    0.3572   -0.0000    0.0000 C   0  0  0  0  0  0  0  2  0  0  0  0
   -0.3572   -0.4125    0.0000 C   0  0  0  0  0  0  0  2  0  0  0  0
  1  2  1  0        0
  2  3  1  0        0
  2  4  1  0        0
  4  5  2  0        0
  4  6  1  0        0
  6  7  1  0        0
  7  8  4  0        0
  8  9  4  0        0
  9 10  4  0        0
 10 11  1  0        0
 11 12  1  0        0
 12 13  4  0        0
 13 14  4  0        0
 14 15  4  0        0
 15 16  1  0        0
 15 17  4  0        0
 17 18  4  0        0
 12 18  4  0        0
 10 19  4  0        0
 19 20  4  0        0
  7 20  4  0        0
M  END
$$$$

CDXL12

 17 18  0  0  0  0  0  0  0  0999 V2000
    0.7145    0.8250    0.0000 C   0  0  0  0  0  0  0  2  0  0  0  0
    1.4289    0.4125    0.0000 C   0  0  0  0  0  0  0  2  0  0  0  0
    2.1434    0.8250    0.0000 C   0  0  0  0  0  0  0  2  0  0  0  0
    2.8579    0.4125    0.0000 C   0  0  0  0  0  0  0  2  0  0  0  0
    2.8579   -0.4125    0.0000 C   0  0  0  0  0  0  0  2  0  0  0  0
    2.1434   -0.8250    0.0000 C   0  0  0  0  0  0  0  2  0  0  0  0
    1.4289   -0.4125    0.0000 C   0  0  0  0  0  0  0  2  0  0  0  0
    0.7145   -0.8250    0.0000 N   0  0  0  0  0  0  0  2  0  0  0  0
    0.0000   -0.4125    0.0000 C   0  0  0  0  0  0  0  2  0  0  0  0
    0.0000    0.4125    0.0000 O   0  0  0  0  0  0  0  2  0  0  0  0
   -0.7145   -0.8250    0.0000 N   0  0  0  0  0  0  0  2  0  0  0  0
   -1.4289   -0.4125    0.0000 C   0  0  0  0  0  0  0  2  0  0  0  0
   -2.1434   -0.8250    0.0000 C   0  0  0  0  0  0  0  2  0  0  0  0
   -2.8579   -0.4125    0.0000 C   0  0  0  0  0  0  0  2  0  0  0  0
   -2.8579    0.4125    0.0000 C   0  0  0  0  0  0  0  2  0  0  0  0
   -2.1434    0.8250    0.0000 C   0  0  0  0  0  0  0  2  0  0  0  0
   -1.4289    0.4125    0.0000 C   0  0  0  0  0  0  0  2  0  0  0  0
  1  2  1  0        0
  2  3  1  0        0
  3  4  1  0        0
  4  5  1  0        0
  5  6  1  0        0
  6  7  1  0        0
  2  7  1  0        0
  7  8  1  0        0
  8  9  1  0        0
  9 10  2  0        0
  9 11  1  0        0
 11 12  1  0        0
 12 13  4  0        0
 13 14  4  0        0
 14 15  4  0        0
 15 16  4  0        0
 16 17  4  0        0
 12 17  4  0        0
M  END
$$$$

CDXL12

 10 10  0  0  0  0  0  0  0  0999 V2000
   -0.7145   -0.8250    0.0000 C   0  0  0  0  0  0  0  2  0  0  0  0
   -1.4289   -0.4125    0.0000 C   0  0  0  0  0  0  0  2  0  0  0  0
   -1.4289    0.4125    0.0000 C   0  0  0  0  0  0  0  2  0  0  0  0
   -2.1434    0.8250    0.0000 Br  0  0  0  0  0  0  0  2  0  0  0  0
   -0.7145    0.8250    0.0000 C   0  0  0  0  0  0  0  2  0  0  0  0
    0.0000    0.4125    0.0000 C   0  0  0  0  0  0  0  2  0  0  0  0
    0.0000   -0.4125    0.0000 C   0  0  0  0  0  0  0  2  0  0  0  0
    0.7145   -0.8250    0.0000 N   0  0  0  0  0  0  0  2  0  0  0  0
    1.4289   -0.4125    0.0000 C   0  0  0  0  0  0  0  2  0  0  0  0
    2.1434    0.0000    0.0000 S   0  0  0  0  0  0  0  2  0  0  0  0
  1  2  4  0        0
  2  3  4  0        0
  3  4  1  0        0
  3  5  4  0        0
  5  6  4  0        0
  6  7  4  0        0
  1  7  4  0        0
  7  8  1  0        0
  8  9  2  0        0
  9 10  2  0        0
M  END
$$$$

CDXL12

 14 13  0  0  0  0  0  0  0  0999 V2000
    0.3572    1.6500    0.0000 O   0  0  0  0  0  0  0  2  0  0  0  0
    0.3572    0.8250    0.0000 C   0  0  0  0  0  0  0  2  0  0  0  0
   -0.3572    0.4125    0.0000 N   0  0  0  0  0  0  0  2  0  0  0  0
   -1.0717    0.8250    0.0000 C   0  0  0  0  0  0  0  2  0  0  0  0
   -1.7862    0.4125    0.0000 C   0  0  0  0  0  0  0  2  0  0  0  0
   -1.7862   -0.4125    0.0000 C   0  0  0  0  0  0  0  2  0  0  0  0
   -2.5006    0.8250    0.0000 C   0  0  0  0  0  0  0  2  0  0  0  0
   -0.3572   -0.4125    0.0000 C   0  0  0  0  0  0  0  2  0  0  0  0
    0.3572   -0.8250    0.0000 C   0  0  0  0  0  0  0  2  0  0  0  0
    1.0717   -0.4125    0.0000 C   0  0  0  0  0  0  0  2  0  0  0  0
    0.3572   -1.6500    0.0000 C   0  0  0  0  0  0  0  2  0  0  0  0
    1.0717    0.4125    0.0000 S   0  0  0  0  0  0  0  2  0  0  0  0
    1.7862    0.8250    0.0000 C   0  0  0  0  0  0  0  2  0  0  0  0
    2.5006    0.4125    0.0000 C   0  0  0  0  0  0  0  2  0  0  0  0
  1  2  2  0        0
  2  3  1  0        0
  3  4  1  0        0
  4  5  1  0        0
  5  6  1  0        0
  5  7  1  0        0
  3  8  1  0        0
  8  9  1  0        0
  9 10  1  0        0
  9 11  1  0        0
  2 12  1  0        0
 12 13  1  0        0
 13 14  1  0        0
M  END
$$$$

CDXL12

 11 11  0  0  0  0  0  0  0  0999 V2000
    1.4289    0.0000    0.0000 N   0  0  0  0  0  0  0  2  0  0  0  0
    0.7145    0.4125    0.0000 C   0  0  0  0  0  0  0  2  0  0  0  0
    0.7145    1.2375    0.0000 O   0  0  0  0  0  0  0  2  0  0  0  0
   -0.0000    0.0000    0.0000 C   0  0  0  0  0  0  0  2  0  0  0  0
   -0.7145    0.4125    0.0000 C   0  0  0  0  0  0  0  2  0  0  0  0
   -0.7145    1.2375    0.0000 Cl  0  0  0  0  0  0  0  2  0  0  0  0
   -1.4289   -0.0000    0.0000 C   0  0  0  0  0  0  0  2  0  0  0  0
   -1.4289   -0.8250    0.0000 C   0  0  0  0  0  0  0  2  0  0  0  0
   -0.7145   -1.2375    0.0000 C   0  0  0  0  0  0  0  2  0  0  0  0
   -0.0000   -0.8250    0.0000 C   0  0  0  0  0  0  0  2  0  0  0  0
    0.7145   -1.2375    0.0000 Cl  0  0  0  0  0  0  0  2  0  0  0  0
  1  2  1  0        0
  2  3  2  0        0
  2  4  1  0        0
  4  5  4  0        0
  5  6  1  0        0
  5  7  4  0        0
  7  8  4  0        0
  8  9  4  0        0
  9 10  4  0        0
  4 10  4  0        0
 10 11  1  0        0
M  END
$$$$

CDXL12

 11 10  0  0  0  0  0  0  0  0999 V2000
   -3.5724   -0.2062    0.0000 N   0  0  0  0  0  0  0  2  0  0  0  0
   -2.8579    0.2062    0.0000 C   0  0  0  0  0  0  0  2  0  0  0  0
   -2.1434   -0.2062    0.0000 C   0  0  0  0  0  0  0  2  0  0  0  0
   -1.4289    0.2062    0.0000 C   0  0  0  0  0  0  0  2  0  0  0  0
   -0.7145   -0.2062    0.0000 C   0  0  0  0  0  0  0  2  0  0  0  0
    0.0000    0.2062    0.0000 C   0  0  0  0  0  0  0  2  0  0  0  0
    0.7145   -0.2062    0.0000 C   0  0  0  0  0  0  0  2  0  0  0  0
    1.4289    0.2062    0.0000 C   0  0  0  0  0  0  0  2  0  0  0  0
    2.1434   -0.2062    0.0000 C   0  0  0  0  0  0  0  2  0  0  0  0
    2.8579    0.2062    0.0000 C   0  0  0  0  0  0  0  2  0  0  0  0
    3.5724   -0.2062    0.0000 C   0  0  0  0  0  0  0  2  0  0  0  0
  1  2  1  0        0
  2  3  1  0        0
  3  4  1  0        0
  4  5  1  0        0
  5  6  1  0        0
  6  7  1  0        0
  7  8  1  0        0
  8  9  1  0        0
  9 10  1  0        0
 10 11  1  0        0
M  END
$$$$

CDXL12

 15 15  0  0  0  0  0  0  0  0999 V2000
   -2.8579   -0.8250    0.0000 C   0  0  0  0  0  0  0  2  0  0  0  0
   -2.1434   -1.2375    0.0000 N   0  0  0  0  0  0  0  2  0  0  0  0
   -1.4289   -0.8250    0.0000 C   0  0  0  0  0  0  0  2  0  0  0  0
   -1.4289    0.0000    0.0000 O   0  0  0  0  0  0  0  2  0  0  0  0
   -0.7145   -1.2375    0.0000 O   0  0  0  0  0  0  0  2  0  0  0  0
    0.0000   -0.8250    0.0000 C   0  0  0  0  0  0  0  2  0  0  0  0
    0.0000    0.0000    0.0000 C   0  0  0  0  0  0  0  2  0  0  0  0
    0.7145    0.4125    0.0000 C   0  0  0  0  0  0  0  2  0  0  0  0
    1.4289   -0.0000    0.0000 C   0  0  0  0  0  0  0  2  0  0  0  0
    2.1434    0.4125    0.0000 N   0  0  0  0  0  0  0  2  0  0  0  0
    2.1434    1.2375    0.0000 C   0  0  0  0  0  0  0  2  0  0  0  0
    2.8579   -0.0000    0.0000 C   0  0  0  0  0  0  0  2  0  0  0  0
    1.4289   -0.8250    0.0000 C   0  0  0  0  0  0  0  2  0  0  0  0
    2.1434   -1.2375    0.0000 C   0  0  0  0  0  0  0  2  0  0  0  0
    0.7145   -1.2375    0.0000 C   0  0  0  0  0  0  0  2  0  0  0  0
  1  2  1  0        0
  2  3  1  0        0
  3  4  2  0        0
  3  5  1  0        0
  5  6  1  0        0
  6  7  4  0        0
  7  8  4  0        0
  8  9  4  0        0
  9 10  1  0        0
 10 11  1  0        0
 10 12  1  0        0
  9 13  4  0        0
 13 14  1  0        0
 13 15  4  0        0
  6 15  4  0        0
M  END
$$$$

CDXL12

 15 15  0  0  0  0  0  0  0  0999 V2000
   -2.8579   -0.8250    0.0000 C   0  0  0  0  0  0  0  2  0  0  0  0
   -2.1434   -1.2375    0.0000 N   0  0  0  0  0  0  0  2  0  0  0  0
   -1.4289   -0.8250    0.0000 C   0  0  0  0  0  0  0  2  0  0  0  0
   -1.4289    0.0000    0.0000 O   0  0  0  0  0  0  0  2  0  0  0  0
   -0.7145   -1.2375    0.0000 O   0  0  0  0  0  0  0  2  0  0  0  0
    0.0000   -0.8250    0.0000 C   0  0  0  0  0  0  0  2  0  0  0  0
    0.0000    0.0000    0.0000 C   0  0  0  0  0  0  0  2  0  0  0  0
    0.7145    0.4125    0.0000 C   0  0  0  0  0  0  0  2  0  0  0  0
    0.7145    1.2375    0.0000 C   0  0  0  0  0  0  0  2  0  0  0  0
    1.4289   -0.0000    0.0000 C   0  0  0  0  0  0  0  2  0  0  0  0
    2.1434    0.4125    0.0000 S   0  0  0  0  0  0  0  2  0  0  0  0
    2.8579   -0.0000    0.0000 C   0  0  0  0  0  0  0  2  0  0  0  0
    1.4289   -0.8250    0.0000 C   0  0  0  0  0  0  0  2  0  0  0  0
    2.1434   -1.2375    0.0000 C   0  0  0  0  0  0  0  2  0  0  0  0
    0.7145   -1.2375    0.0000 C   0  0  0  0  0  0  0  2  0  0  0  0
  1  2  1  0        0
  2  3  1  0        0
  3  4  2  0        0
  3  5  1  0        0
  5  6  1  0        0
  6  7  4  0        0
  7  8  4  0        0
  8  9  1  0        0
  8 10  4  0        0
 10 11  1  0        0
 11 12  1  0        0
 10 13  4  0        0
 13 14  1  0        0
 13 15  4  0        0
  6 15  4  0        0
M  END
$$$$

CDXL12

 11 11  0  0  0  0  0  0  0  0999 V2000
   -0.3572   -0.0553    0.0000 C   0  0  0  0  0  0  0  2  0  0  0  0
   -1.0717   -0.4678    0.0000 C   0  0  0  0  0  0  0  2  0  0  0  0
   -1.7862   -0.0553    0.0000 C   0  0  0  0  0  0  0  2  0  0  0  0
   -1.7862    0.7697    0.0000 C   0  0  0  0  0  0  0  2  0  0  0  0
   -1.0717    1.1822    0.0000 C   0  0  0  0  0  0  0  2  0  0  0  0
   -0.3572    0.7697    0.0000 C   0  0  0  0  0  0  0  2  0  0  0  0
    0.3572   -0.4678    0.0000 C   0  0  0  0  0  0  0  2  0  0  0  0
    1.0717   -0.0553    0.0000 C   0  0  0  0  0  0  0  2  0  0  0  0
    1.7862   -0.4678    0.0000 C   0  0  0  0  0  0  0  2  0  0  0  0
    0.7697   -1.1822    0.0000 C   0  0  0  0  0  0  0  2  0  0  0  0
   -0.0553   -1.1822    0.0000 C   0  0  0  0  0  0  0  2  0  0  0  0
  1  2  4  0        0
  2  3  4  0        0
  3  4  4  0        0
  4  5  4  0        0
  5  6  4  0        0
  1  6  4  0        0
  1  7  1  0        0
  7  8  1  0        0
  8  9  1  0        0
  7 10  1  0        0
  7 11  1  0        0
M  END
$$$$

CDXL12

 15 14  0  0  0  0  0  0  0  0999 V2000
   -4.2868   -0.6187    0.0000 C   0  0  0  0  0  0  0  2  0  0  0  0
   -3.5724   -0.2062    0.0000 C   0  0  0  0  0  0  0  2  0  0  0  0
   -2.8579   -0.6187    0.0000 O   0  0  0  0  0  0  0  2  0  0  0  0
   -2.1434   -0.2062    0.0000 C   0  0  0  0  0  0  0  2  0  0  0  0
   -2.1434    0.6187    0.0000 O   0  0  0  0  0  0  0  2  0  0  0  0
   -1.4289   -0.6187    0.0000 C   0  0  0  0  0  0  0  2  0  0  0  0
   -0.7145   -0.2062    0.0000 C   0  0  0  0  0  0  0  2  0  0  0  0
    0.0000   -0.6187    0.0000 C   0  0  0  0  0  0  0  2  0  0  0  0
    0.7145   -0.2062    0.0000 C   0  0  0  0  0  0  0  2  0  0  0  0
    1.4289   -0.6187    0.0000 C   0  0  0  0  0  0  0  2  0  0  0  0
    2.1434   -0.2062    0.0000 C   0  0  0  0  0  0  0  2  0  0  0  0
    2.1434    0.6187    0.0000 O   0  0  0  0  0  0  0  2  0  0  0  0
    2.8579   -0.6187    0.0000 O   0  0  0  0  0  0  0  2  0  0  0  0
    3.5724   -0.2062    0.0000 C   0  0  0  0  0  0  0  2  0  0  0  0
    4.2868   -0.6187    0.0000 C   0  0  0  0  0  0  0  2  0  0  0  0
  1  2  1  0        0
  2  3  1  0        0
  3  4  1  0        0
  4  5  2  0        0
  4  6  1  0        0
  6  7  1  0        0
  7  8  1  0        0
  8  9  1  0        0
  9 10  1  0        0
 10 11  1  0        0
 11 12  2  0        0
 11 13  1  0        0
 13 14  1  0        0
 14 15  1  0        0
M  END
$$$$

CDXL12

 16 15  0  0  0  0  0  0  0  0999 V2000
    4.6441    0.2062    0.0000 C   0  0  0  0  0  0  0  2  0  0  0  0
    3.9296   -0.2062    0.0000 C   0  0  0  0  0  0  0  2  0  0  0  0
    3.2151    0.2063    0.0000 O   0  0  0  0  0  0  0  2  0  0  0  0
    2.5006   -0.2062    0.0000 C   0  0  0  0  0  0  0  2  0  0  0  0
    2.5006   -1.0312    0.0000 O   0  0  0  0  0  0  0  2  0  0  0  0
    1.7862    0.2062    0.0000 C   0  0  0  0  0  0  0  2  0  0  0  0
    1.0717   -0.2062    0.0000 C   0  0  0  0  0  0  0  2  0  0  0  0
    0.3572    0.2062    0.0000 C   0  0  0  0  0  0  0  2  0  0  0  0
   -0.3572   -0.2062    0.0000 C   0  0  0  0  0  0  0  2  0  0  0  0
   -1.0717    0.2062    0.0000 C   0  0  0  0  0  0  0  2  0  0  0  0
   -1.7862   -0.2062    0.0000 C   0  0  0  0  0  0  0  2  0  0  0  0
   -2.5006    0.2062    0.0000 C   0  0  0  0  0  0  0  2  0  0  0  0
   -2.5006    1.0312    0.0000 O   0  0  0  0  0  0  0  2  0  0  0  0
   -3.2151   -0.2062    0.0000 O   0  0  0  0  0  0  0  2  0  0  0  0
   -3.9296    0.2062    0.0000 C   0  0  0  0  0  0  0  2  0  0  0  0
   -4.6441   -0.2062    0.0000 C   0  0  0  0  0  0  0  2  0  0  0  0
  1  2  1  0        0
  2  3  1  0        0
  3  4  1  0        0
  4  5  2  0        0
  4  6  1  0        0
  6  7  1  0        0
  7  8  1  0        0
  8  9  1  0        0
  9 10  1  0        0
 10 11  1  0        0
 11 12  1  0        0
 12 13  2  0        0
 12 14  1  0        0
 14 15  1  0        0
 15 16  1  0        0
M  END
$$$$

CDXL12

 14 15  0  0  0  0  0  0  0  0999 V2000
   -0.3572   -1.0313    0.0000 C   0  0  0  0  0  0  0  2  0  0  0  0
   -1.0717   -1.4437    0.0000 C   0  0  0  0  0  0  0  2  0  0  0  0
   -1.7862   -1.0313    0.0000 C   0  0  0  0  0  0  0  2  0  0  0  0
   -1.7862   -0.2062    0.0000 C   0  0  0  0  0  0  0  2  0  0  0  0
   -2.5006    0.2062    0.0000 Cl  0  0  0  0  0  0  0  2  0  0  0  0
   -1.0717    0.2062    0.0000 C   0  0  0  0  0  0  0  2  0  0  0  0
   -0.3572   -0.2062    0.0000 C   0  0  0  0  0  0  0  2  0  0  0  0
    0.3572    0.2062    0.0000 C   0  0  0  0  0  0  0  2  0  0  0  0
    1.0717   -0.2063    0.0000 C   0  0  0  0  0  0  0  2  0  0  0  0
    1.7862    0.2062    0.0000 C   0  0  0  0  0  0  0  2  0  0  0  0
    2.5006   -0.2063    0.0000 Cl  0  0  0  0  0  0  0  2  0  0  0  0
    1.7862    1.0312    0.0000 C   0  0  0  0  0  0  0  2  0  0  0  0
    1.0717    1.4437    0.0000 C   0  0  0  0  0  0  0  2  0  0  0  0
    0.3572    1.0312    0.0000 C   0  0  0  0  0  0  0  2  0  0  0  0
  1  2  4  0        0
  2  3  4  0        0
  3  4  4  0        0
  4  5  1  0        0
  4  6  4  0        0
  6  7  4  0        0
  1  7  4  0        0
  7  8  1  0        0
  8  9  4  0        0
  9 10  4  0        0
 10 11  1  0        0
 10 12  4  0        0
 12 13  4  0        0
 13 14  4  0        0
  8 14  4  0        0
M  END
$$$$

CDXL12

 12 13  0  0  0  0  0  0  0  0999 V2000
    0.0000   -0.8250    0.0000 C   0  0  0  0  0  0  0  2  0  0  0  0
    0.0000    0.0000    0.0000 C   0  0  0  0  0  0  0  2  0  0  0  0
    0.7145    0.4125    0.0000 C   0  0  0  0  0  0  0  2  0  0  0  0
    1.4289    0.0000    0.0000 C   0  0  0  0  0  0  0  2  0  0  0  0
    1.4289   -0.8250    0.0000 C   0  0  0  0  0  0  0  2  0  0  0  0
    0.7145   -1.2375    0.0000 C   0  0  0  0  0  0  0  2  0  0  0  0
    0.7145    1.2375    0.0000 Cl  0  0  0  0  0  0  0  2  0  0  0  0
   -0.7145    0.4125    0.0000 C   0  0  0  0  0  0  0  2  0  0  0  0
   -1.4289   -0.0000    0.0000 C   0  0  0  0  0  0  0  2  0  0  0  0
   -1.4289   -0.8250    0.0000 C   0  0  0  0  0  0  0  2  0  0  0  0
   -0.7145   -1.2375    0.0000 C   0  0  0  0  0  0  0  2  0  0  0  0
   -0.7145    1.2375    0.0000 Cl  0  0  0  0  0  0  0  2  0  0  0  0
  1  2  4  0        0
  2  3  4  0        0
  3  4  4  0        0
  4  5  4  0        0
  5  6  4  0        0
  1  6  4  0        0
  3  7  1  0        0
  2  8  4  0        0
  8  9  4  0        0
  9 10  4  0        0
 10 11  4  0        0
  1 11  4  0        0
  8 12  1  0        0
M  END
$$$$

CDXL12

 12 13  0  0  0  0  0  0  0  0999 V2000
   -0.3572   -0.4125    0.0000 C   0  0  0  0  0  0  0  2  0  0  0  0
   -0.3572    0.4125    0.0000 C   0  0  0  0  0  0  0  2  0  0  0  0
   -1.0717    0.8250    0.0000 C   0  0  0  0  0  0  0  2  0  0  0  0
   -1.7862    0.4125    0.0000 C   0  0  0  0  0  0  0  2  0  0  0  0
   -1.7862   -0.4125    0.0000 C   0  0  0  0  0  0  0  2  0  0  0  0
   -1.0717   -0.8250    0.0000 C   0  0  0  0  0  0  0  2  0  0  0  0
    0.3572    0.8250    0.0000 C   0  0  0  0  0  0  0  2  0  0  0  0
    1.0717    0.4125    0.0000 C   0  0  0  0  0  0  0  2  0  0  0  0
    1.0717   -0.4125    0.0000 C   0  0  0  0  0  0  0  2  0  0  0  0
    1.7862   -0.8250    0.0000 Cl  0  0  0  0  0  0  0  2  0  0  0  0
    0.3572   -0.8250    0.0000 C   0  0  0  0  0  0  0  2  0  0  0  0
    1.7862    0.8250    0.0000 Cl  0  0  0  0  0  0  0  2  0  0  0  0
  1  2  4  0        0
  2  3  4  0        0
  3  4  4  0        0
  4  5  4  0        0
  5  6  4  0        0
  1  6  4  0        0
  2  7  4  0        0
  7  8  4  0        0
  8  9  4  0        0
  9 10  1  0        0
  9 11  4  0        0
  1 11  4  0        0
  8 12  1  0        0
M  END
$$$$

CDXL12

 13 14  0  0  0  0  0  0  0  0999 V2000
    0.3572   -1.4438    0.0000 Cl  0  0  0  0  0  0  0  2  0  0  0  0
   -0.3572   -1.0313    0.0000 C   0  0  0  0  0  0  0  2  0  0  0  0
   -1.0717   -1.4437    0.0000 C   0  0  0  0  0  0  0  2  0  0  0  0
   -1.7862   -1.0313    0.0000 C   0  0  0  0  0  0  0  2  0  0  0  0
   -1.7862   -0.2062    0.0000 C   0  0  0  0  0  0  0  2  0  0  0  0
   -1.0717    0.2062    0.0000 C   0  0  0  0  0  0  0  2  0  0  0  0
   -0.3572   -0.2062    0.0000 C   0  0  0  0  0  0  0  2  0  0  0  0
    0.3572    0.2062    0.0000 C   0  0  0  0  0  0  0  2  0  0  0  0
    0.3572    1.0313    0.0000 C   0  0  0  0  0  0  0  2  0  0  0  0
    1.0717    1.4438    0.0000 C   0  0  0  0  0  0  0  2  0  0  0  0
    1.7862    1.0313    0.0000 C   0  0  0  0  0  0  0  2  0  0  0  0
    1.7862    0.2062    0.0000 C   0  0  0  0  0  0  0  2  0  0  0  0
    1.0717   -0.2062    0.0000 C   0  0  0  0  0  0  0  2  0  0  0  0
  1  2  1  0        0
  2  3  4  0        0
  3  4  4  0        0
  4  5  4  0        0
  5  6  4  0        0
  6  7  4  0        0
  2  7  4  0        0
  7  8  1  0        0
  8  9  4  0        0
  9 10  4  0        0
 10 11  4  0        0
 11 12  4  0        0
 12 13  4  0        0
  8 13  4  0        0
M  END
$$$$

CDXL12

 13 14  0  0  0  0  0  0  0  0999 V2000
    2.1434    1.4437    0.0000 Cl  0  0  0  0  0  0  0  2  0  0  0  0
    1.4289    1.0312    0.0000 C   0  0  0  0  0  0  0  2  0  0  0  0
    1.4289    0.2062    0.0000 C   0  0  0  0  0  0  0  2  0  0  0  0
    0.7145   -0.2062    0.0000 C   0  0  0  0  0  0  0  2  0  0  0  0
    0.0000    0.2062    0.0000 C   0  0  0  0  0  0  0  2  0  0  0  0
    0.0000    1.0312    0.0000 C   0  0  0  0  0  0  0  2  0  0  0  0
    0.7145    1.4437    0.0000 C   0  0  0  0  0  0  0  2  0  0  0  0
   -0.7145   -0.2062    0.0000 C   0  0  0  0  0  0  0  2  0  0  0  0
   -0.7145   -1.0312    0.0000 C   0  0  0  0  0  0  0  2  0  0  0  0
   -1.4289   -1.4437    0.0000 C   0  0  0  0  0  0  0  2  0  0  0  0
   -2.1434   -1.0312    0.0000 C   0  0  0  0  0  0  0  2  0  0  0  0
   -2.1434   -0.2062    0.0000 C   0  0  0  0  0  0  0  2  0  0  0  0
   -1.4289    0.2062    0.0000 C   0  0  0  0  0  0  0  2  0  0  0  0
  1  2  1  0        0
  2  3  4  0        0
  3  4  4  0        0
  4  5  4  0        0
  5  6  4  0        0
  6  7  4  0        0
  2  7  4  0        0
  5  8  1  0        0
  8  9  4  0        0
  9 10  4  0        0
 10 11  4  0        0
 11 12  4  0        0
 12 13  4  0        0
  8 13  4  0        0
M  END
$$$$

CDXL12

 12 13  0  0  0  0  0  0  0  0999 V2000
    0.0000    0.4125    0.0000 C   0  0  0  0  0  0  0  2  0  0  0  0
    0.0000   -0.4125    0.0000 C   0  0  0  0  0  0  0  2  0  0  0  0
    0.7145   -0.8250    0.0000 C   0  0  0  0  0  0  0  2  0  0  0  0
    1.4289   -0.4125    0.0000 C   0  0  0  0  0  0  0  2  0  0  0  0
    1.4289    0.4125    0.0000 C   0  0  0  0  0  0  0  2  0  0  0  0
    2.1434    0.8250    0.0000 Cl  0  0  0  0  0  0  0  2  0  0  0  0
    0.7145    0.8250    0.0000 C   0  0  0  0  0  0  0  2  0  0  0  0
   -0.7145   -0.8250    0.0000 C   0  0  0  0  0  0  0  2  0  0  0  0
   -1.4289   -0.4125    0.0000 C   0  0  0  0  0  0  0  2  0  0  0  0
   -1.4289    0.4125    0.0000 C   0  0  0  0  0  0  0  2  0  0  0  0
   -0.7145    0.8250    0.0000 C   0  0  0  0  0  0  0  2  0  0  0  0
   -2.1434   -0.8250    0.0000 Cl  0  0  0  0  0  0  0  2  0  0  0  0
  1  2  4  0        0
  2  3  4  0        0
  3  4  4  0        0
  4  5  4  0        0
  5  6  1  0        0
  5  7  4  0        0
  1  7  4  0        0
  2  8  4  0        0
  8  9  4  0        0
  9 10  4  0        0
 10 11  4  0        0
  1 11  4  0        0
  9 12  1  0        0
M  END
$$$$

CDXL12

 15 16  0  0  0  0  0  0  0  0999 V2000
   -1.7862   -0.2063    0.0000 C   0  0  0  0  0  0  0  2  0  0  0  0
   -2.5006    0.2062    0.0000 C   0  0  0  0  0  0  0  2  0  0  0  0
   -2.5006    1.0312    0.0000 C   0  0  0  0  0  0  0  2  0  0  0  0
   -1.7862    1.4437    0.0000 C   0  0  0  0  0  0  0  2  0  0  0  0
   -1.0717    1.0312    0.0000 C   0  0  0  0  0  0  0  2  0  0  0  0
   -1.0717    0.2062    0.0000 C   0  0  0  0  0  0  0  2  0  0  0  0
   -0.3572   -0.2063    0.0000 C   0  0  0  0  0  0  0  2  0  0  0  0
    0.3572    0.2062    0.0000 C   0  0  0  0  0  0  0  2  0  0  0  0
    1.0717   -0.2063    0.0000 C   0  0  0  0  0  0  0  2  0  0  0  0
    1.7862    0.2062    0.0000 N   0  0  0  0  0  0  0  2  0  0  0  0
    1.7862    1.0312    0.0000 O   0  0  0  0  0  0  0  2  0  0  0  0
    2.5006   -0.2063    0.0000 O   0  0  0  0  0  0  0  2  0  0  0  0
    1.0717   -1.0313    0.0000 C   0  0  0  0  0  0  0  2  0  0  0  0
    0.3572   -1.4437    0.0000 C   0  0  0  0  0  0  0  2  0  0  0  0
   -0.3572   -1.0313    0.0000 C   0  0  0  0  0  0  0  2  0  0  0  0
  1  2  4  0        0
  2  3  4  0        0
  3  4  4  0        0
  4  5  4  0        0
  5  6  4  0        0
  1  6  4  0        0
  6  7  1  0        0
  7  8  4  0        0
  8  9  4  0        0
  9 10  1  0        0
 10 11  2  0        0
 10 12  2  0        0
  9 13  4  0        0
 13 14  4  0        0
 14 15  4  0        0
  7 15  4  0        0
M  END
$$$$

CDXL12

 22 22  0  0  0  0  0  0  0  0999 V2000
   -2.3578   -0.4125    0.0000 C   0  0  0  0  0  0  0  2  0  0  0  0
   -1.6433   -0.0000    0.0000 Si  0  0  0  0  0  0  0  2  0  0  0  0
   -0.9288   -0.4125    0.0000 O   0  0  0  0  0  0  0  2  0  0  0  0
   -0.2143    0.0000    0.0000 Si  0  0  0  0  0  0  0  2  0  0  0  0
    0.1982   -0.7145    0.0000 C   0  0  0  0  0  0  0  2  0  0  0  0
    1.0232   -0.7145    0.0000 C   0  0  0  0  0  0  0  2  0  0  0  0
    1.4357   -1.4289    0.0000 C   0  0  0  0  0  0  0  2  0  0  0  0
    1.0232   -2.1434    0.0000 C   0  0  0  0  0  0  0  2  0  0  0  0
    0.1982   -2.1434    0.0000 C   0  0  0  0  0  0  0  2  0  0  0  0
   -0.2143   -1.4289    0.0000 C   0  0  0  0  0  0  0  2  0  0  0  0
    0.9288    0.6600    0.0000 O   0  0  0  0  0  0  0  2  0  0  0  0
    1.6433    0.2475    0.0000 Si  0  0  0  0  0  0  0  2  0  0  0  0
    1.6433   -0.5775    0.0000 C   0  0  0  0  0  0  0  2  0  0  0  0
    2.3578   -0.1650    0.0000 C   0  0  0  0  0  0  0  2  0  0  0  0
    2.3578    0.6600    0.0000 C   0  0  0  0  0  0  0  2  0  0  0  0
   -0.6268    0.7145    0.0000 O   0  0  0  0  0  0  0  2  0  0  0  0
   -0.2143    1.4289    0.0000 Si  0  0  0  0  0  0  0  2  0  0  0  0
    0.6107    1.4289    0.0000 C   0  0  0  0  0  0  0  2  0  0  0  0
    0.1982    2.1434    0.0000 C   0  0  0  0  0  0  0  2  0  0  0  0
   -0.6268    2.1434    0.0000 C   0  0  0  0  0  0  0  2  0  0  0  0
   -1.6433    0.8250    0.0000 C   0  0  0  0  0  0  0  2  0  0  0  0
   -2.3578    0.4125    0.0000 C   0  0  0  0  0  0  0  2  0  0  0  0
  1  2  1  0        0
  2  3  1  0        0
  3  4  1  0        0
  4  5  1  0        0
  5  6  4  0        0
  6  7  4  0        0
  7  8  4  0        0
  8  9  4  0        0
  9 10  4  0        0
  5 10  4  0        0
  4 11  1  0        0
 11 12  1  0        0
 12 13  1  0        0
 12 14  1  0        0
 12 15  1  0        0
  4 16  1  0        0
 16 17  1  0        0
 17 18  1  0        0
 17 19  1  0        0
 17 20  1  0        0
  2 21  1  0        0
  2 22  1  0        0
M  END
$$$$

CDXL12

 13 14  0  0  0  0  0  0  0  0999 V2000
    0.7145    1.6500    0.0000 C   0  0  0  0  0  0  0  2  0  0  0  0
    0.7145    0.8250    0.0000 C   0  0  0  0  0  0  0  2  0  0  0  0
    1.4289    0.4125    0.0000 C   0  0  0  0  0  0  0  2  0  0  0  0
    1.4289   -0.4125    0.0000 C   0  0  0  0  0  0  0  2  0  0  0  0
    0.7145   -0.8250    0.0000 C   0  0  0  0  0  0  0  2  0  0  0  0
    0.7145   -1.6500    0.0000 C   0  0  0  0  0  0  0  2  0  0  0  0
    0.0000   -0.4125    0.0000 C   0  0  0  0  0  0  0  2  0  0  0  0
   -0.7145   -0.8250    0.0000 C   0  0  0  0  0  0  0  2  0  0  0  0
   -0.7145   -1.6500    0.0000 C   0  0  0  0  0  0  0  2  0  0  0  0
   -1.4289   -0.4125    0.0000 C   0  0  0  0  0  0  0  2  0  0  0  0
   -1.4289    0.4125    0.0000 C   0  0  0  0  0  0  0  2  0  0  0  0
   -0.7145    0.8250    0.0000 C   0  0  0  0  0  0  0  2  0  0  0  0
    0.0000    0.4125    0.0000 C   0  0  0  0  0  0  0  2  0  0  0  0
  1  2  1  0        0
  2  3  4  0        0
  3  4  4  0        0
  4  5  4  0        0
  5  6  1  0        0
  5  7  4  0        0
  7  8  4  0        0
  8  9  1  0        0
  8 10  4  0        0
 10 11  4  0        0
 11 12  4  0        0
 12 13  4  0        0
  2 13  4  0        0
  7 13  4  0        0
M  END
$$$$

CDXL12

 29 32  0  0  0  0  0  0  0  0999 V2000
   -3.5411   -1.6320    0.0000 O   0  0  0  0  0  0  0  2  0  0  0  0
   -2.8267   -1.2195    0.0000 C   0  0  0  0  0  0  0  2  0  0  0  0
   -2.1122   -1.6320    0.0000 C   0  0  0  0  0  0  0  2  0  0  0  0
   -1.3977   -1.2195    0.0000 C   0  0  0  0  0  0  0  2  0  0  0  0
   -0.6832   -1.6320    0.0000 C   0  0  0  0  0  0  0  2  0  0  0  0
   -0.6832   -2.4570    0.0000 F   0  0  0  0  0  0  0  2  0  0  0  0
    0.0312   -1.2195    0.0000 C   0  0  0  0  0  0  0  2  0  0  0  0
    0.0312   -0.3945    0.0000 C   0  0  0  0  0  0  0  2  0  0  0  0
    0.7457    0.0180    0.0000 C   0  0  0  0  0  0  0  2  0  0  0  0
    1.5303   -0.2369    0.0000 C   0  0  0  0  0  0  0  2  0  0  0  0
    2.0152    0.4305    0.0000 C   0  0  0  0  0  0  0  2  0  0  0  0
    2.8402    0.4305    0.0000 C   0  0  0  0  0  0  0  2  0  0  0  0
    1.5303    1.0980    0.0000 C   0  0  0  0  0  0  0  2  0  0  0  0
    1.3588    1.9049    0.0000 O   0  0  0  0  0  0  0  2  0  0  0  0
    2.1434    1.6500    0.0000 C   0  0  0  0  0  0  0  2  0  0  0  0
    1.9719    2.4570    0.0000 O   0  0  0  0  0  0  0  2  0  0  0  0
    2.9280    1.3951    0.0000 C   0  0  0  0  0  0  0  2  0  0  0  0
    3.5411    1.9471    0.0000 O   0  0  0  0  0  0  0  2  0  0  0  0
    0.7457    0.8430    0.0000 C   0  0  0  0  0  0  0  2  0  0  0  0
    0.8319    1.6635    0.0000 C   0  0  0  0  0  0  0  2  0  0  0  0
    0.0312    1.2555    0.0000 C   0  0  0  0  0  0  0  2  0  0  0  0
   -0.6832    0.8430    0.0000 C   0  0  0  0  0  0  0  2  0  0  0  0
   -1.3977    1.2555    0.0000 O   0  0  0  0  0  0  0  2  0  0  0  0
   -0.6832    0.0180    0.0000 C   0  0  0  0  0  0  0  2  0  0  0  0
   -0.6832   -0.8070    0.0000 F   0  0  0  0  0  0  0  2  0  0  0  0
   -1.3977   -0.3945    0.0000 C   0  0  0  0  0  0  0  2  0  0  0  0
   -1.3977    0.4305    0.0000 C   0  0  0  0  0  0  0  2  0  0  0  0
   -2.1122    0.0180    0.0000 C   0  0  0  0  0  0  0  2  0  0  0  0
   -2.8267   -0.3945    0.0000 C   0  0  0  0  0  0  0  2  0  0  0  0
  1  2  2  0        0
  2  3  1  0        0
  3  4  2  0        0
  4  5  1  0        0
  5  6  1  0        0
  5  7  1  0        0
  7  8  1  0        0
  8  9  1  0        0
  9 10  1  0        0
 10 11  1  0        0
 11 12  1  0        0
 11 13  1  0        0
 13 14  1  0        0
 13 15  1  0        0
 15 16  2  0        0
 15 17  1  0        0
 17 18  1  0        0
 13 19  1  0        0
  9 19  1  0        0
 19 20  1  0        0
 19 21  1  0        0
 21 22  1  0        0
 22 23  1  0        0
 22 24  1  0        0
  8 24  1  0        0
 24 25  1  0        0
 24 26  1  0        0
  4 26  1  0        0
 26 27  1  0        0
 26 28  1  0        0
 28 29  2  0        0
  2 29  1  0        0
M  END
$$$$

CDXL12

 20 21  0  0  0  0  0  0  0  0999 V2000
   -2.5006   -0.2062    0.0000 Cl  0  0  0  0  0  0  0  2  0  0  0  0
   -1.7862    0.2062    0.0000 C   0  0  0  0  0  0  0  2  0  0  0  0
   -1.7862    1.0313    0.0000 C   0  0  0  0  0  0  0  2  0  0  0  0
   -1.0717    1.4438    0.0000 C   0  0  0  0  0  0  0  2  0  0  0  0
   -1.0717    2.2687    0.0000 Cl  0  0  0  0  0  0  0  2  0  0  0  0
   -0.3572    1.0312    0.0000 C   0  0  0  0  0  0  0  2  0  0  0  0
    0.3572    1.4437    0.0000 Cl  0  0  0  0  0  0  0  2  0  0  0  0
   -0.3572    0.2062    0.0000 C   0  0  0  0  0  0  0  2  0  0  0  0
   -1.0717   -0.2062    0.0000 C   0  0  0  0  0  0  0  2  0  0  0  0
   -1.0717   -1.0312    0.0000 Cl  0  0  0  0  0  0  0  2  0  0  0  0
    0.3572   -0.2062    0.0000 C   0  0  0  0  0  0  0  2  0  0  0  0
    1.0717    0.2062    0.0000 C   0  0  0  0  0  0  0  2  0  0  0  0
    1.0717    1.0313    0.0000 Cl  0  0  0  0  0  0  0  2  0  0  0  0
    1.7862   -0.2062    0.0000 C   0  0  0  0  0  0  0  2  0  0  0  0
    2.5006    0.2062    0.0000 Cl  0  0  0  0  0  0  0  2  0  0  0  0
    1.7862   -1.0313    0.0000 C   0  0  0  0  0  0  0  2  0  0  0  0
    1.0717   -1.4438    0.0000 C   0  0  0  0  0  0  0  2  0  0  0  0
    1.0717   -2.2687    0.0000 Cl  0  0  0  0  0  0  0  2  0  0  0  0
    0.3572   -1.0313    0.0000 C   0  0  0  0  0  0  0  2  0  0  0  0
   -0.3572   -1.4438    0.0000 Cl  0  0  0  0  0  0  0  2  0  0  0  0
  1  2  1  0        0
  2  3  4  0        0
  3  4  4  0        0
  4  5  1  0        0
  4  6  4  0        0
  6  7  1  0        0
  6  8  4  0        0
  8  9  4  0        0
  2  9  4  0        0
  9 10  1  0        0
  8 11  1  0        0
 11 12  4  0        0
 12 13  1  0        0
 12 14  4  0        0
 14 15  1  0        0
 14 16  4  0        0
 16 17  4  0        0
 17 18  1  0        0
 17 19  4  0        0
 11 19  4  0        0
 19 20  1  0        0
M  END
$$$$

CDXL12

 12 11  0  0  0  0  0  0  0  0999 V2000
    3.9296    0.2062    0.0000 Cl  0  0  0  0  0  0  0  2  0  0  0  0
    3.2151   -0.2062    0.0000 C   0  0  0  0  0  0  0  2  0  0  0  0
    2.5006    0.2062    0.0000 C   0  0  0  0  0  0  0  2  0  0  0  0
    1.7862   -0.2062    0.0000 C   0  0  0  0  0  0  0  2  0  0  0  0
    1.0717    0.2062    0.0000 C   0  0  0  0  0  0  0  2  0  0  0  0
    0.3572   -0.2062    0.0000 C   0  0  0  0  0  0  0  2  0  0  0  0
   -0.3572    0.2062    0.0000 C   0  0  0  0  0  0  0  2  0  0  0  0
   -1.0717   -0.2062    0.0000 C   0  0  0  0  0  0  0  2  0  0  0  0
   -1.7862    0.2062    0.0000 C   0  0  0  0  0  0  0  2  0  0  0  0
   -2.5006   -0.2062    0.0000 C   0  0  0  0  0  0  0  2  0  0  0  0
   -3.2151    0.2062    0.0000 C   0  0  0  0  0  0  0  2  0  0  0  0
   -3.9296   -0.2062    0.0000 Cl  0  0  0  0  0  0  0  2  0  0  0  0
  1  2  1  0        0
  2  3  1  0        0
  3  4  1  0        0
  4  5  1  0        0
  5  6  1  0        0
  6  7  1  0        0
  7  8  1  0        0
  8  9  1  0        0
  9 10  1  0        0
 10 11  1  0        0
 11 12  1  0        0
M  END
$$$$

CDXL12

 14 14  0  0  0  0  0  0  0  0999 V2000
    2.8579   -1.2375    0.0000 C   0  0  0  0  0  0  0  2  0  0  0  0
    2.1434   -0.8250    0.0000 C   0  0  0  0  0  0  0  2  0  0  0  0
    1.4289   -1.2375    0.0000 N   0  0  0  0  0  0  0  2  0  0  0  0
    0.7145   -0.8250    0.0000 C   0  0  0  0  0  0  0  2  0  0  0  0
    0.7145    0.0000    0.0000 N   0  0  0  0  0  0  0  2  0  0  0  0
    0.0000    0.4125    0.0000 C   0  0  0  0  0  0  0  2  0  0  0  0
    0.0000    1.2375    0.0000 O   0  0  0  0  0  0  0  2  0  0  0  0
   -0.7145   -0.0000    0.0000 N   0  0  0  0  0  0  0  2  0  0  0  0
   -0.7145   -0.8250    0.0000 C   0  0  0  0  0  0  0  2  0  0  0  0
   -1.4289   -1.2375    0.0000 N   0  0  0  0  0  0  0  2  0  0  0  0
   -2.1434   -0.8250    0.0000 C   0  0  0  0  0  0  0  2  0  0  0  0
   -2.1434   -0.0000    0.0000 C   0  0  0  0  0  0  0  2  0  0  0  0
   -2.8579   -1.2375    0.0000 C   0  0  0  0  0  0  0  2  0  0  0  0
    0.0000   -1.2375    0.0000 N   0  0  0  0  0  0  0  2  0  0  0  0
  1  2  1  0        0
  2  3  1  0        0
  3  4  1  0        0
  4  5  4  0        0
  5  6  4  0        0
  6  7  1  0        0
  6  8  4  0        0
  8  9  4  0        0
  9 10  1  0        0
 10 11  1  0        0
 11 12  1  0        0
 11 13  1  0        0
  9 14  4  0        0
  4 14  4  0        0
M  END
$$$$

CDXL12

 14 14  0  0  0  0  0  0  0  0999 V2000
   -1.7018   -1.4088    0.0000 C   0  0  0  0  0  0  0  2  0  0  0  0
   -1.7018   -0.5838    0.0000 N   0  0  0  0  0  0  0  2  0  0  0  0
   -2.4163   -0.1713    0.0000 C   0  0  0  0  0  0  0  2  0  0  0  0
   -0.9873   -0.1713    0.0000 C   0  0  0  0  0  0  0  2  0  0  0  0
   -0.9873    0.6537    0.0000 O   0  0  0  0  0  0  0  2  0  0  0  0
   -0.2729   -0.5838    0.0000 N   0  0  0  0  0  0  0  2  0  0  0  0
    0.4416   -0.1713    0.0000 C   0  0  0  0  0  0  0  2  0  0  0  0
    0.3339    0.6466    0.0000 C   0  0  0  0  0  0  0  2  0  0  0  0
    0.8361    1.3011    0.0000 C   0  0  0  0  0  0  0  2  0  0  0  0
    1.6541    1.4088    0.0000 C   0  0  0  0  0  0  0  2  0  0  0  0
    2.3086    0.9066    0.0000 C   0  0  0  0  0  0  0  2  0  0  0  0
    2.4163    0.0887    0.0000 C   0  0  0  0  0  0  0  2  0  0  0  0
    1.9141   -0.5659    0.0000 C   0  0  0  0  0  0  0  2  0  0  0  0
    1.0961   -0.6735    0.0000 C   0  0  0  0  0  0  0  2  0  0  0  0
  1  2  1  0        0
  2  3  1  0        0
  2  4  1  0        0
  4  5  2  0        0
  4  6  1  0        0
  6  7  1  0        0
  7  8  1  0        0
  8  9  1  0        0
  9 10  1  0        0
 10 11  1  0        0
 11 12  1  0        0
 12 13  1  0        0
 13 14  1  0        0
  7 14  1  0        0
M  END
$$$$

CDXL12

  6  5  0  0  0  0  0  0  0  0999 V2000
   -1.0717   -0.4125    0.0000 C   0  0  0  0  0  0  0  2  0  0  0  0
   -0.3572   -0.0000    0.0000 As  0  0  0  0  0  0  0  2  0  0  0  0
   -0.3572   -0.8250    0.0000 O   0  0  0  0  0  0  0  2  0  0  0  0
   -0.3572    0.8250    0.0000 O   0  0  0  0  0  0  0  2  0  0  0  0
    0.3572   -0.4125    0.0000 O   0  0  0  0  0  0  0  2  0  0  0  0
    1.0717    0.0000    0.0000 Na  0  0  0  0  0  0  0  2  0  0  0  0
  1  2  1  0        0
  2  3  1  0        0
  2  4  2  0        0
  2  5  1  0        0
  5  6  1  0        0
M  END
$$$$

CDXL12

  0  0  0  0  0  0  0  0  0  0999 V2000
M  END
$$$$

CDXL12

 14 14  0  0  0  0  0  0  0  0999 V2000
   -1.7862   -1.2375    0.0000 C   0  0  0  0  0  0  0  2  0  0  0  0
   -1.7862   -0.4125    0.0000 C   0  0  0  0  0  0  0  2  0  0  0  0
   -2.5006    0.0000    0.0000 C   0  0  0  0  0  0  0  2  0  0  0  0
   -1.0717    0.0000    0.0000 C   0  0  0  0  0  0  0  2  0  0  0  0
   -1.0717    0.8250    0.0000 O   0  0  0  0  0  0  0  2  0  0  0  0
   -0.3572   -0.4125    0.0000 N   0  0  0  0  0  0  0  2  0  0  0  0
    0.3572    0.0000    0.0000 C   0  0  0  0  0  0  0  2  0  0  0  0
    0.3572    0.8250    0.0000 C   0  0  0  0  0  0  0  2  0  0  0  0
    1.0717    1.2375    0.0000 C   0  0  0  0  0  0  0  2  0  0  0  0
    1.7862    0.8250    0.0000 C   0  0  0  0  0  0  0  2  0  0  0  0
    2.5006    1.2375    0.0000 Cl  0  0  0  0  0  0  0  2  0  0  0  0
    1.7862    0.0000    0.0000 C   0  0  0  0  0  0  0  2  0  0  0  0
    2.5006   -0.4125    0.0000 Cl  0  0  0  0  0  0  0  2  0  0  0  0
    1.0717   -0.4125    0.0000 C   0  0  0  0  0  0  0  2  0  0  0  0
  1  2  1  0        0
  2  3  2  0        0
  2  4  1  0        0
  4  5  2  0        0
  4  6  1  0        0
  6  7  1  0        0
  7  8  4  0        0
  8  9  4  0        0
  9 10  4  0        0
 10 11  1  0        0
 10 12  4  0        0
 12 13  1  0        0
 12 14  4  0        0
  7 14  4  0        0
M  END
$$$$

CDXL12

 15 15  0  0  0  0  0  0  0  0999 V2000
    0.3572    0.4125    0.0000 O   0  0  0  0  0  0  0  2  0  0  0  0
    0.3572   -0.4125    0.0000 C   0  0  0  0  0  0  0  2  0  0  0  0
    1.0717   -0.8250    0.0000 O   0  0  0  0  0  0  0  2  0  0  0  0
    1.7862   -0.4125    0.0000 C   0  0  0  0  0  0  0  2  0  0  0  0
    1.7862    0.4125    0.0000 C   0  0  0  0  0  0  0  2  0  0  0  0
    2.5006   -0.8250    0.0000 C   0  0  0  0  0  0  0  2  0  0  0  0
    3.2151   -0.4125    0.0000 C   0  0  0  0  0  0  0  2  0  0  0  0
   -0.3572   -0.8250    0.0000 N   0  0  0  0  0  0  0  2  0  0  0  0
   -1.0717   -0.4125    0.0000 C   0  0  0  0  0  0  0  2  0  0  0  0
   -1.7862   -0.8250    0.0000 C   0  0  0  0  0  0  0  2  0  0  0  0
   -2.5006   -0.4125    0.0000 C   0  0  0  0  0  0  0  2  0  0  0  0
   -3.2151   -0.8250    0.0000 Cl  0  0  0  0  0  0  0  2  0  0  0  0
   -2.5006    0.4125    0.0000 C   0  0  0  0  0  0  0  2  0  0  0  0
   -1.7862    0.8250    0.0000 C   0  0  0  0  0  0  0  2  0  0  0  0
   -1.0717    0.4125    0.0000 C   0  0  0  0  0  0  0  2  0  0  0  0
  1  2  2  0        0
  2  3  1  0        0
  3  4  1  0        0
  4  5  1  0        0
  4  6  1  0        0
  6  7  1  0        0
  2  8  1  0        0
  8  9  1  0        0
  9 10  4  0        0
 10 11  4  0        0
 11 12  1  0        0
 11 13  4  0        0
 13 14  4  0        0
 14 15  4  0        0
  9 15  4  0        0
M  END
$$$$

CDXL12

 16 16  0  0  0  0  0  0  0  0999 V2000
   -1.4289    0.8250    0.0000 O   0  0  0  0  0  0  0  2  0  0  0  0
   -1.4289    0.0000    0.0000 C   0  0  0  0  0  0  0  2  0  0  0  0
   -2.1434   -0.4125    0.0000 N   0  0  0  0  0  0  0  2  0  0  0  0
   -2.1434   -1.2375    0.0000 C   0  0  0  0  0  0  0  2  0  0  0  0
   -2.8579    0.0000    0.0000 C   0  0  0  0  0  0  0  2  0  0  0  0
   -0.7145   -0.4125    0.0000 N   0  0  0  0  0  0  0  2  0  0  0  0
    0.0000    0.0000    0.0000 C   0  0  0  0  0  0  0  2  0  0  0  0
    0.0000    0.8250    0.0000 C   0  0  0  0  0  0  0  2  0  0  0  0
    0.7145    1.2375    0.0000 C   0  0  0  0  0  0  0  2  0  0  0  0
    1.4289    0.8250    0.0000 C   0  0  0  0  0  0  0  2  0  0  0  0
    1.4289    0.0000    0.0000 C   0  0  0  0  0  0  0  2  0  0  0  0
    2.1434   -0.4125    0.0000 C   0  0  0  0  0  0  0  2  0  0  0  0
    2.1434   -1.2375    0.0000 F   0  0  0  0  0  0  0  2  0  0  0  0
    2.8579   -0.8250    0.0000 F   0  0  0  0  0  0  0  2  0  0  0  0
    2.8579    0.0000    0.0000 F   0  0  0  0  0  0  0  2  0  0  0  0
    0.7145   -0.4125    0.0000 C   0  0  0  0  0  0  0  2  0  0  0  0
  1  2  2  0        0
  2  3  1  0        0
  3  4  1  0        0
  3  5  1  0        0
  2  6  1  0        0
  6  7  1  0        0
  7  8  4  0        0
  8  9  4  0        0
  9 10  4  0        0
 10 11  4  0        0
 11 12  1  0        0
 12 13  1  0        0
 12 14  1  0        0
 12 15  1  0        0
 11 16  4  0        0
  7 16  4  0        0
M  END
$$$$

CDXL12

 15 16  0  0  0  0  0  0  0  0999 V2000
    0.7145    0.4125    0.0000 O   0  0  0  0  0  0  0  2  0  0  0  0
   -0.0000    0.0000    0.0000 C   0  0  0  0  0  0  0  2  0  0  0  0
   -0.0000   -0.8250    0.0000 C   0  0  0  0  0  0  0  2  0  0  0  0
   -0.7145   -1.2375    0.0000 C   0  0  0  0  0  0  0  2  0  0  0  0
   -1.4289   -0.8250    0.0000 C   0  0  0  0  0  0  0  2  0  0  0  0
   -1.4289    0.0000    0.0000 C   0  0  0  0  0  0  0  2  0  0  0  0
   -2.1434    0.4125    0.0000 C   0  0  0  0  0  0  0  2  0  0  0  0
   -2.8579   -0.0000    0.0000 C   0  0  0  0  0  0  0  2  0  0  0  0
   -2.8579   -0.8250    0.0000 C   0  0  0  0  0  0  0  2  0  0  0  0
   -2.1434   -1.2375    0.0000 C   0  0  0  0  0  0  0  2  0  0  0  0
   -0.7145    0.4125    0.0000 C   0  0  0  0  0  0  0  2  0  0  0  0
    1.4289    0.0000    0.0000 C   0  0  0  0  0  0  0  2  0  0  0  0
    2.1434    0.4125    0.0000 C   0  0  0  0  0  0  0  2  0  0  0  0
    2.1434    1.2375    0.0000 C   0  0  0  0  0  0  0  2  0  0  0  0
    2.8579   -0.0000    0.0000 C   0  0  0  0  0  0  0  2  0  0  0  0
  1  2  1  0        0
  2  3  4  0        0
  3  4  4  0        0
  4  5  4  0        0
  5  6  4  0        0
  6  7  4  0        0
  7  8  4  0        0
  8  9  4  0        0
  9 10  4  0        0
  5 10  4  0        0
  6 11  4  0        0
  2 11  4  0        0
  1 12  1  0        0
 12 13  1  0        0
 13 14  1  0        0
 13 15  1  0        0
M  END
$$$$

CDXL12

 12 13  0  0  0  0  0  0  0  0999 V2000
   -0.3572   -0.8250    0.0000 C   0  0  0  0  0  0  0  2  0  0  0  0
   -0.3572    0.0000    0.0000 C   0  0  0  0  0  0  0  2  0  0  0  0
    0.3572    0.4125    0.0000 C   0  0  0  0  0  0  0  2  0  0  0  0
    1.0717    0.0000    0.0000 C   0  0  0  0  0  0  0  2  0  0  0  0
    1.0717   -0.8250    0.0000 C   0  0  0  0  0  0  0  2  0  0  0  0
    1.7862   -1.2375    0.0000 Cl  0  0  0  0  0  0  0  2  0  0  0  0
    0.3572   -1.2375    0.0000 C   0  0  0  0  0  0  0  2  0  0  0  0
    0.3572    1.2375    0.0000 Cl  0  0  0  0  0  0  0  2  0  0  0  0
   -1.0717    0.4125    0.0000 C   0  0  0  0  0  0  0  2  0  0  0  0
   -1.7862   -0.0000    0.0000 C   0  0  0  0  0  0  0  2  0  0  0  0
   -1.7862   -0.8250    0.0000 C   0  0  0  0  0  0  0  2  0  0  0  0
   -1.0717   -1.2375    0.0000 C   0  0  0  0  0  0  0  2  0  0  0  0
  1  2  4  0        0
  2  3  4  0        0
  3  4  4  0        0
  4  5  4  0        0
  5  6  1  0        0
  5  7  4  0        0
  1  7  4  0        0
  3  8  1  0        0
  2  9  4  0        0
  9 10  4  0        0
 10 11  4  0        0
 11 12  4  0        0
  1 12  4  0        0
M  END
$$$$

CDXL12

 12 13  0  0  0  0  0  0  0  0999 V2000
    0.0000    0.4125    0.0000 C   0  0  0  0  0  0  0  2  0  0  0  0
    0.0000   -0.4125    0.0000 C   0  0  0  0  0  0  0  2  0  0  0  0
    0.7145   -0.8250    0.0000 C   0  0  0  0  0  0  0  2  0  0  0  0
    1.4289   -0.4125    0.0000 C   0  0  0  0  0  0  0  2  0  0  0  0
    1.4289    0.4125    0.0000 C   0  0  0  0  0  0  0  2  0  0  0  0
    2.1434    0.8250    0.0000 Cl  0  0  0  0  0  0  0  2  0  0  0  0
    0.7145    0.8250    0.0000 C   0  0  0  0  0  0  0  2  0  0  0  0
   -0.7145   -0.8250    0.0000 C   0  0  0  0  0  0  0  2  0  0  0  0
   -1.4289   -0.4125    0.0000 C   0  0  0  0  0  0  0  2  0  0  0  0
   -1.4289    0.4125    0.0000 C   0  0  0  0  0  0  0  2  0  0  0  0
   -2.1434    0.8250    0.0000 Cl  0  0  0  0  0  0  0  2  0  0  0  0
   -0.7145    0.8250    0.0000 C   0  0  0  0  0  0  0  2  0  0  0  0
  1  2  4  0        0
  2  3  4  0        0
  3  4  4  0        0
  4  5  4  0        0
  5  6  1  0        0
  5  7  4  0        0
  1  7  4  0        0
  2  8  4  0        0
  8  9  4  0        0
  9 10  4  0        0
 10 11  1  0        0
 10 12  4  0        0
  1 12  4  0        0
M  END
$$$$

CDXL12

  8  8  0  0  0  0  0  0  0  0999 V2000
    1.0717    0.8250    0.0000 C   0  0  0  0  0  0  0  2  0  0  0  0
    0.3572    0.4125    0.0000 C   0  0  0  0  0  0  0  2  0  0  0  0
    0.3572   -0.4125    0.0000 C   0  0  0  0  0  0  0  2  0  0  0  0
    1.0717   -0.8250    0.0000 C   0  0  0  0  0  0  0  2  0  0  0  0
   -0.3572   -0.8250    0.0000 C   0  0  0  0  0  0  0  2  0  0  0  0
   -1.0717   -0.4125    0.0000 C   0  0  0  0  0  0  0  2  0  0  0  0
   -1.0717    0.4125    0.0000 C   0  0  0  0  0  0  0  2  0  0  0  0
   -0.3572    0.8250    0.0000 C   0  0  0  0  0  0  0  2  0  0  0  0
  1  2  1  0        0
  2  3  1  0        0
  3  4  1  0        0
  3  5  1  0        0
  5  6  1  0        0
  6  7  1  0        0
  7  8  1  0        0
  2  8  1  0        0
M  END
$$$$

CDXL12

 12 12  0  0  0  0  0  0  0  0999 V2000
    2.3146    0.0732    0.0000 C   0  0  0  0  0  0  0  2  0  0  0  0
    1.6002    0.4857    0.0000 C   0  0  0  0  0  0  0  2  0  0  0  0
    0.8857    0.0732    0.0000 S   0  0  0  0  0  0  0  2  0  0  0  0
    0.1712    0.4857    0.0000 C   0  0  0  0  0  0  0  2  0  0  0  0
    0.1712    1.3107    0.0000 O   0  0  0  0  0  0  0  2  0  0  0  0
   -0.5432    0.0732    0.0000 N   0  0  0  0  0  0  0  2  0  0  0  0
   -1.2249    0.5379    0.0000 C   0  0  0  0  0  0  0  2  0  0  0  0
   -2.0132    0.2947    0.0000 C   0  0  0  0  0  0  0  2  0  0  0  0
   -2.3146   -0.4732    0.0000 C   0  0  0  0  0  0  0  2  0  0  0  0
   -1.9021   -1.1877    0.0000 C   0  0  0  0  0  0  0  2  0  0  0  0
   -1.0864   -1.3107    0.0000 C   0  0  0  0  0  0  0  2  0  0  0  0
   -0.4816   -0.7495    0.0000 C   0  0  0  0  0  0  0  2  0  0  0  0
  1  2  1  0        0
  2  3  1  0        0
  3  4  1  0        0
  4  5  2  0        0
  4  6  1  0        0
  6  7  1  0        0
  7  8  1  0        0
  8  9  1  0        0
  9 10  1  0        0
 10 11  1  0        0
 11 12  1  0        0
  6 12  1  0        0
M  END
$$$$

CDXL12

  9  8  0  0  0  0  0  0  0  0999 V2000
    2.5006   -0.2062    0.0000 C   0  0  0  0  0  0  0  2  0  0  0  0
    1.7862   -0.6187    0.0000 C   0  0  0  0  0  0  0  2  0  0  0  0
    1.0717   -0.2062    0.0000 C   0  0  0  0  0  0  0  2  0  0  0  0
    1.0717    0.6187    0.0000 C   0  0  0  0  0  0  0  2  0  0  0  0
    0.3572   -0.6187    0.0000 C   0  0  0  0  0  0  0  2  0  0  0  0
   -0.3572   -0.2062    0.0000 C   0  0  0  0  0  0  0  2  0  0  0  0
   -1.0717   -0.6187    0.0000 C   0  0  0  0  0  0  0  2  0  0  0  0
   -1.7862   -0.2062    0.0000 C   0  0  0  0  0  0  0  2  0  0  0  0
   -2.5006   -0.6187    0.0000 C   0  0  0  0  0  0  0  2  0  0  0  0
  1  2  1  0        0
  2  3  1  0        0
  3  4  1  0        0
  3  5  1  0        0
  5  6  1  0        0
  6  7  1  0        0
  7  8  1  0        0
  8  9  1  0        0
M  END
$$$$

CDXL12

  9  8  0  0  0  0  0  0  0  0999 V2000
   -2.5006   -0.6187    0.0000 C   0  0  0  0  0  0  0  2  0  0  0  0
   -1.7862   -0.2062    0.0000 C   0  0  0  0  0  0  0  2  0  0  0  0
   -1.0717   -0.6187    0.0000 C   0  0  0  0  0  0  0  2  0  0  0  0
   -0.3572   -0.2062    0.0000 C   0  0  0  0  0  0  0  2  0  0  0  0
   -0.3572    0.6188    0.0000 C   0  0  0  0  0  0  0  2  0  0  0  0
    0.3572   -0.6188    0.0000 C   0  0  0  0  0  0  0  2  0  0  0  0
    1.0717   -0.2062    0.0000 C   0  0  0  0  0  0  0  2  0  0  0  0
    1.7862   -0.6188    0.0000 C   0  0  0  0  0  0  0  2  0  0  0  0
    2.5006   -0.2062    0.0000 C   0  0  0  0  0  0  0  2  0  0  0  0
  1  2  1  0        0
  2  3  1  0        0
  3  4  1  0        0
  4  5  1  0        0
  4  6  1  0        0
  6  7  1  0        0
  7  8  1  0        0
  8  9  1  0        0
M  END
$$$$

CDXL12

 11 11  0  0  0  0  0  0  0  0999 V2000
   -1.0717   -1.2375    0.0000 O   0  0  0  0  0  0  0  2  0  0  0  0
   -0.3572   -0.8250    0.0000 C   0  0  0  0  0  0  0  2  0  0  0  0
   -0.3572    0.0000    0.0000 C   0  0  0  0  0  0  0  2  0  0  0  0
    0.3572    0.4125    0.0000 C   0  0  0  0  0  0  0  2  0  0  0  0
    1.0717   -0.0000    0.0000 C   0  0  0  0  0  0  0  2  0  0  0  0
    1.0717   -0.8250    0.0000 C   0  0  0  0  0  0  0  2  0  0  0  0
    1.7862   -1.2375    0.0000 C   0  0  0  0  0  0  0  2  0  0  0  0
    0.3572   -1.2375    0.0000 C   0  0  0  0  0  0  0  2  0  0  0  0
   -1.0717    0.4125    0.0000 C   0  0  0  0  0  0  0  2  0  0  0  0
   -1.0717    1.2375    0.0000 C   0  0  0  0  0  0  0  2  0  0  0  0
   -1.7862    0.0000    0.0000 C   0  0  0  0  0  0  0  2  0  0  0  0
  1  2  1  0        0
  2  3  1  0        0
  3  4  1  0        0
  4  5  1  0        0
  5  6  1  0        0
  6  7  1  0        0
  6  8  1  0        0
  2  8  1  0        0
  3  9  1  0        0
  9 10  1  0        0
  9 11  1  0        0
M  END
$$$$

CDXL12

 12 13  0  0  0  0  0  0  0  0999 V2000
    0.7145    1.0313    0.0000 O   0  0  0  0  0  0  0  2  0  0  0  0
    0.7145    0.2062    0.0000 C   0  0  0  0  0  0  0  2  0  0  0  0
    0.0000   -0.2062    0.0000 C   0  0  0  0  0  0  0  2  0  0  0  0
    0.0000   -1.0313    0.0000 C   0  0  0  0  0  0  0  2  0  0  0  0
   -0.7145   -1.4438    0.0000 C   0  0  0  0  0  0  0  2  0  0  0  0
   -1.4289   -1.0312    0.0000 C   0  0  0  0  0  0  0  2  0  0  0  0
   -1.4289   -0.2062    0.0000 C   0  0  0  0  0  0  0  2  0  0  0  0
   -0.7145    0.2062    0.0000 C   0  0  0  0  0  0  0  2  0  0  0  0
    0.7145   -1.4438    0.0000 C   0  0  0  0  0  0  0  2  0  0  0  0
    1.4289   -1.0313    0.0000 C   0  0  0  0  0  0  0  2  0  0  0  0
    1.4289   -0.2063    0.0000 C   0  0  0  0  0  0  0  2  0  0  0  0
    1.4289    1.4438    0.0000 C   0  0  0  0  0  0  0  2  0  0  0  0
  1  2  1  0        0
  2  3  4  0        0
  3  4  4  0        0
  4  5  4  0        0
  5  6  4  0        0
  6  7  4  0        0
  7  8  4  0        0
  3  8  4  0        0
  4  9  4  0        0
  9 10  4  0        0
 10 11  4  0        0
  2 11  4  0        0
  1 12  1  0        0
M  END
$$$$

CDXL12

 17 18  0  0  0  0  0  0  0  0999 V2000
    2.8579    0.8250    0.0000 Cl  0  0  0  0  0  0  0  2  0  0  0  0
    2.1434    0.4125    0.0000 C   0  0  0  0  0  0  0  2  0  0  0  0
    2.1434   -0.4125    0.0000 C   0  0  0  0  0  0  0  2  0  0  0  0
    1.4289   -0.8250    0.0000 C   0  0  0  0  0  0  0  2  0  0  0  0
    0.7145   -0.4125    0.0000 C   0  0  0  0  0  0  0  2  0  0  0  0
   -0.0000   -0.8250    0.0000 S   0  0  0  0  0  0  0  2  0  0  0  0
   -0.7145   -0.4125    0.0000 C   0  0  0  0  0  0  0  2  0  0  0  0
   -1.4289   -0.8250    0.0000 C   0  0  0  0  0  0  0  2  0  0  0  0
   -2.1434   -0.4125    0.0000 C   0  0  0  0  0  0  0  2  0  0  0  0
   -2.8579   -0.8250    0.0000 Cl  0  0  0  0  0  0  0  2  0  0  0  0
   -2.1434    0.4125    0.0000 C   0  0  0  0  0  0  0  2  0  0  0  0
   -2.8579    0.8250    0.0000 Cl  0  0  0  0  0  0  0  2  0  0  0  0
   -1.4289    0.8250    0.0000 C   0  0  0  0  0  0  0  2  0  0  0  0
   -0.7145    0.4125    0.0000 C   0  0  0  0  0  0  0  2  0  0  0  0
   -0.0000    0.8250    0.0000 Cl  0  0  0  0  0  0  0  2  0  0  0  0
    0.7145    0.4125    0.0000 C   0  0  0  0  0  0  0  2  0  0  0  0
    1.4289    0.8250    0.0000 C   0  0  0  0  0  0  0  2  0  0  0  0
  1  2  1  0        0
  2  3  4  0        0
  3  4  4  0        0
  4  5  4  0        0
  5  6  1  0        0
  6  7  1  0        0
  7  8  4  0        0
  8  9  4  0        0
  9 10  1  0        0
  9 11  4  0        0
 11 12  1  0        0
 11 13  4  0        0
 13 14  4  0        0
  7 14  4  0        0
 14 15  1  0        0
  5 16  4  0        0
 16 17  4  0        0
  2 17  4  0        0
M  END
$$$$

CDXL12

 20 21  0  0  0  0  0  0  0  0999 V2000
   -0.1735   -1.3663    0.0000 Cl  0  0  0  0  0  0  0  2  0  0  0  0
   -0.6584   -0.6989    0.0000 C   0  0  0  0  0  0  0  2  0  0  0  0
   -1.4834   -0.6989    0.0000 C   0  0  0  0  0  0  0  2  0  0  0  0
   -1.9683   -1.3663    0.0000 Cl  0  0  0  0  0  0  0  2  0  0  0  0
   -1.7384    0.0858    0.0000 C   0  0  0  0  0  0  0  2  0  0  0  0
   -2.5230    0.3407    0.0000 Cl  0  0  0  0  0  0  0  2  0  0  0  0
   -1.0709    0.5707    0.0000 C   0  0  0  0  0  0  0  2  0  0  0  0
   -1.0709    1.3957    0.0000 Cl  0  0  0  0  0  0  0  2  0  0  0  0
   -0.4035    0.0858    0.0000 C   0  0  0  0  0  0  0  2  0  0  0  0
    0.1485    0.6989    0.0000 Cl  0  0  0  0  0  0  0  2  0  0  0  0
    0.4035   -0.0858    0.0000 C   0  0  0  0  0  0  0  2  0  0  0  0
   -0.1485   -0.6989    0.0000 Cl  0  0  0  0  0  0  0  2  0  0  0  0
    0.6584    0.6989    0.0000 C   0  0  0  0  0  0  0  2  0  0  0  0
    0.1735    1.3663    0.0000 Cl  0  0  0  0  0  0  0  2  0  0  0  0
    1.4834    0.6989    0.0000 C   0  0  0  0  0  0  0  2  0  0  0  0
    1.9683    1.3663    0.0000 Cl  0  0  0  0  0  0  0  2  0  0  0  0
    1.7384   -0.0858    0.0000 C   0  0  0  0  0  0  0  2  0  0  0  0
    2.5230   -0.3407    0.0000 Cl  0  0  0  0  0  0  0  2  0  0  0  0
    1.0709   -0.5707    0.0000 C   0  0  0  0  0  0  0  2  0  0  0  0
    1.0709   -1.3957    0.0000 Cl  0  0  0  0  0  0  0  2  0  0  0  0
  1  2  1  0        0
  2  3  2  0        0
  3  4  1  0        0
  3  5  1  0        0
  5  6  1  0        0
  5  7  2  0        0
  7  8  1  0        0
  7  9  1  0        0
  2  9  1  0        0
  9 10  1  0        0
  9 11  1  0        0
 11 12  1  0        0
 11 13  1  0        0
 13 14  1  0        0
 13 15  2  0        0
 15 16  1  0        0
 15 17  1  0        0
 17 18  1  0        0
 17 19  2  0        0
 11 19  1  0        0
 19 20  1  0        0
M  END
$$$$

CDXL12

 18 19  0  0  0  0  0  0  0  0999 V2000
    0.0000   -0.4125    0.0000 C   0  0  0  0  0  0  0  2  0  0  0  0
    0.0000    0.4125    0.0000 C   0  0  0  0  0  0  0  2  0  0  0  0
    0.7145    0.8250    0.0000 C   0  0  0  0  0  0  0  2  0  0  0  0
    1.4289    0.4125    0.0000 C   0  0  0  0  0  0  0  2  0  0  0  0
    1.4289   -0.4125    0.0000 C   0  0  0  0  0  0  0  2  0  0  0  0
    2.1434   -0.8250    0.0000 Cl  0  0  0  0  0  0  0  2  0  0  0  0
    0.7145   -0.8250    0.0000 C   0  0  0  0  0  0  0  2  0  0  0  0
    0.7145   -1.6500    0.0000 Cl  0  0  0  0  0  0  0  2  0  0  0  0
    2.1434    0.8250    0.0000 Cl  0  0  0  0  0  0  0  2  0  0  0  0
    0.7145    1.6500    0.0000 Cl  0  0  0  0  0  0  0  2  0  0  0  0
   -0.7145    0.8250    0.0000 C   0  0  0  0  0  0  0  2  0  0  0  0
   -1.4289    0.4125    0.0000 C   0  0  0  0  0  0  0  2  0  0  0  0
   -1.4289   -0.4125    0.0000 C   0  0  0  0  0  0  0  2  0  0  0  0
   -2.1434   -0.8250    0.0000 Cl  0  0  0  0  0  0  0  2  0  0  0  0
   -0.7145   -0.8250    0.0000 C   0  0  0  0  0  0  0  2  0  0  0  0
   -0.7145   -1.6500    0.0000 Cl  0  0  0  0  0  0  0  2  0  0  0  0
   -2.1434    0.8250    0.0000 Cl  0  0  0  0  0  0  0  2  0  0  0  0
   -0.7145    1.6500    0.0000 Cl  0  0  0  0  0  0  0  2  0  0  0  0
  1  2  4  0        0
  2  3  4  0        0
  3  4  4  0        0
  4  5  4  0        0
  5  6  1  0        0
  5  7  4  0        0
  1  7  4  0        0
  7  8  1  0        0
  4  9  1  0        0
  3 10  1  0        0
  2 11  4  0        0
 11 12  4  0        0
 12 13  4  0        0
 13 14  1  0        0
 13 15  4  0        0
  1 15  4  0        0
 15 16  1  0        0
 12 17  1  0        0
 11 18  1  0        0
M  END
$$$$

CDXL12

 10  9  0  0  0  0  0  0  0  0999 V2000
   -3.2151    0.4125    0.0000 N   0  0  0  0  0  0  0  2  0  0  0  0
   -2.5006   -0.0000    0.0000 C   0  0  0  0  0  0  0  2  0  0  0  0
   -1.7862   -0.4125    0.0000 C   0  0  0  0  0  0  0  2  0  0  0  0
   -1.0717   -0.0000    0.0000 C   0  0  0  0  0  0  0  2  0  0  0  0
   -0.3572   -0.4125    0.0000 C   0  0  0  0  0  0  0  2  0  0  0  0
    0.3572    0.0000    0.0000 C   0  0  0  0  0  0  0  2  0  0  0  0
    1.0717   -0.4125    0.0000 C   0  0  0  0  0  0  0  2  0  0  0  0
    1.7862   -0.0000    0.0000 C   0  0  0  0  0  0  0  2  0  0  0  0
    2.5006   -0.4125    0.0000 C   0  0  0  0  0  0  0  2  0  0  0  0
    3.2151   -0.0000    0.0000 C   0  0  0  0  0  0  0  2  0  0  0  0
  1  2  3  0        0
  2  3  1  0        0
  3  4  1  0        0
  4  5  1  0        0
  5  6  1  0        0
  6  7  1  0        0
  7  8  1  0        0
  8  9  1  0        0
  9 10  1  0        0
M  END
$$$$

CDXL12

 12 13  0  0  0  0  0  0  0  0999 V2000
    0.7145    1.6500    0.0000 N   0  0  0  0  0  0  0  2  0  0  0  0
    0.7145    0.8250    0.0000 C   0  0  0  0  0  0  0  2  0  0  0  0
    1.4289    0.4125    0.0000 C   0  0  0  0  0  0  0  2  0  0  0  0
    1.4289   -0.4125    0.0000 C   0  0  0  0  0  0  0  2  0  0  0  0
    0.7145   -0.8250    0.0000 C   0  0  0  0  0  0  0  2  0  0  0  0
    0.0000   -0.4125    0.0000 C   0  0  0  0  0  0  0  2  0  0  0  0
   -0.7145   -0.8250    0.0000 C   0  0  0  0  0  0  0  2  0  0  0  0
   -0.7145   -1.6500    0.0000 N   0  0  0  0  0  0  0  2  0  0  0  0
   -1.4289   -0.4125    0.0000 C   0  0  0  0  0  0  0  2  0  0  0  0
   -1.4289    0.4125    0.0000 C   0  0  0  0  0  0  0  2  0  0  0  0
   -0.7145    0.8250    0.0000 C   0  0  0  0  0  0  0  2  0  0  0  0
    0.0000    0.4125    0.0000 C   0  0  0  0  0  0  0  2  0  0  0  0
  1  2  1  0        0
  2  3  4  0        0
  3  4  4  0        0
  4  5  4  0        0
  5  6  4  0        0
  6  7  4  0        0
  7  8  1  0        0
  7  9  4  0        0
  9 10  4  0        0
 10 11  4  0        0
 11 12  4  0        0
  2 12  4  0        0
  6 12  4  0        0
M  END
$$$$

CDXL12

 16 15  0  0  0  0  0  0  0  0999 V2000
   -3.2151   -0.2062    0.0000 C   0  0  0  0  0  0  0  2  0  0  0  0
   -2.5006   -0.6188    0.0000 C   0  0  0  0  0  0  0  2  0  0  0  0
   -1.7862   -0.2062    0.0000 O   0  0  0  0  0  0  0  2  0  0  0  0
   -1.0717   -0.6188    0.0000 P   0  0  0  0  0  0  0  2  0  0  0  0
   -1.0717   -1.4438    0.0000 S   0  0  0  0  0  0  0  2  0  0  0  0
   -1.0717    0.2062    0.0000 O   0  0  0  0  0  0  0  2  0  0  0  0
   -1.7862    0.6187    0.0000 C   0  0  0  0  0  0  0  2  0  0  0  0
   -1.7862    1.4438    0.0000 C   0  0  0  0  0  0  0  2  0  0  0  0
   -0.3572   -0.2062    0.0000 S   0  0  0  0  0  0  0  2  0  0  0  0
    0.3572   -0.6188    0.0000 C   0  0  0  0  0  0  0  2  0  0  0  0
    1.0717   -0.2062    0.0000 C   0  0  0  0  0  0  0  2  0  0  0  0
    1.0717    0.6188    0.0000 O   0  0  0  0  0  0  0  2  0  0  0  0
    1.7862   -0.6187    0.0000 N   0  0  0  0  0  0  0  2  0  0  0  0
    2.5006   -0.2062    0.0000 C   0  0  0  0  0  0  0  2  0  0  0  0
    3.2151   -0.6187    0.0000 C   0  0  0  0  0  0  0  2  0  0  0  0
    2.5006    0.6188    0.0000 C   0  0  0  0  0  0  0  2  0  0  0  0
  1  2  1  0        0
  2  3  1  0        0
  3  4  1  0        0
  4  5  2  0        0
  4  6  1  0        0
  6  7  1  0        0
  7  8  1  0        0
  4  9  1  0        0
  9 10  1  0        0
 10 11  1  0        0
 11 12  2  0        0
 11 13  1  0        0
 13 14  1  0        0
 14 15  1  0        0
 14 16  1  0        0
M  END
$$$$

CDXL12

 16 15  0  0  0  0  0  0  0  0999 V2000
    3.5724    0.2062    0.0000 C   0  0  0  0  0  0  0  2  0  0  0  0
    2.8579   -0.2062    0.0000 N   0  0  0  0  0  0  0  2  0  0  0  0
    2.1434    0.2062    0.0000 C   0  0  0  0  0  0  0  2  0  0  0  0
    2.1434    1.0313    0.0000 O   0  0  0  0  0  0  0  2  0  0  0  0
    1.4289   -0.2062    0.0000 C   0  0  0  0  0  0  0  2  0  0  0  0
    1.4289   -1.0313    0.0000 C   0  0  0  0  0  0  0  2  0  0  0  0
    0.7145    0.2062    0.0000 S   0  0  0  0  0  0  0  2  0  0  0  0
    0.0000   -0.2062    0.0000 C   0  0  0  0  0  0  0  2  0  0  0  0
   -0.7145    0.2062    0.0000 C   0  0  0  0  0  0  0  2  0  0  0  0
   -1.4289   -0.2062    0.0000 S   0  0  0  0  0  0  0  2  0  0  0  0
   -2.1434    0.2062    0.0000 P   0  0  0  0  0  0  0  2  0  0  0  0
   -2.1434    1.0312    0.0000 O   0  0  0  0  0  0  0  2  0  0  0  0
   -2.8579   -0.2062    0.0000 O   0  0  0  0  0  0  0  2  0  0  0  0
   -3.5724    0.2062    0.0000 C   0  0  0  0  0  0  0  2  0  0  0  0
   -2.1434   -0.6188    0.0000 O   0  0  0  0  0  0  0  2  0  0  0  0
   -2.8579   -1.0313    0.0000 C   0  0  0  0  0  0  0  2  0  0  0  0
  1  2  1  0        0
  2  3  1  0        0
  3  4  2  0        0
  3  5  1  0        0
  5  6  1  0        0
  5  7  1  0        0
  7  8  1  0        0
  8  9  1  0        0
  9 10  1  0        0
 10 11  1  0        0
 11 12  2  0        0
 11 13  1  0        0
 13 14  1  0        0
 11 15  1  0        0
 15 16  1  0        0
M  END
$$$$

CDXL12

 15 14  0  0  0  0  0  0  0  0999 V2000
   -2.1434    1.2375    0.0000 C   0  0  0  0  0  0  0  2  0  0  0  0
   -2.1434    0.4125    0.0000 C   0  0  0  0  0  0  0  2  0  0  0  0
   -2.8579   -0.0000    0.0000 C   0  0  0  0  0  0  0  2  0  0  0  0
   -1.4289   -0.0000    0.0000 N   0  0  0  0  0  0  0  2  0  0  0  0
   -1.4289   -0.8250    0.0000 C   0  0  0  0  0  0  0  2  0  0  0  0
   -2.1434   -1.2375    0.0000 C   0  0  0  0  0  0  0  2  0  0  0  0
   -0.7145   -1.2375    0.0000 C   0  0  0  0  0  0  0  2  0  0  0  0
   -0.7145    0.4125    0.0000 C   0  0  0  0  0  0  0  2  0  0  0  0
   -0.7145    1.2375    0.0000 O   0  0  0  0  0  0  0  2  0  0  0  0
   -0.0000   -0.0000    0.0000 S   0  0  0  0  0  0  0  2  0  0  0  0
    0.7145    0.4125    0.0000 C   0  0  0  0  0  0  0  2  0  0  0  0
    1.4289   -0.0000    0.0000 C   0  0  0  0  0  0  0  2  0  0  0  0
    1.4289   -0.8250    0.0000 Cl  0  0  0  0  0  0  0  2  0  0  0  0
    2.1434    0.4125    0.0000 C   0  0  0  0  0  0  0  2  0  0  0  0
    2.8579   -0.0000    0.0000 Cl  0  0  0  0  0  0  0  2  0  0  0  0
  1  2  1  0        0
  2  3  1  0        0
  2  4  1  0        0
  4  5  1  0        0
  5  6  1  0        0
  5  7  1  0        0
  4  8  1  0        0
  8  9  2  0        0
  8 10  1  0        0
 10 11  1  0        0
 11 12  1  0        0
 12 13  1  0        0
 12 14  2  0        0
 14 15  1  0        0
M  END
$$$$

CDXL12

 16 15  0  0  0  0  0  0  0  0999 V2000
   -2.1434    1.2375    0.0000 C   0  0  0  0  0  0  0  2  0  0  0  0
   -2.1434    0.4125    0.0000 C   0  0  0  0  0  0  0  2  0  0  0  0
   -2.8579   -0.0000    0.0000 C   0  0  0  0  0  0  0  2  0  0  0  0
   -1.4289   -0.0000    0.0000 N   0  0  0  0  0  0  0  2  0  0  0  0
   -1.4289   -0.8250    0.0000 C   0  0  0  0  0  0  0  2  0  0  0  0
   -2.1434   -1.2375    0.0000 C   0  0  0  0  0  0  0  2  0  0  0  0
   -0.7145   -1.2375    0.0000 C   0  0  0  0  0  0  0  2  0  0  0  0
   -0.7145    0.4125    0.0000 C   0  0  0  0  0  0  0  2  0  0  0  0
   -0.7145    1.2375    0.0000 O   0  0  0  0  0  0  0  2  0  0  0  0
   -0.0000   -0.0000    0.0000 S   0  0  0  0  0  0  0  2  0  0  0  0
    0.7145    0.4125    0.0000 C   0  0  0  0  0  0  0  2  0  0  0  0
    1.4289   -0.0000    0.0000 C   0  0  0  0  0  0  0  2  0  0  0  0
    1.4289   -0.8250    0.0000 Cl  0  0  0  0  0  0  0  2  0  0  0  0
    2.1434    0.4125    0.0000 C   0  0  0  0  0  0  0  2  0  0  0  0
    2.8579   -0.0000    0.0000 Cl  0  0  0  0  0  0  0  2  0  0  0  0
    2.1434    1.2375    0.0000 Cl  0  0  0  0  0  0  0  2  0  0  0  0
  1  2  1  0        0
  2  3  1  0        0
  2  4  1  0        0
  4  5  1  0        0
  5  6  1  0        0
  5  7  1  0        0
  4  8  1  0        0
  8  9  2  0        0
  8 10  1  0        0
 10 11  1  0        0
 11 12  1  0        0
 12 13  1  0        0
 12 14  2  0        0
 14 15  1  0        0
 14 16  1  0        0
M  END
$$$$

CDXL12

 16 16  0  0  0  0  0  0  0  0999 V2000
    1.0717    0.8250    0.0000 C   0  0  0  0  0  0  0  2  0  0  0  0
    1.7862    1.2375    0.0000 C   0  0  0  0  0  0  0  2  0  0  0  0
    2.5006    0.8250    0.0000 C   0  0  0  0  0  0  0  2  0  0  0  0
    3.2151    1.2375    0.0000 C   0  0  0  0  0  0  0  2  0  0  0  0
    2.5006   -0.0000    0.0000 C   0  0  0  0  0  0  0  2  0  0  0  0
    3.2151   -0.4125    0.0000 Cl  0  0  0  0  0  0  0  2  0  0  0  0
    1.7862   -0.4125    0.0000 C   0  0  0  0  0  0  0  2  0  0  0  0
    1.0717   -0.0000    0.0000 C   0  0  0  0  0  0  0  2  0  0  0  0
    0.3572   -0.4125    0.0000 N   0  0  0  0  0  0  0  2  0  0  0  0
   -0.3572   -0.0000    0.0000 C   0  0  0  0  0  0  0  2  0  0  0  0
   -0.3572    0.8250    0.0000 O   0  0  0  0  0  0  0  2  0  0  0  0
   -1.0717   -0.4125    0.0000 C   0  0  0  0  0  0  0  2  0  0  0  0
   -1.0717   -1.2375    0.0000 C   0  0  0  0  0  0  0  2  0  0  0  0
   -1.7862   -0.0000    0.0000 C   0  0  0  0  0  0  0  2  0  0  0  0
   -2.5006   -0.4125    0.0000 C   0  0  0  0  0  0  0  2  0  0  0  0
   -3.2151   -0.0000    0.0000 C   0  0  0  0  0  0  0  2  0  0  0  0
  1  2  4  0        0
  2  3  4  0        0
  3  4  1  0        0
  3  5  4  0        0
  5  6  1  0        0
  5  7  4  0        0
  7  8  4  0        0
  1  8  4  0        0
  8  9  1  0        0
  9 10  1  0        0
 10 11  2  0        0
 10 12  1  0        0
 12 13  1  0        0
 12 14  1  0        0
 14 15  1  0        0
 15 16  1  0        0
M  END
$$$$

CDXL12

 21 23  0  0  0  0  0  0  0  0999 V2000
   -1.1834   -1.0569    0.0000 C   0  0  0  0  0  0  0  2  0  0  0  0
   -0.9285   -1.8415    0.0000 C   0  0  0  0  0  0  0  2  0  0  0  0
   -0.1215   -2.0130    0.0000 C   0  0  0  0  0  0  0  2  0  0  0  0
    0.4305   -1.3999    0.0000 C   0  0  0  0  0  0  0  2  0  0  0  0
    1.2555   -1.3999    0.0000 C   0  0  0  0  0  0  0  2  0  0  0  0
    1.8076   -2.0130    0.0000 C   0  0  0  0  0  0  0  2  0  0  0  0
    2.6145   -1.8415    0.0000 C   0  0  0  0  0  0  0  2  0  0  0  0
    2.8695   -1.0569    0.0000 C   0  0  0  0  0  0  0  2  0  0  0  0
    2.3174   -0.4438    0.0000 C   0  0  0  0  0  0  0  2  0  0  0  0
    1.5105   -0.6153    0.0000 C   0  0  0  0  0  0  0  2  0  0  0  0
    0.8430   -0.1304    0.0000 C   0  0  0  0  0  0  0  2  0  0  0  0
    1.2555    0.5841    0.0000 O   0  0  0  0  0  0  0  2  0  0  0  0
    0.4305    0.5841    0.0000 C   0  0  0  0  0  0  0  2  0  0  0  0
    0.8430    1.2986    0.0000 O   0  0  0  0  0  0  0  2  0  0  0  0
   -0.3945    0.5841    0.0000 O   0  0  0  0  0  0  0  2  0  0  0  0
   -0.8070    1.2986    0.0000 C   0  0  0  0  0  0  0  2  0  0  0  0
   -1.6320    1.2986    0.0000 C   0  0  0  0  0  0  0  2  0  0  0  0
   -2.0445    2.0130    0.0000 C   0  0  0  0  0  0  0  2  0  0  0  0
   -2.8695    2.0130    0.0000 C   0  0  0  0  0  0  0  2  0  0  0  0
    0.1756   -0.6153    0.0000 C   0  0  0  0  0  0  0  2  0  0  0  0
   -0.6314   -0.4438    0.0000 C   0  0  0  0  0  0  0  2  0  0  0  0
  1  2  4  0        0
  2  3  4  0        0
  3  4  4  0        0
  4  5  1  0        0
  5  6  4  0        0
  6  7  4  0        0
  7  8  4  0        0
  8  9  4  0        0
  9 10  4  0        0
  5 10  4  0        0
 10 11  1  0        0
 11 12  1  0        0
 11 13  1  0        0
 13 14  2  0        0
 13 15  1  0        0
 15 16  1  0        0
 16 17  1  0        0
 17 18  1  0        0
 18 19  1  0        0
 11 20  1  0        0
  4 20  4  0        0
 20 21  4  0        0
  1 21  4  0        0
M  END
$$$$

CDXL12

  9  8  0  0  0  0  0  0  0  0999 V2000
   -0.3572    1.2375    0.0000 O   0  0  0  0  0  0  0  2  0  0  0  0
   -0.3572    0.4125    0.0000 C   0  0  0  0  0  0  0  2  0  0  0  0
    0.3572   -0.0000    0.0000 N   0  0  0  0  0  0  0  2  0  0  0  0
    1.0717    0.4125    0.0000 C   0  0  0  0  0  0  0  2  0  0  0  0
    1.7862   -0.0000    0.0000 C   0  0  0  0  0  0  0  2  0  0  0  0
    0.3572   -0.8250    0.0000 C   0  0  0  0  0  0  0  2  0  0  0  0
    1.0717   -1.2375    0.0000 C   0  0  0  0  0  0  0  2  0  0  0  0
   -1.0717   -0.0000    0.0000 C   0  0  0  0  0  0  0  2  0  0  0  0
   -1.7862    0.4125    0.0000 Cl  0  0  0  0  0  0  0  2  0  0  0  0
  1  2  2  0        0
  2  3  1  0        0
  3  4  1  0        0
  4  5  1  0        0
  3  6  1  0        0
  6  7  1  0        0
  2  8  1  0        0
  8  9  1  0        0
M  END
$$$$

CDXL12

 12 12  0  0  0  0  0  0  0  0999 V2000
   -0.3572    1.2375    0.0000 O   0  0  0  0  0  0  0  2  0  0  0  0
   -0.3572    0.4125    0.0000 C   0  0  0  0  0  0  0  2  0  0  0  0
    0.3572   -0.0000    0.0000 O   0  0  0  0  0  0  0  2  0  0  0  0
    1.0717    0.4125    0.0000 C   0  0  0  0  0  0  0  2  0  0  0  0
    1.7862   -0.0000    0.0000 C   0  0  0  0  0  0  0  2  0  0  0  0
    2.5006    0.4125    0.0000 C   0  0  0  0  0  0  0  2  0  0  0  0
   -1.0717   -0.0000    0.0000 C   0  0  0  0  0  0  0  2  0  0  0  0
   -1.0717   -0.8250    0.0000 C   0  0  0  0  0  0  0  2  0  0  0  0
   -1.7862   -1.2375    0.0000 C   0  0  0  0  0  0  0  2  0  0  0  0
   -2.5006   -0.8250    0.0000 C   0  0  0  0  0  0  0  2  0  0  0  0
   -2.5006   -0.0000    0.0000 C   0  0  0  0  0  0  0  2  0  0  0  0
   -1.7862    0.4125    0.0000 C   0  0  0  0  0  0  0  2  0  0  0  0
  1  2  2  0        0
  2  3  1  0        0
  3  4  1  0        0
  4  5  1  0        0
  5  6  1  0        0
  2  7  1  0        0
  7  8  4  0        0
  8  9  4  0        0
  9 10  4  0        0
 10 11  4  0        0
 11 12  4  0        0
  7 12  4  0        0
M  END
$$$$

CDXL12

 10 10  0  0  0  0  0  0  0  0999 V2000
    0.0000    1.2375    0.0000 F   0  0  0  0  0  0  0  2  0  0  0  0
    0.0000    0.4125    0.0000 C   0  0  0  0  0  0  0  2  0  0  0  0
    0.7145    0.0000    0.0000 C   0  0  0  0  0  0  0  2  0  0  0  0
    1.4289    0.4125    0.0000 F   0  0  0  0  0  0  0  2  0  0  0  0
    0.7145   -0.8250    0.0000 C   0  0  0  0  0  0  0  2  0  0  0  0
    1.4289   -1.2375    0.0000 F   0  0  0  0  0  0  0  2  0  0  0  0
    0.0000   -1.2375    0.0000 C   0  0  0  0  0  0  0  2  0  0  0  0
   -0.7145   -0.8250    0.0000 C   0  0  0  0  0  0  0  2  0  0  0  0
   -1.4289   -1.2375    0.0000 F   0  0  0  0  0  0  0  2  0  0  0  0
   -0.7145    0.0000    0.0000 C   0  0  0  0  0  0  0  2  0  0  0  0
  1  2  1  0        0
  2  3  4  0        0
  3  4  1  0        0
  3  5  4  0        0
  5  6  1  0        0
  5  7  4  0        0
  7  8  4  0        0
  8  9  1  0        0
  8 10  4  0        0
  2 10  4  0        0
M  END
$$$$

CDXL12

  8  7  0  0  0  0  0  0  0  0999 V2000
    1.7862   -0.1510    0.0000 O   0  0  0  0  0  0  0  2  0  0  0  0
    1.0717   -0.5635    0.0000 C   0  0  0  0  0  0  0  2  0  0  0  0
    0.3572   -0.1510    0.0000 C   0  0  0  0  0  0  0  2  0  0  0  0
   -0.0553    0.5635    0.0000 C   0  0  0  0  0  0  0  2  0  0  0  0
    0.7697    0.5635    0.0000 C   0  0  0  0  0  0  0  2  0  0  0  0
   -0.3572   -0.5635    0.0000 C   0  0  0  0  0  0  0  2  0  0  0  0
   -1.0717   -0.1510    0.0000 C   0  0  0  0  0  0  0  2  0  0  0  0
   -1.7862   -0.5635    0.0000 C   0  0  0  0  0  0  0  2  0  0  0  0
  1  2  1  0        0
  2  3  1  0        0
  3  4  1  0        0
  3  5  1  0        0
  3  6  1  0        0
  6  7  1  0        0
  7  8  1  0        0
M  END
$$$$

CDXL12

 14 15  0  0  0  0  0  0  0  0999 V2000
   -2.7782    0.0000    0.0000 O   0  0  0  0  0  0  0  2  0  0  0  0
   -2.0637   -0.4125    0.0000 C   0  0  0  0  0  0  0  2  0  0  0  0
   -2.0637   -1.2375    0.0000 O   0  0  0  0  0  0  0  2  0  0  0  0
   -1.3492    0.0000    0.0000 C   0  0  0  0  0  0  0  2  0  0  0  0
   -0.6348   -0.4125    0.0000 C   0  0  0  0  0  0  0  2  0  0  0  0
    0.0797    0.0000    0.0000 C   0  0  0  0  0  0  0  2  0  0  0  0
    0.0797    0.8250    0.0000 C   0  0  0  0  0  0  0  2  0  0  0  0
    0.7942    1.2375    0.0000 C   0  0  0  0  0  0  0  2  0  0  0  0
    1.5086    0.8250    0.0000 C   0  0  0  0  0  0  0  2  0  0  0  0
    2.2933    1.0799    0.0000 O   0  0  0  0  0  0  0  2  0  0  0  0
    2.7782    0.4125    0.0000 C   0  0  0  0  0  0  0  2  0  0  0  0
    2.2933   -0.2549    0.0000 O   0  0  0  0  0  0  0  2  0  0  0  0
    1.5086    0.0000    0.0000 C   0  0  0  0  0  0  0  2  0  0  0  0
    0.7942   -0.4125    0.0000 C   0  0  0  0  0  0  0  2  0  0  0  0
  1  2  1  0        0
  2  3  2  0        0
  2  4  1  0        0
  4  5  2  0        0
  5  6  1  0        0
  6  7  4  0        0
  7  8  4  0        0
  8  9  4  0        0
  9 10  1  0        0
 10 11  1  0        0
 11 12  1  0        0
 12 13  1  0        0
  9 13  4  0        0
 13 14  4  0        0
  6 14  4  0        0
M  END
$$$$

CDXL12

 19 22  0  0  0  0  0  0  0  0999 V2000
   -2.8579    0.2062    0.0000 C   0  0  0  0  0  0  0  2  0  0  0  0
   -2.1434   -0.2063    0.0000 C   0  0  0  0  0  0  0  2  0  0  0  0
   -2.1434   -1.0313    0.0000 C   0  0  0  0  0  0  0  2  0  0  0  0
   -1.4289   -1.4438    0.0000 C   0  0  0  0  0  0  0  2  0  0  0  0
   -0.7145   -1.0313    0.0000 C   0  0  0  0  0  0  0  2  0  0  0  0
    0.0000   -1.4438    0.0000 C   0  0  0  0  0  0  0  2  0  0  0  0
    0.7145   -1.0312    0.0000 C   0  0  0  0  0  0  0  2  0  0  0  0
    1.4289   -1.4437    0.0000 C   0  0  0  0  0  0  0  2  0  0  0  0
    2.1434   -1.0313    0.0000 C   0  0  0  0  0  0  0  2  0  0  0  0
    2.1434   -0.2062    0.0000 C   0  0  0  0  0  0  0  2  0  0  0  0
    2.8579    0.2062    0.0000 C   0  0  0  0  0  0  0  2  0  0  0  0
    2.8579    1.0312    0.0000 C   0  0  0  0  0  0  0  2  0  0  0  0
    2.1434    1.4438    0.0000 C   0  0  0  0  0  0  0  2  0  0  0  0
    1.4289    1.0313    0.0000 C   0  0  0  0  0  0  0  2  0  0  0  0
    1.4289    0.2062    0.0000 C   0  0  0  0  0  0  0  2  0  0  0  0
    0.7145   -0.2062    0.0000 C   0  0  0  0  0  0  0  2  0  0  0  0
    0.0000    0.2062    0.0000 C   0  0  0  0  0  0  0  2  0  0  0  0
   -0.7145   -0.2063    0.0000 C   0  0  0  0  0  0  0  2  0  0  0  0
   -1.4289    0.2062    0.0000 C   0  0  0  0  0  0  0  2  0  0  0  0
  1  2  1  0        0
  2  3  4  0        0
  3  4  4  0        0
  4  5  4  0        0
  5  6  4  0        0
  6  7  4  0        0
  7  8  4  0        0
  8  9  4  0        0
  9 10  4  0        0
 10 11  4  0        0
 11 12  4  0        0
 12 13  4  0        0
 13 14  4  0        0
 14 15  4  0        0
 10 15  4  0        0
 15 16  4  0        0
  7 16  4  0        0
 16 17  4  0        0
 17 18  4  0        0
  5 18  4  0        0
 18 19  4  0        0
  2 19  4  0        0
M  END
$$$$

CDXL12

 19 22  0  0  0  0  0  0  0  0999 V2000
   -2.8579   -1.4438    0.0000 C   0  0  0  0  0  0  0  2  0  0  0  0
   -2.1434   -1.0313    0.0000 C   0  0  0  0  0  0  0  2  0  0  0  0
   -2.1434   -0.2063    0.0000 C   0  0  0  0  0  0  0  2  0  0  0  0
   -1.4289    0.2062    0.0000 C   0  0  0  0  0  0  0  2  0  0  0  0
   -0.7145   -0.2063    0.0000 C   0  0  0  0  0  0  0  2  0  0  0  0
    0.0000    0.2062    0.0000 C   0  0  0  0  0  0  0  2  0  0  0  0
    0.7145   -0.2062    0.0000 C   0  0  0  0  0  0  0  2  0  0  0  0
    0.7145   -1.0312    0.0000 C   0  0  0  0  0  0  0  2  0  0  0  0
    1.4289   -1.4437    0.0000 C   0  0  0  0  0  0  0  2  0  0  0  0
    2.1434   -1.0313    0.0000 C   0  0  0  0  0  0  0  2  0  0  0  0
    2.1434   -0.2063    0.0000 C   0  0  0  0  0  0  0  2  0  0  0  0
    2.8579    0.2062    0.0000 C   0  0  0  0  0  0  0  2  0  0  0  0
    2.8579    1.0312    0.0000 C   0  0  0  0  0  0  0  2  0  0  0  0
    2.1434    1.4438    0.0000 C   0  0  0  0  0  0  0  2  0  0  0  0
    1.4289    1.0313    0.0000 C   0  0  0  0  0  0  0  2  0  0  0  0
    1.4289    0.2062    0.0000 C   0  0  0  0  0  0  0  2  0  0  0  0
    0.0000   -1.4437    0.0000 C   0  0  0  0  0  0  0  2  0  0  0  0
   -0.7145   -1.0313    0.0000 C   0  0  0  0  0  0  0  2  0  0  0  0
   -1.4289   -1.4438    0.0000 C   0  0  0  0  0  0  0  2  0  0  0  0
  1  2  1  0        0
  2  3  4  0        0
  3  4  4  0        0
  4  5  4  0        0
  5  6  4  0        0
  6  7  4  0        0
  7  8  4  0        0
  8  9  4  0        0
  9 10  4  0        0
 10 11  4  0        0
 11 12  4  0        0
 12 13  4  0        0
 13 14  4  0        0
 14 15  4  0        0
 15 16  4  0        0
  7 16  4  0        0
 11 16  4  0        0
  8 17  4  0        0
 17 18  4  0        0
  5 18  4  0        0
 18 19  4  0        0
  2 19  4  0        0
M  END
$$$$

CDXL12

 21 25  0  0  0  0  0  0  0  0999 V2000
   -0.3572   -1.8563    0.0000 C   0  0  0  0  0  0  0  2  0  0  0  0
   -0.3572   -1.0313    0.0000 C   0  0  0  0  0  0  0  2  0  0  0  0
   -1.0717   -0.6188    0.0000 C   0  0  0  0  0  0  0  2  0  0  0  0
   -1.7862   -1.0313    0.0000 C   0  0  0  0  0  0  0  2  0  0  0  0
   -2.5006   -0.6187    0.0000 C   0  0  0  0  0  0  0  2  0  0  0  0
   -2.5006    0.2062    0.0000 C   0  0  0  0  0  0  0  2  0  0  0  0
   -1.7862    0.6187    0.0000 C   0  0  0  0  0  0  0  2  0  0  0  0
   -1.0717    0.2062    0.0000 C   0  0  0  0  0  0  0  2  0  0  0  0
   -0.3572    0.6187    0.0000 C   0  0  0  0  0  0  0  2  0  0  0  0
   -0.3572    1.4438    0.0000 C   0  0  0  0  0  0  0  2  0  0  0  0
    0.3572    1.8563    0.0000 C   0  0  0  0  0  0  0  2  0  0  0  0
    1.0717    1.4437    0.0000 C   0  0  0  0  0  0  0  2  0  0  0  0
    1.7862    1.8562    0.0000 C   0  0  0  0  0  0  0  2  0  0  0  0
    2.5006    1.4437    0.0000 C   0  0  0  0  0  0  0  2  0  0  0  0
    2.5006    0.6187    0.0000 C   0  0  0  0  0  0  0  2  0  0  0  0
    1.7862    0.2062    0.0000 C   0  0  0  0  0  0  0  2  0  0  0  0
    1.7862   -0.6187    0.0000 C   0  0  0  0  0  0  0  2  0  0  0  0
    1.0717   -1.0312    0.0000 C   0  0  0  0  0  0  0  2  0  0  0  0
    0.3572   -0.6187    0.0000 C   0  0  0  0  0  0  0  2  0  0  0  0
    0.3572    0.2062    0.0000 C   0  0  0  0  0  0  0  2  0  0  0  0
    1.0717    0.6187    0.0000 C   0  0  0  0  0  0  0  2  0  0  0  0
  1  2  1  0        0
  2  3  4  0        0
  3  4  4  0        0
  4  5  4  0        0
  5  6  4  0        0
  6  7  4  0        0
  7  8  4  0        0
  3  8  4  0        0
  8  9  4  0        0
  9 10  4  0        0
 10 11  4  0        0
 11 12  4  0        0
 12 13  4  0        0
 13 14  4  0        0
 14 15  4  0        0
 15 16  4  0        0
 16 17  4  0        0
 17 18  4  0        0
 18 19  4  0        0
  2 19  4  0        0
 19 20  4  0        0
  9 20  4  0        0
 20 21  4  0        0
 12 21  4  0        0
 16 21  4  0        0
M  END
$$$$

CDXL12

 10 10  0  0  0  0  0  0  0  0999 V2000
   -2.1434   -0.8250    0.0000 Cl  0  0  0  0  0  0  0  2  0  0  0  0
   -1.4289   -0.4125    0.0000 C   0  0  0  0  0  0  0  2  0  0  0  0
   -0.7145   -0.8250    0.0000 C   0  0  0  0  0  0  0  2  0  0  0  0
    0.0000   -0.4125    0.0000 C   0  0  0  0  0  0  0  2  0  0  0  0
    0.7145   -0.8250    0.0000 N   0  0  0  0  0  0  0  2  0  0  0  0
    1.4289   -0.4125    0.0000 C   0  0  0  0  0  0  0  2  0  0  0  0
    2.1434    0.0000    0.0000 S   0  0  0  0  0  0  0  2  0  0  0  0
    0.0000    0.4125    0.0000 C   0  0  0  0  0  0  0  2  0  0  0  0
   -0.7145    0.8250    0.0000 C   0  0  0  0  0  0  0  2  0  0  0  0
   -1.4289    0.4125    0.0000 C   0  0  0  0  0  0  0  2  0  0  0  0
  1  2  1  0        0
  2  3  4  0        0
  3  4  4  0        0
  4  5  1  0        0
  5  6  2  0        0
  6  7  2  0        0
  4  8  4  0        0
  8  9  4  0        0
  9 10  4  0        0
  2 10  4  0        0
M  END
$$$$

CDXL12

  7  6  0  0  0  0  0  0  0  0999 V2000
   -1.4289   -0.0000    0.0000 C   0  0  0  0  0  0  0  2  0  0  0  0
   -2.1434    0.4125    0.0000 C   0  0  0  0  0  0  0  2  0  0  0  0
   -0.7145   -0.4125    0.0000 C   0  0  0  0  0  0  0  2  0  0  0  0
    0.0000   -0.0000    0.0000 C   0  0  0  0  0  0  0  2  0  0  0  0
    0.7145   -0.4125    0.0000 C   0  0  0  0  0  0  0  2  0  0  0  0
    1.4289   -0.0000    0.0000 C   0  0  0  0  0  0  0  2  0  0  0  0
    2.1434    0.4125    0.0000 C   0  0  0  0  0  0  0  2  0  0  0  0
  1  2  3  0        0
  1  3  1  0        0
  3  4  1  0        0
  4  5  1  0        0
  5  6  1  0        0
  6  7  3  0        0
M  END
$$$$

CDXL12

  9  8  0  0  0  0  0  0  0  0999 V2000
    2.1434   -0.0000    0.0000 C   0  0  0  0  0  0  0  2  0  0  0  0
    2.8579   -0.4125    0.0000 C   0  0  0  0  0  0  0  2  0  0  0  0
    1.4289    0.4125    0.0000 C   0  0  0  0  0  0  0  2  0  0  0  0
    0.7145   -0.0000    0.0000 C   0  0  0  0  0  0  0  2  0  0  0  0
    0.0000    0.4125    0.0000 C   0  0  0  0  0  0  0  2  0  0  0  0
   -0.7145   -0.0000    0.0000 C   0  0  0  0  0  0  0  2  0  0  0  0
   -1.4289    0.4125    0.0000 C   0  0  0  0  0  0  0  2  0  0  0  0
   -2.1434    0.0000    0.0000 C   0  0  0  0  0  0  0  2  0  0  0  0
   -2.8579   -0.4125    0.0000 C   0  0  0  0  0  0  0  2  0  0  0  0
  1  2  3  0        0
  1  3  1  0        0
  3  4  1  0        0
  4  5  1  0        0
  5  6  1  0        0
  6  7  1  0        0
  7  8  1  0        0
  8  9  3  0        0
M  END
$$$$

CDXL12

 10 10  0  0  0  0  0  0  0  0999 V2000
    0.0000   -1.2375    0.0000 O   0  0  0  0  0  0  0  2  0  0  0  0
    0.0000   -0.4125    0.0000 C   0  0  0  0  0  0  0  2  0  0  0  0
   -0.7145   -0.0000    0.0000 C   0  0  0  0  0  0  0  2  0  0  0  0
   -0.7145    0.8250    0.0000 C   0  0  0  0  0  0  0  2  0  0  0  0
    0.0000    1.2375    0.0000 C   0  0  0  0  0  0  0  2  0  0  0  0
    0.7145    0.8250    0.0000 C   0  0  0  0  0  0  0  2  0  0  0  0
    1.4289    1.2375    0.0000 C   0  0  0  0  0  0  0  2  0  0  0  0
    0.7145   -0.0000    0.0000 C   0  0  0  0  0  0  0  2  0  0  0  0
    1.4289   -0.4125    0.0000 C   0  0  0  0  0  0  0  2  0  0  0  0
   -1.4289   -0.4125    0.0000 C   0  0  0  0  0  0  0  2  0  0  0  0
  1  2  1  0        0
  2  3  4  0        0
  3  4  4  0        0
  4  5  4  0        0
  5  6  4  0        0
  6  7  1  0        0
  6  8  4  0        0
  2  8  4  0        0
  8  9  1  0        0
  3 10  1  0        0
M  END
$$$$

CDXL12

 19 22  0  0  0  0  0  0  0  0999 V2000
   -0.3572    1.0313    0.0000 C   0  0  0  0  0  0  0  2  0  0  0  0
   -0.3572    0.2063    0.0000 C   0  0  0  0  0  0  0  2  0  0  0  0
   -1.0717   -0.2062    0.0000 C   0  0  0  0  0  0  0  2  0  0  0  0
   -1.7862    0.2063    0.0000 C   0  0  0  0  0  0  0  2  0  0  0  0
   -2.5006   -0.2063    0.0000 C   0  0  0  0  0  0  0  2  0  0  0  0
   -2.5006   -1.0312    0.0000 C   0  0  0  0  0  0  0  2  0  0  0  0
   -1.7862   -1.4437    0.0000 C   0  0  0  0  0  0  0  2  0  0  0  0
   -1.0717   -1.0312    0.0000 C   0  0  0  0  0  0  0  2  0  0  0  0
   -0.3572   -1.4437    0.0000 C   0  0  0  0  0  0  0  2  0  0  0  0
    0.3572   -1.0312    0.0000 C   0  0  0  0  0  0  0  2  0  0  0  0
    1.0717   -1.4437    0.0000 C   0  0  0  0  0  0  0  2  0  0  0  0
    1.7862   -1.0312    0.0000 C   0  0  0  0  0  0  0  2  0  0  0  0
    1.7862   -0.2063    0.0000 C   0  0  0  0  0  0  0  2  0  0  0  0
    2.5006    0.2062    0.0000 C   0  0  0  0  0  0  0  2  0  0  0  0
    2.5006    1.0312    0.0000 C   0  0  0  0  0  0  0  2  0  0  0  0
    1.7862    1.4437    0.0000 C   0  0  0  0  0  0  0  2  0  0  0  0
    1.0717    1.0312    0.0000 C   0  0  0  0  0  0  0  2  0  0  0  0
    1.0717    0.2062    0.0000 C   0  0  0  0  0  0  0  2  0  0  0  0
    0.3572   -0.2063    0.0000 C   0  0  0  0  0  0  0  2  0  0  0  0
  1  2  1  0        0
  2  3  4  0        0
  3  4  4  0        0
  4  5  4  0        0
  5  6  4  0        0
  6  7  4  0        0
  7  8  4  0        0
  3  8  4  0        0
  8  9  4  0        0
  9 10  4  0        0
 10 11  4  0        0
 11 12  4  0        0
 12 13  4  0        0
 13 14  4  0        0
 14 15  4  0        0
 15 16  4  0        0
 16 17  4  0        0
 17 18  4  0        0
 13 18  4  0        0
 18 19  4  0        0
  2 19  4  0        0
 10 19  4  0        0
M  END
$$$$

CDXL12

 18 19  0  0  0  0  0  0  0  0999 V2000
    2.5867    0.0437    0.0000 Cl  0  0  0  0  0  0  0  2  0  0  0  0
    2.1742   -0.6708    0.0000 C   0  0  0  0  0  0  0  2  0  0  0  0
    2.5867   -1.3852    0.0000 Cl  0  0  0  0  0  0  0  2  0  0  0  0
    1.3492   -0.6708    0.0000 C   0  0  0  0  0  0  0  2  0  0  0  0
    0.6348   -1.0833    0.0000 Cl  0  0  0  0  0  0  0  2  0  0  0  0
    1.3492   -1.4958    0.0000 Cl  0  0  0  0  0  0  0  2  0  0  0  0
    0.9367    0.0437    0.0000 S   0  0  0  0  0  0  0  2  0  0  0  0
    0.1117    0.0437    0.0000 N   0  0  0  0  0  0  0  2  0  0  0  0
   -0.3732    0.7111    0.0000 C   0  0  0  0  0  0  0  2  0  0  0  0
   -0.1182    1.4958    0.0000 O   0  0  0  0  0  0  0  2  0  0  0  0
   -1.1578    0.4562    0.0000 C   0  0  0  0  0  0  0  2  0  0  0  0
   -1.8723    0.8687    0.0000 C   0  0  0  0  0  0  0  2  0  0  0  0
   -2.5867    0.4562    0.0000 C   0  0  0  0  0  0  0  2  0  0  0  0
   -2.5867   -0.3688    0.0000 C   0  0  0  0  0  0  0  2  0  0  0  0
   -1.8723   -0.7813    0.0000 C   0  0  0  0  0  0  0  2  0  0  0  0
   -1.1578   -0.3688    0.0000 C   0  0  0  0  0  0  0  2  0  0  0  0
   -0.3732   -0.6237    0.0000 C   0  0  0  0  0  0  0  2  0  0  0  0
   -0.1182   -1.4084    0.0000 O   0  0  0  0  0  0  0  2  0  0  0  0
  1  2  1  0        0
  2  3  1  0        0
  2  4  1  0        0
  4  5  1  0        0
  4  6  1  0        0
  4  7  1  0        0
  7  8  1  0        0
  8  9  1  0        0
  9 10  2  0        0
  9 11  1  0        0
 11 12  1  0        0
 12 13  1  0        0
 13 14  2  0        0
 14 15  1  0        0
 15 16  1  0        0
 11 16  1  0        0
 16 17  1  0        0
  8 17  1  0        0
 17 18  2  0        0
M  END
$$$$

CDXL12

 36 36  0  0  0  0  0  0  0  0999 V2000
   -3.5724   -1.6500    0.0000 O   0  0  0  0  0  0  0  2  0  0  0  0
   -3.5724   -0.8250    0.0000 C   0  0  0  0  0  0  0  2  0  0  0  0
   -2.8579   -0.4125    0.0000 O   0  0  0  0  0  0  0  2  0  0  0  0
   -2.1434   -0.8250    0.0000 C   0  0  0  0  0  0  0  2  0  0  0  0
   -1.4289   -0.4125    0.0000 C   0  0  0  0  0  0  0  2  0  0  0  0
   -0.7145   -0.8250    0.0000 C   0  0  0  0  0  0  0  2  0  0  0  0
    0.0000   -0.4125    0.0000 C   0  0  0  0  0  0  0  2  0  0  0  0
    0.7145   -0.8250    0.0000 C   0  0  0  0  0  0  0  2  0  0  0  0
    1.4289   -0.4125    0.0000 C   0  0  0  0  0  0  0  2  0  0  0  0
    2.1434   -0.8250    0.0000 C   0  0  0  0  0  0  0  2  0  0  0  0
    2.8579   -0.4125    0.0000 C   0  0  0  0  0  0  0  2  0  0  0  0
    3.5724   -0.8250    0.0000 C   0  0  0  0  0  0  0  2  0  0  0  0
    4.2868   -0.4125    0.0000 C   0  0  0  0  0  0  0  2  0  0  0  0
    5.0013   -0.8250    0.0000 C   0  0  0  0  0  0  0  2  0  0  0  0
    5.7158   -0.4125    0.0000 C   0  0  0  0  0  0  0  2  0  0  0  0
   -4.2868   -0.4125    0.0000 C   0  0  0  0  0  0  0  2  0  0  0  0
   -4.2868    0.4125    0.0000 C   0  0  0  0  0  0  0  2  0  0  0  0
   -5.0013    0.8250    0.0000 C   0  0  0  0  0  0  0  2  0  0  0  0
   -5.7158    0.4125    0.0000 C   0  0  0  0  0  0  0  2  0  0  0  0
   -5.7158   -0.4125    0.0000 C   0  0  0  0  0  0  0  2  0  0  0  0
   -5.0013   -0.8250    0.0000 C   0  0  0  0  0  0  0  2  0  0  0  0
   -3.5724    0.8250    0.0000 C   0  0  0  0  0  0  0  2  0  0  0  0
   -3.5724    1.6500    0.0000 O   0  0  0  0  0  0  0  2  0  0  0  0
   -2.8579    0.4125    0.0000 O   0  0  0  0  0  0  0  2  0  0  0  0
   -2.1434    0.8250    0.0000 C   0  0  0  0  0  0  0  2  0  0  0  0
   -1.4289    0.4125    0.0000 C   0  0  0  0  0  0  0  2  0  0  0  0
   -0.7145    0.8250    0.0000 C   0  0  0  0  0  0  0  2  0  0  0  0
    0.0000    0.4125    0.0000 C   0  0  0  0  0  0  0  2  0  0  0  0
    0.7145    0.8250    0.0000 C   0  0  0  0  0  0  0  2  0  0  0  0
    1.4289    0.4125    0.0000 C   0  0  0  0  0  0  0  2  0  0  0  0
    2.1434    0.8250    0.0000 C   0  0  0  0  0  0  0  2  0  0  0  0
    2.8579    0.4125    0.0000 C   0  0  0  0  0  0  0  2  0  0  0  0
    3.5724    0.8250    0.0000 C   0  0  0  0  0  0  0  2  0  0  0  0
    4.2868    0.4125    0.0000 C   0  0  0  0  0  0  0  2  0  0  0  0
    5.0013    0.8250    0.0000 C   0  0  0  0  0  0  0  2  0  0  0  0
    5.7158    0.4125    0.0000 C   0  0  0  0  0  0  0  2  0  0  0  0
  1  2  2  0        0
  2  3  1  0        0
  3  4  1  0        0
  4  5  1  0        0
  5  6  1  0        0
  6  7  1  0        0
  7  8  1  0        0
  8  9  1  0        0
  9 10  1  0        0
 10 11  1  0        0
 11 12  1  0        0
 12 13  1  0        0
 13 14  1  0        0
 14 15  1  0        0
  2 16  1  0        0
 16 17  4  0        0
 17 18  4  0        0
 18 19  4  0        0
 19 20  4  0        0
 20 21  4  0        0
 16 21  4  0        0
 17 22  1  0        0
 22 23  2  0        0
 22 24  1  0        0
 24 25  1  0        0
 25 26  1  0        0
 26 27  1  0        0
 27 28  1  0        0
 28 29  1  0        0
 29 30  1  0        0
 30 31  1  0        0
 31 32  1  0        0
 32 33  1  0        0
 33 34  1  0        0
 34 35  1  0        0
 35 36  1  0        0
M  END
$$$$

CDXL12

 16 17  0  0  0  0  0  0  0  0999 V2000
   -2.5006   -1.4437    0.0000 Cl  0  0  0  0  0  0  0  2  0  0  0  0
   -1.7862   -1.0312    0.0000 C   0  0  0  0  0  0  0  2  0  0  0  0
   -1.7862   -0.2062    0.0000 C   0  0  0  0  0  0  0  2  0  0  0  0
   -1.0717    0.2063    0.0000 C   0  0  0  0  0  0  0  2  0  0  0  0
   -0.3572   -0.2063    0.0000 C   0  0  0  0  0  0  0  2  0  0  0  0
   -0.3572   -1.0312    0.0000 C   0  0  0  0  0  0  0  2  0  0  0  0
    0.3572   -1.4437    0.0000 Cl  0  0  0  0  0  0  0  2  0  0  0  0
   -1.0717   -1.4437    0.0000 C   0  0  0  0  0  0  0  2  0  0  0  0
    0.3572    0.2062    0.0000 C   0  0  0  0  0  0  0  2  0  0  0  0
    1.0717   -0.2063    0.0000 C   0  0  0  0  0  0  0  2  0  0  0  0
    1.7862    0.2062    0.0000 C   0  0  0  0  0  0  0  2  0  0  0  0
    1.7862    1.0312    0.0000 C   0  0  0  0  0  0  0  2  0  0  0  0
    2.5006    1.4437    0.0000 Cl  0  0  0  0  0  0  0  2  0  0  0  0
    1.0717    1.4437    0.0000 C   0  0  0  0  0  0  0  2  0  0  0  0
    0.3572    1.0312    0.0000 C   0  0  0  0  0  0  0  2  0  0  0  0
   -0.3572    1.4437    0.0000 Cl  0  0  0  0  0  0  0  2  0  0  0  0
  1  2  1  0        0
  2  3  4  0        0
  3  4  4  0        0
  4  5  4  0        0
  5  6  4  0        0
  6  7  1  0        0
  6  8  4  0        0
  2  8  4  0        0
  5  9  1  0        0
  9 10  4  0        0
 10 11  4  0        0
 11 12  4  0        0
 12 13  1  0        0
 12 14  4  0        0
 14 15  4  0        0
  9 15  4  0        0
 15 16  1  0        0
M  END
$$$$

CDXL12

 14 14  0  0  0  0  0  0  0  0999 V2000
    0.3572    1.2375    0.0000 Cl  0  0  0  0  0  0  0  2  0  0  0  0
   -0.3572    0.8250    0.0000 C   0  0  0  0  0  0  0  2  0  0  0  0
   -1.0717    1.2375    0.0000 C   0  0  0  0  0  0  0  2  0  0  0  0
   -1.7862    0.8250    0.0000 C   0  0  0  0  0  0  0  2  0  0  0  0
   -1.7862   -0.0000    0.0000 C   0  0  0  0  0  0  0  2  0  0  0  0
   -2.5006   -0.4125    0.0000 Cl  0  0  0  0  0  0  0  2  0  0  0  0
   -1.0717   -0.4125    0.0000 C   0  0  0  0  0  0  0  2  0  0  0  0
   -1.0717   -1.2375    0.0000 Cl  0  0  0  0  0  0  0  2  0  0  0  0
   -0.3572    0.0000    0.0000 C   0  0  0  0  0  0  0  2  0  0  0  0
    0.3572   -0.4125    0.0000 C   0  0  0  0  0  0  0  2  0  0  0  0
    1.0717    0.0000    0.0000 C   0  0  0  0  0  0  0  2  0  0  0  0
    1.0717    0.8250    0.0000 O   0  0  0  0  0  0  0  2  0  0  0  0
    1.7862   -0.4125    0.0000 O   0  0  0  0  0  0  0  2  0  0  0  0
    2.5006   -0.0000    0.0000 Na  0  0  0  0  0  0  0  2  0  0  0  0
  1  2  1  0        0
  2  3  4  0        0
  3  4  4  0        0
  4  5  4  0        0
  5  6  1  0        0
  5  7  4  0        0
  7  8  1  0        0
  7  9  4  0        0
  2  9  4  0        0
  9 10  1  0        0
 10 11  1  0        0
 11 12  2  0        0
 11 13  1  0        0
 13 14  1  0        0
M  END
$$$$

CDXL12

 15 17  0  0  0  0  0  0  0  0999 V2000
   -2.1190    0.4125    0.0000 C   0  0  0  0  0  0  0  2  0  0  0  0
   -2.1190   -0.4125    0.0000 C   0  0  0  0  0  0  0  2  0  0  0  0
   -2.8334   -0.8250    0.0000 C   0  0  0  0  0  0  0  2  0  0  0  0
   -1.4045   -0.8250    0.0000 C   0  0  0  0  0  0  0  2  0  0  0  0
   -0.6900   -0.4125    0.0000 C   0  0  0  0  0  0  0  2  0  0  0  0
    0.0244   -0.8250    0.0000 N   0  0  0  0  0  0  0  2  0  0  0  0
    0.7389   -0.4125    0.0000 C   0  0  0  0  0  0  0  2  0  0  0  0
    1.5235   -0.6674    0.0000 S   0  0  0  0  0  0  0  2  0  0  0  0
    2.0084    0.0000    0.0000 C   0  0  0  0  0  0  0  2  0  0  0  0
    2.8334    0.0000    0.0000 O   0  0  0  0  0  0  0  2  0  0  0  0
    1.5235    0.6674    0.0000 S   0  0  0  0  0  0  0  2  0  0  0  0
    0.7389    0.4125    0.0000 C   0  0  0  0  0  0  0  2  0  0  0  0
    0.0244    0.8250    0.0000 N   0  0  0  0  0  0  0  2  0  0  0  0
   -0.6900    0.4125    0.0000 C   0  0  0  0  0  0  0  2  0  0  0  0
   -1.4045    0.8250    0.0000 C   0  0  0  0  0  0  0  2  0  0  0  0
  1  2  4  0        0
  2  3  1  0        0
  2  4  4  0        0
  4  5  4  0        0
  5  6  4  0        0
  6  7  4  0        0
  7  8  1  0        0
  8  9  1  0        0
  9 10  2  0        0
  9 11  1  0        0
 11 12  1  0        0
  7 12  4  0        0
 12 13  4  0        0
 13 14  4  0        0
  5 14  4  0        0
 14 15  4  0        0
  1 15  4  0        0
M  END
$$$$

CDXL12

 22 21  0  0  0  0  0  0  0  0999 V2000
    6.0730   -0.2063    0.0000 C   0  0  0  0  0  0  0  2  0  0  0  0
    5.3585    0.2062    0.0000 C   0  0  0  0  0  0  0  2  0  0  0  0
    4.6441   -0.2063    0.0000 C   0  0  0  0  0  0  0  2  0  0  0  0
    3.9296    0.2062    0.0000 C   0  0  0  0  0  0  0  2  0  0  0  0
    3.2151   -0.2063    0.0000 C   0  0  0  0  0  0  0  2  0  0  0  0
    2.5006    0.2062    0.0000 C   0  0  0  0  0  0  0  2  0  0  0  0
    1.7862   -0.2063    0.0000 C   0  0  0  0  0  0  0  2  0  0  0  0
    1.0717    0.2062    0.0000 C   0  0  0  0  0  0  0  2  0  0  0  0
    0.3572   -0.2063    0.0000 C   0  0  0  0  0  0  0  2  0  0  0  0
   -0.3572    0.2062    0.0000 C   0  0  0  0  0  0  0  2  0  0  0  0
   -1.0717   -0.2063    0.0000 C   0  0  0  0  0  0  0  2  0  0  0  0
   -1.7862    0.2062    0.0000 C   0  0  0  0  0  0  0  2  0  0  0  0
   -2.5006   -0.2063    0.0000 N   0  0  0  0  0  0  0  2  0  0  0  0
   -3.2151    0.2062    0.0000 C   0  0  0  0  0  0  0  2  0  0  0  0
   -3.2151    1.0312    0.0000 N   0  0  0  0  0  0  0  2  0  0  0  0
   -3.9296   -0.2063    0.0000 N   0  0  0  0  0  0  0  2  0  0  0  0
   -4.3421   -0.9207    0.0000 H   0  0  0  0  0  0  0  2  0  0  0  0
   -3.5171   -0.9207    0.0000 H   0  0  0  0  0  0  0  2  0  0  0  0
   -4.6441    0.2062    0.0000 O   0  0  0  0  0  0  0  2  0  0  0  0
   -5.3585   -0.2063    0.0000 C   0  0  0  0  0  0  0  2  0  0  0  0
   -5.3585   -1.0312    0.0000 O   0  0  0  0  0  0  0  2  0  0  0  0
   -6.0730    0.2062    0.0000 C   0  0  0  0  0  0  0  2  0  0  0  0
  1  2  1  0        0
  2  3  1  0        0
  3  4  1  0        0
  4  5  1  0        0
  5  6  1  0        0
  6  7  1  0        0
  7  8  1  0        0
  8  9  1  0        0
  9 10  1  0        0
 10 11  1  0        0
 11 12  1  0        0
 12 13  1  0        0
 13 14  1  0        0
 14 15  2  0        0
 14 16  1  0        0
 16 17  1  0        0
 16 18  1  0        0
 16 19  1  0        0
 19 20  1  0        0
 20 21  2  0        0
 20 22  1  0        0
M  END
$$$$

CDXL12

 15 14  0  0  0  0  0  0  0  0999 V2000
   -1.0717    0.6187    0.0000 O   0  0  0  0  0  0  0  2  0  0  0  0
   -1.0717   -0.2062    0.0000 P   0  0  0  0  0  0  0  2  0  0  0  0
   -1.0717   -1.0313    0.0000 O   0  0  0  0  0  0  0  2  0  0  0  0
   -1.7862   -0.6188    0.0000 O   0  0  0  0  0  0  0  2  0  0  0  0
   -0.3572   -0.6188    0.0000 C   0  0  0  0  0  0  0  2  0  0  0  0
    0.3572   -0.2062    0.0000 N   0  0  0  0  0  0  0  2  0  0  0  0
    1.0717   -0.6188    0.0000 C   0  0  0  0  0  0  0  2  0  0  0  0
    1.0717   -1.4438    0.0000 P   0  0  0  0  0  0  0  2  0  0  0  0
    0.3572   -1.8563    0.0000 O   0  0  0  0  0  0  0  2  0  0  0  0
    1.7862   -1.8563    0.0000 O   0  0  0  0  0  0  0  2  0  0  0  0
    1.7862   -1.0313    0.0000 O   0  0  0  0  0  0  0  2  0  0  0  0
    0.3572    0.6187    0.0000 C   0  0  0  0  0  0  0  2  0  0  0  0
    1.0717    1.0313    0.0000 C   0  0  0  0  0  0  0  2  0  0  0  0
    1.0717    1.8563    0.0000 O   0  0  0  0  0  0  0  2  0  0  0  0
    1.7862    0.6188    0.0000 O   0  0  0  0  0  0  0  2  0  0  0  0
  1  2  2  0        0
  2  3  1  0        0
  2  4  1  0        0
  2  5  1  0        0
  5  6  1  0        0
  6  7  1  0        0
  7  8  1  0        0
  8  9  2  0        0
  8 10  1  0        0
  8 11  1  0        0
  6 12  1  0        0
 12 13  1  0        0
 13 14  2  0        0
 13 15  1  0        0
M  END
$$$$

CDXL12

 21 24  0  0  0  0  0  0  0  0999 V2000
    1.4289   -0.2615    0.0000 O   0  0  0  0  0  0  0  2  0  0  0  0
    0.7145    0.1510    0.0000 C   0  0  0  0  0  0  0  2  0  0  0  0
    0.0000   -0.2615    0.0000 N   0  0  0  0  0  0  0  2  0  0  0  0
   -0.7145    0.1510    0.0000 C   0  0  0  0  0  0  0  2  0  0  0  0
   -1.4289   -0.2615    0.0000 O   0  0  0  0  0  0  0  2  0  0  0  0
   -0.7145    0.9760    0.0000 N   0  0  0  0  0  0  0  2  0  0  0  0
    0.0000    1.3885    0.0000 C   0  0  0  0  0  0  0  2  0  0  0  0
    0.0000    2.2135    0.0000 O   0  0  0  0  0  0  0  2  0  0  0  0
    0.7145    0.9760    0.0000 N   0  0  0  0  0  0  0  2  0  0  0  0
    1.4289    1.3885    0.0000 C   0  0  0  0  0  0  0  2  0  0  0  0
    2.1434    0.9760    0.0000 C   0  0  0  0  0  0  0  2  0  0  0  0
    2.9684    0.9760    0.0000 O   0  0  0  0  0  0  0  2  0  0  0  0
    2.5559    0.2615    0.0000 C   0  0  0  0  0  0  0  2  0  0  0  0
   -1.4289    1.3885    0.0000 C   0  0  0  0  0  0  0  2  0  0  0  0
   -2.1434    0.9760    0.0000 C   0  0  0  0  0  0  0  2  0  0  0  0
   -2.5559    0.2615    0.0000 O   0  0  0  0  0  0  0  2  0  0  0  0
   -2.9684    0.9760    0.0000 C   0  0  0  0  0  0  0  2  0  0  0  0
    0.0000   -1.0865    0.0000 C   0  0  0  0  0  0  0  2  0  0  0  0
   -0.7145   -1.4990    0.0000 C   0  0  0  0  0  0  0  2  0  0  0  0
   -1.1270   -2.2135    0.0000 O   0  0  0  0  0  0  0  2  0  0  0  0
   -1.5395   -1.4990    0.0000 C   0  0  0  0  0  0  0  2  0  0  0  0
  1  2  2  0        0
  2  3  1  0        0
  3  4  1  0        0
  4  5  2  0        0
  4  6  1  0        0
  6  7  1  0        0
  7  8  2  0        0
  7  9  1  0        0
  2  9  1  0        0
  9 10  1  0        0
 10 11  1  0        0
 11 12  1  0        0
 12 13  1  0        0
 11 13  1  0        0
  6 14  1  0        0
 14 15  1  0        0
 15 16  1  0        0
 16 17  1  0        0
 15 17  1  0        0
  3 18  1  0        0
 18 19  1  0        0
 19 20  1  0        0
 20 21  1  0        0
 19 21  1  0        0
M  END
$$$$

CDXL12

 21 22  0  0  0  0  0  0  0  0999 V2000
   -2.1434   -3.3000    0.0000 O   0  0  0  0  0  0  0  2  0  0  0  0
   -1.4289   -2.8875    0.0000 C   0  0  0  0  0  0  0  2  0  0  0  0
   -0.7145   -3.3000    0.0000 C   0  0  0  0  0  0  0  2  0  0  0  0
    0.0000   -2.8875    0.0000 N   0  0  0  0  0  0  0  2  0  0  0  0
    0.7145   -3.3000    0.0000 C   0  0  0  0  0  0  0  2  0  0  0  0
    1.4289   -2.8875    0.0000 C   0  0  0  0  0  0  0  2  0  0  0  0
    2.1434   -3.3000    0.0000 O   0  0  0  0  0  0  0  2  0  0  0  0
    0.0000   -2.0625    0.0000 C   0  0  0  0  0  0  0  2  0  0  0  0
   -0.7145   -1.6500    0.0000 C   0  0  0  0  0  0  0  2  0  0  0  0
   -0.7145   -0.8250    0.0000 C   0  0  0  0  0  0  0  2  0  0  0  0
    0.0000   -0.4125    0.0000 C   0  0  0  0  0  0  0  2  0  0  0  0
    0.7145   -0.8250    0.0000 C   0  0  0  0  0  0  0  2  0  0  0  0
    0.7145   -1.6500    0.0000 C   0  0  0  0  0  0  0  2  0  0  0  0
    0.0000    0.4125    0.0000 N   0  0  0  0  0  0  0  2  0  0  0  0
   -0.7145    0.8250    0.0000 N   0  0  0  0  0  0  0  2  0  0  0  0
   -0.7145    1.6500    0.0000 C   0  0  0  0  0  0  0  2  0  0  0  0
   -1.4289    2.0625    0.0000 C   0  0  0  0  0  0  0  2  0  0  0  0
   -1.4289    2.8875    0.0000 C   0  0  0  0  0  0  0  2  0  0  0  0
   -0.7145    3.3000    0.0000 C   0  0  0  0  0  0  0  2  0  0  0  0
    0.0000    2.8875    0.0000 C   0  0  0  0  0  0  0  2  0  0  0  0
    0.0000    2.0625    0.0000 C   0  0  0  0  0  0  0  2  0  0  0  0
  1  2  1  0        0
  2  3  1  0        0
  3  4  1  0        0
  4  5  1  0        0
  5  6  1  0        0
  6  7  1  0        0
  4  8  1  0        0
  8  9  4  0        0
  9 10  4  0        0
 10 11  4  0        0
 11 12  4  0        0
 12 13  4  0        0
  8 13  4  0        0
 11 14  1  0        0
 14 15  2  0        0
 15 16  1  0        0
 16 17  4  0        0
 17 18  4  0        0
 18 19  4  0        0
 19 20  4  0        0
 20 21  4  0        0
 16 21  4  0        0
M  END
$$$$

CDXL12

 21 22  0  0  0  0  0  0  0  0999 V2000
    2.8579   -1.6500    0.0000 C   0  0  0  0  0  0  0  2  0  0  0  0
    2.8579   -0.8250    0.0000 N   0  0  0  0  0  0  0  2  0  0  0  0
    3.5724   -0.4125    0.0000 C   0  0  0  0  0  0  0  2  0  0  0  0
    2.1434   -0.4125    0.0000 C   0  0  0  0  0  0  0  2  0  0  0  0
    1.4289   -0.8250    0.0000 C   0  0  0  0  0  0  0  2  0  0  0  0
    0.7145   -0.4125    0.0000 C   0  0  0  0  0  0  0  2  0  0  0  0
    0.7145    0.4125    0.0000 C   0  0  0  0  0  0  0  2  0  0  0  0
    1.4289    0.8250    0.0000 C   0  0  0  0  0  0  0  2  0  0  0  0
    2.1434    0.4125    0.0000 C   0  0  0  0  0  0  0  2  0  0  0  0
   -0.0000    0.8250    0.0000 C   0  0  0  0  0  0  0  2  0  0  0  0
   -0.0000    1.6500    0.0000 N   0  0  0  0  0  0  0  2  0  0  0  0
   -0.7145    0.4125    0.0000 C   0  0  0  0  0  0  0  2  0  0  0  0
   -0.7145   -0.4125    0.0000 C   0  0  0  0  0  0  0  2  0  0  0  0
   -1.4289   -0.8250    0.0000 C   0  0  0  0  0  0  0  2  0  0  0  0
   -2.1434   -0.4125    0.0000 C   0  0  0  0  0  0  0  2  0  0  0  0
   -2.1434    0.4125    0.0000 C   0  0  0  0  0  0  0  2  0  0  0  0
   -1.4289    0.8250    0.0000 C   0  0  0  0  0  0  0  2  0  0  0  0
   -2.8579   -0.8250    0.0000 N   0  0  0  0  0  0  0  2  0  0  0  0
   -2.8579   -1.6500    0.0000 C   0  0  0  0  0  0  0  2  0  0  0  0
   -3.5724   -0.4125    0.0000 C   0  0  0  0  0  0  0  2  0  0  0  0
   -3.5724   -1.2375    0.0000 Cl  0  0  0  0  0  0  0  2  0  0  0  0
  1  2  1  0        0
  2  3  1  0        0
  2  4  1  0        0
  4  5  4  0        0
  5  6  4  0        0
  6  7  4  0        0
  7  8  4  0        0
  8  9  4  0        0
  4  9  4  0        0
  7 10  1  0        0
 10 11  2  0        0
 10 12  1  0        0
 12 13  4  0        0
 13 14  4  0        0
 14 15  4  0        0
 15 16  4  0        0
 16 17  4  0        0
 12 17  4  0        0
 15 18  1  0        0
 18 19  1  0        0
 18 20  1  0        0
 18 21  1  0        0
M  END
$$$$

CDXL12

 20 22  0  0  0  0  0  0  0  0999 V2000
    0.0000   -1.6500    0.0000 O   0  0  0  0  0  0  0  2  0  0  0  0
    0.0000   -0.8250    0.0000 C   0  0  0  0  0  0  0  2  0  0  0  0
   -0.7145   -0.4125    0.0000 C   0  0  0  0  0  0  0  2  0  0  0  0
   -0.7145    0.4125    0.0000 C   0  0  0  0  0  0  0  2  0  0  0  0
    0.0000    0.8250    0.0000 C   0  0  0  0  0  0  0  2  0  0  0  0
    0.0000    1.6500    0.0000 O   0  0  0  0  0  0  0  2  0  0  0  0
    0.7145    0.4125    0.0000 C   0  0  0  0  0  0  0  2  0  0  0  0
    1.4289    0.8250    0.0000 C   0  0  0  0  0  0  0  2  0  0  0  0
    1.4289    1.6500    0.0000 N   0  0  0  0  0  0  0  2  0  0  0  0
    2.1434    2.0625    0.0000 C   0  0  0  0  0  0  0  2  0  0  0  0
    2.1434    0.4125    0.0000 C   0  0  0  0  0  0  0  2  0  0  0  0
    2.1434   -0.4125    0.0000 C   0  0  0  0  0  0  0  2  0  0  0  0
    1.4289   -0.8250    0.0000 C   0  0  0  0  0  0  0  2  0  0  0  0
    1.4289   -1.6500    0.0000 N   0  0  0  0  0  0  0  2  0  0  0  0
    2.1434   -2.0625    0.0000 C   0  0  0  0  0  0  0  2  0  0  0  0
    0.7145   -0.4125    0.0000 C   0  0  0  0  0  0  0  2  0  0  0  0
   -1.4289    0.8250    0.0000 C   0  0  0  0  0  0  0  2  0  0  0  0
   -2.1434    0.4125    0.0000 C   0  0  0  0  0  0  0  2  0  0  0  0
   -2.1434   -0.4125    0.0000 C   0  0  0  0  0  0  0  2  0  0  0  0
   -1.4289   -0.8250    0.0000 C   0  0  0  0  0  0  0  2  0  0  0  0
  1  2  2  0        0
  2  3  1  0        0
  3  4  4  0        0
  4  5  1  0        0
  5  6  2  0        0
  5  7  1  0        0
  7  8  4  0        0
  8  9  1  0        0
  9 10  1  0        0
  8 11  4  0        0
 11 12  4  0        0
 12 13  4  0        0
 13 14  1  0        0
 14 15  1  0        0
 13 16  4  0        0
  2 16  1  0        0
  7 16  4  0        0
  4 17  4  0        0
 17 18  4  0        0
 18 19  4  0        0
 19 20  4  0        0
  3 20  4  0        0
M  END
$$$$

CDXL12

 20 22  0  0  0  0  0  0  0  0999 V2000
    0.0000   -1.6500    0.0000 O   0  0  0  0  0  0  0  2  0  0  0  0
    0.0000   -0.8250    0.0000 C   0  0  0  0  0  0  0  2  0  0  0  0
    0.7145   -0.4125    0.0000 C   0  0  0  0  0  0  0  2  0  0  0  0
    0.7145    0.4125    0.0000 C   0  0  0  0  0  0  0  2  0  0  0  0
    1.4289    0.8250    0.0000 C   0  0  0  0  0  0  0  2  0  0  0  0
    1.4289    1.6500    0.0000 N   0  0  0  0  0  0  0  2  0  0  0  0
    2.1434    0.4125    0.0000 C   0  0  0  0  0  0  0  2  0  0  0  0
    2.1434   -0.4125    0.0000 C   0  0  0  0  0  0  0  2  0  0  0  0
    1.4289   -0.8250    0.0000 C   0  0  0  0  0  0  0  2  0  0  0  0
    1.4289   -1.6500    0.0000 N   0  0  0  0  0  0  0  2  0  0  0  0
    0.0000    0.8250    0.0000 C   0  0  0  0  0  0  0  2  0  0  0  0
    0.0000    1.6500    0.0000 O   0  0  0  0  0  0  0  2  0  0  0  0
   -0.7145    0.4125    0.0000 C   0  0  0  0  0  0  0  2  0  0  0  0
   -1.4289    0.8250    0.0000 C   0  0  0  0  0  0  0  2  0  0  0  0
   -1.4289    1.6500    0.0000 N   0  0  0  0  0  0  0  2  0  0  0  0
   -2.1434    0.4125    0.0000 C   0  0  0  0  0  0  0  2  0  0  0  0
   -2.1434   -0.4125    0.0000 C   0  0  0  0  0  0  0  2  0  0  0  0
   -1.4289   -0.8250    0.0000 C   0  0  0  0  0  0  0  2  0  0  0  0
   -1.4289   -1.6500    0.0000 N   0  0  0  0  0  0  0  2  0  0  0  0
   -0.7145   -0.4125    0.0000 C   0  0  0  0  0  0  0  2  0  0  0  0
  1  2  2  0        0
  2  3  1  0        0
  3  4  4  0        0
  4  5  4  0        0
  5  6  1  0        0
  5  7  4  0        0
  7  8  4  0        0
  8  9  4  0        0
  3  9  4  0        0
  9 10  1  0        0
  4 11  1  0        0
 11 12  2  0        0
 11 13  1  0        0
 13 14  4  0        0
 14 15  1  0        0
 14 16  4  0        0
 16 17  4  0        0
 17 18  4  0        0
 18 19  1  0        0
 18 20  4  0        0
  2 20  1  0        0
 13 20  4  0        0
M  END
$$$$

CDXL12

 15 14  0  0  0  0  0  0  0  0999 V2000
   -3.2151    0.2062    0.0000 C   0  0  0  0  0  0  0  2  0  0  0  0
   -2.5006    0.6187    0.0000 C   0  0  0  0  0  0  0  2  0  0  0  0
   -1.7862    0.2062    0.0000 O   0  0  0  0  0  0  0  2  0  0  0  0
   -1.0717    0.6187    0.0000 P   0  0  0  0  0  0  0  2  0  0  0  0
   -1.0717    1.4438    0.0000 S   0  0  0  0  0  0  0  2  0  0  0  0
   -1.0717   -0.2062    0.0000 O   0  0  0  0  0  0  0  2  0  0  0  0
   -1.7862   -0.6188    0.0000 C   0  0  0  0  0  0  0  2  0  0  0  0
   -1.7862   -1.4438    0.0000 C   0  0  0  0  0  0  0  2  0  0  0  0
   -0.3572    0.2062    0.0000 S   0  0  0  0  0  0  0  2  0  0  0  0
    0.3572    0.6188    0.0000 C   0  0  0  0  0  0  0  2  0  0  0  0
    1.0717    0.2062    0.0000 C   0  0  0  0  0  0  0  2  0  0  0  0
    1.7862    0.6187    0.0000 S   0  0  0  0  0  0  0  2  0  0  0  0
    1.7862    1.4437    0.0000 O   0  0  0  0  0  0  0  2  0  0  0  0
    2.5006    0.2062    0.0000 C   0  0  0  0  0  0  0  2  0  0  0  0
    3.2151    0.6187    0.0000 C   0  0  0  0  0  0  0  2  0  0  0  0
  1  2  1  0        0
  2  3  1  0        0
  3  4  1  0        0
  4  5  2  0        0
  4  6  1  0        0
  6  7  1  0        0
  7  8  1  0        0
  4  9  1  0        0
  9 10  1  0        0
 10 11  1  0        0
 11 12  1  0        0
 12 13  2  0        0
 12 14  1  0        0
 14 15  1  0        0
M  END
$$$$

CDXL12

 19 22  0  0  0  0  0  0  0  0999 V2000
    0.3572    1.4437    0.0000 C   0  0  0  0  0  0  0  2  0  0  0  0
    1.0717    1.0312    0.0000 C   0  0  0  0  0  0  0  2  0  0  0  0
    1.7862    1.4437    0.0000 C   0  0  0  0  0  0  0  2  0  0  0  0
    2.5006    1.0312    0.0000 C   0  0  0  0  0  0  0  2  0  0  0  0
    2.5006    0.2062    0.0000 C   0  0  0  0  0  0  0  2  0  0  0  0
    1.7862   -0.2063    0.0000 C   0  0  0  0  0  0  0  2  0  0  0  0
    1.7862   -1.0312    0.0000 C   0  0  0  0  0  0  0  2  0  0  0  0
    1.0717   -1.4437    0.0000 C   0  0  0  0  0  0  0  2  0  0  0  0
    0.3572   -1.0312    0.0000 C   0  0  0  0  0  0  0  2  0  0  0  0
   -0.3572   -1.4437    0.0000 C   0  0  0  0  0  0  0  2  0  0  0  0
   -1.0717   -1.0312    0.0000 C   0  0  0  0  0  0  0  2  0  0  0  0
   -1.7862   -1.4437    0.0000 C   0  0  0  0  0  0  0  2  0  0  0  0
   -2.5006   -1.0312    0.0000 C   0  0  0  0  0  0  0  2  0  0  0  0
   -2.5006   -0.2062    0.0000 C   0  0  0  0  0  0  0  2  0  0  0  0
   -1.7862    0.2063    0.0000 C   0  0  0  0  0  0  0  2  0  0  0  0
   -1.0717   -0.2062    0.0000 C   0  0  0  0  0  0  0  2  0  0  0  0
   -0.3572    0.2063    0.0000 C   0  0  0  0  0  0  0  2  0  0  0  0
    0.3572   -0.2063    0.0000 C   0  0  0  0  0  0  0  2  0  0  0  0
    1.0717    0.2062    0.0000 C   0  0  0  0  0  0  0  2  0  0  0  0
  1  2  1  0        0
  2  3  4  0        0
  3  4  4  0        0
  4  5  4  0        0
  5  6  4  0        0
  6  7  4  0        0
  7  8  4  0        0
  8  9  4  0        0
  9 10  4  0        0
 10 11  4  0        0
 11 12  4  0        0
 12 13  4  0        0
 13 14  4  0        0
 14 15  4  0        0
 15 16  4  0        0
 11 16  4  0        0
 16 17  4  0        0
 17 18  4  0        0
  9 18  4  0        0
 18 19  4  0        0
  2 19  4  0        0
  6 19  4  0        0
M  END
$$$$

CDXL12

 13 13  0  0  0  0  0  0  0  0999 V2000
    1.0717   -1.6500    0.0000 O   0  0  0  0  0  0  0  2  0  0  0  0
    1.0717   -0.8250    0.0000 C   0  0  0  0  0  0  0  2  0  0  0  0
    1.7862   -0.4125    0.0000 O   0  0  0  0  0  0  0  2  0  0  0  0
    0.3572   -0.4125    0.0000 C   0  0  0  0  0  0  0  2  0  0  0  0
    0.3572    0.4125    0.0000 C   0  0  0  0  0  0  0  2  0  0  0  0
    1.0717    0.8250    0.0000 N   0  0  0  0  0  0  0  2  0  0  0  0
    1.0717    1.6500    0.0000 O   0  0  0  0  0  0  0  2  0  0  0  0
    1.7862    0.4125    0.0000 O   0  0  0  0  0  0  0  2  0  0  0  0
   -0.3572    0.8250    0.0000 C   0  0  0  0  0  0  0  2  0  0  0  0
   -1.0717    0.4125    0.0000 C   0  0  0  0  0  0  0  2  0  0  0  0
   -1.0717   -0.4125    0.0000 C   0  0  0  0  0  0  0  2  0  0  0  0
   -1.7862   -0.8250    0.0000 Cl  0  0  0  0  0  0  0  2  0  0  0  0
   -0.3572   -0.8250    0.0000 C   0  0  0  0  0  0  0  2  0  0  0  0
  1  2  2  0        0
  2  3  1  0        0
  2  4  1  0        0
  4  5  4  0        0
  5  6  1  0        0
  6  7  2  0        0
  6  8  2  0        0
  5  9  4  0        0
  9 10  4  0        0
 10 11  4  0        0
 11 12  1  0        0
 11 13  4  0        0
  4 13  4  0        0
M  END
$$$$

CDXL12

 19 19  0  0  0  0  0  0  0  0999 V2000
   -0.0000   -1.6500    0.0000 O   0  0  0  0  0  0  0  2  0  0  0  0
   -0.0000   -0.8250    0.0000 P   0  0  0  0  0  0  0  2  0  0  0  0
    0.7145   -0.4125    0.0000 O   0  0  0  0  0  0  0  2  0  0  0  0
    1.4289   -0.8250    0.0000 C   0  0  0  0  0  0  0  2  0  0  0  0
    2.1434   -0.4125    0.0000 C   0  0  0  0  0  0  0  2  0  0  0  0
    2.8579   -0.8250    0.0000 C   0  0  0  0  0  0  0  2  0  0  0  0
    3.5724   -0.4125    0.0000 C   0  0  0  0  0  0  0  2  0  0  0  0
   -0.7145   -0.4125    0.0000 O   0  0  0  0  0  0  0  2  0  0  0  0
   -1.4289   -0.8250    0.0000 C   0  0  0  0  0  0  0  2  0  0  0  0
   -2.1434   -0.4125    0.0000 C   0  0  0  0  0  0  0  2  0  0  0  0
   -2.8579   -0.8250    0.0000 C   0  0  0  0  0  0  0  2  0  0  0  0
   -3.5724   -0.4125    0.0000 C   0  0  0  0  0  0  0  2  0  0  0  0
   -0.0000    0.0000    0.0000 O   0  0  0  0  0  0  0  2  0  0  0  0
   -0.7145    0.4125    0.0000 C   0  0  0  0  0  0  0  2  0  0  0  0
   -1.4289    0.0000    0.0000 C   0  0  0  0  0  0  0  2  0  0  0  0
   -2.1434    0.4125    0.0000 C   0  0  0  0  0  0  0  2  0  0  0  0
   -2.1434    1.2375    0.0000 C   0  0  0  0  0  0  0  2  0  0  0  0
   -1.4289    1.6500    0.0000 C   0  0  0  0  0  0  0  2  0  0  0  0
   -0.7145    1.2375    0.0000 C   0  0  0  0  0  0  0  2  0  0  0  0
  1  2  2  0        0
  2  3  1  0        0
  3  4  1  0        0
  4  5  1  0        0
  5  6  1  0        0
  6  7  1  0        0
  2  8  1  0        0
  8  9  1  0        0
  9 10  1  0        0
 10 11  1  0        0
 11 12  1  0        0
  2 13  1  0        0
 13 14  1  0        0
 14 15  4  0        0
 15 16  4  0        0
 16 17  4  0        0
 17 18  4  0        0
 18 19  4  0        0
 14 19  4  0        0
M  END
$$$$

CDXL12

 19 21  0  0  0  0  0  0  0  0999 V2000
   -0.4035    1.6558    0.0000 O   0  0  0  0  0  0  0  2  0  0  0  0
   -0.8160    0.9413    0.0000 C   0  0  0  0  0  0  0  2  0  0  0  0
   -1.6410    0.9413    0.0000 O   0  0  0  0  0  0  0  2  0  0  0  0
   -2.0535    1.6558    0.0000 C   0  0  0  0  0  0  0  2  0  0  0  0
   -0.4035    0.2268    0.0000 C   0  0  0  0  0  0  0  2  0  0  0  0
    0.0090    0.9413    0.0000 O   0  0  0  0  0  0  0  2  0  0  0  0
    0.2640   -0.2581    0.0000 C   0  0  0  0  0  0  0  2  0  0  0  0
    0.0090   -1.0427    0.0000 C   0  0  0  0  0  0  0  2  0  0  0  0
   -0.8160   -1.0427    0.0000 C   0  0  0  0  0  0  0  2  0  0  0  0
   -1.3680   -1.6558    0.0000 C   0  0  0  0  0  0  0  2  0  0  0  0
   -2.1750   -1.4843    0.0000 C   0  0  0  0  0  0  0  2  0  0  0  0
   -2.4299   -0.6996    0.0000 C   0  0  0  0  0  0  0  2  0  0  0  0
   -1.8779   -0.0865    0.0000 C   0  0  0  0  0  0  0  2  0  0  0  0
   -1.0709   -0.2581    0.0000 C   0  0  0  0  0  0  0  2  0  0  0  0
    0.5610   -1.6558    0.0000 C   0  0  0  0  0  0  0  2  0  0  0  0
    1.3680   -1.4843    0.0000 C   0  0  0  0  0  0  0  2  0  0  0  0
    1.6230   -0.6996    0.0000 C   0  0  0  0  0  0  0  2  0  0  0  0
    2.4299   -0.5281    0.0000 Cl  0  0  0  0  0  0  0  2  0  0  0  0
    1.0709   -0.0865    0.0000 C   0  0  0  0  0  0  0  2  0  0  0  0
  1  2  2  0        0
  2  3  1  0        0
  3  4  1  0        0
  2  5  1  0        0
  5  6  1  0        0
  5  7  1  0        0
  7  8  4  0        0
  8  9  1  0        0
  9 10  4  0        0
 10 11  4  0        0
 11 12  4  0        0
 12 13  4  0        0
 13 14  4  0        0
  5 14  1  0        0
  9 14  4  0        0
  8 15  4  0        0
 15 16  4  0        0
 16 17  4  0        0
 17 18  1  0        0
 17 19  4  0        0
  7 19  4  0        0
M  END
$$$$

CDXL12

 13 13  0  0  0  0  0  0  0  0999 V2000
    1.7862   -0.4125    0.0000 C   0  0  0  0  0  0  0  2  0  0  0  0
    1.0717   -0.8250    0.0000 O   0  0  0  0  0  0  0  2  0  0  0  0
    0.3572   -0.4125    0.0000 C   0  0  0  0  0  0  0  2  0  0  0  0
   -0.3572   -0.8250    0.0000 C   0  0  0  0  0  0  0  2  0  0  0  0
   -0.3572   -1.6500    0.0000 O   0  0  0  0  0  0  0  2  0  0  0  0
   -1.0717   -0.4125    0.0000 C   0  0  0  0  0  0  0  2  0  0  0  0
   -1.7862   -0.8250    0.0000 Cl  0  0  0  0  0  0  0  2  0  0  0  0
   -1.0717    0.4125    0.0000 C   0  0  0  0  0  0  0  2  0  0  0  0
   -1.7862    0.8250    0.0000 Cl  0  0  0  0  0  0  0  2  0  0  0  0
   -0.3572    0.8250    0.0000 C   0  0  0  0  0  0  0  2  0  0  0  0
   -0.3572    1.6500    0.0000 Cl  0  0  0  0  0  0  0  2  0  0  0  0
    0.3572    0.4125    0.0000 C   0  0  0  0  0  0  0  2  0  0  0  0
    1.0717    0.8250    0.0000 Cl  0  0  0  0  0  0  0  2  0  0  0  0
  1  2  1  0        0
  2  3  1  0        0
  3  4  4  0        0
  4  5  1  0        0
  4  6  4  0        0
  6  7  1  0        0
  6  8  4  0        0
  8  9  1  0        0
  8 10  4  0        0
 10 11  1  0        0
 10 12  4  0        0
  3 12  4  0        0
 12 13  1  0        0
M  END
$$$$

CDXL12

 14 14  0  0  0  0  0  0  0  0999 V2000
    0.0000   -1.6500    0.0000 O   0  0  0  0  0  0  0  2  0  0  0  0
    0.0000   -0.8250    0.0000 C   0  0  0  0  0  0  0  2  0  0  0  0
    0.7145   -0.4125    0.0000 C   0  0  0  0  0  0  0  2  0  0  0  0
    1.4289   -0.8250    0.0000 O   0  0  0  0  0  0  0  2  0  0  0  0
    2.1434   -0.4125    0.0000 C   0  0  0  0  0  0  0  2  0  0  0  0
    0.7145    0.4125    0.0000 C   0  0  0  0  0  0  0  2  0  0  0  0
    1.4289    0.8250    0.0000 Cl  0  0  0  0  0  0  0  2  0  0  0  0
    0.0000    0.8250    0.0000 C   0  0  0  0  0  0  0  2  0  0  0  0
    0.0000    1.6500    0.0000 Cl  0  0  0  0  0  0  0  2  0  0  0  0
   -0.7145    0.4125    0.0000 C   0  0  0  0  0  0  0  2  0  0  0  0
   -1.4289    0.8250    0.0000 Cl  0  0  0  0  0  0  0  2  0  0  0  0
   -0.7145   -0.4125    0.0000 C   0  0  0  0  0  0  0  2  0  0  0  0
   -1.4289   -0.8250    0.0000 O   0  0  0  0  0  0  0  2  0  0  0  0
   -2.1434   -0.4125    0.0000 C   0  0  0  0  0  0  0  2  0  0  0  0
  1  2  1  0        0
  2  3  4  0        0
  3  4  1  0        0
  4  5  1  0        0
  3  6  4  0        0
  6  7  1  0        0
  6  8  4  0        0
  8  9  1  0        0
  8 10  4  0        0
 10 11  1  0        0
 10 12  4  0        0
  2 12  4  0        0
 12 13  1  0        0
 13 14  1  0        0
M  END
$$$$

CDXL12

 14 13  0  0  0  0  0  0  0  0999 V2000
   -2.8579    0.2062    0.0000 C   0  0  0  0  0  0  0  2  0  0  0  0
   -2.1434   -0.2062    0.0000 O   0  0  0  0  0  0  0  2  0  0  0  0
   -1.4289    0.2062    0.0000 P   0  0  0  0  0  0  0  2  0  0  0  0
   -1.4289    1.0312    0.0000 S   0  0  0  0  0  0  0  2  0  0  0  0
   -1.4289   -0.6188    0.0000 O   0  0  0  0  0  0  0  2  0  0  0  0
   -2.1434   -1.0313    0.0000 C   0  0  0  0  0  0  0  2  0  0  0  0
   -0.7145   -0.2062    0.0000 S   0  0  0  0  0  0  0  2  0  0  0  0
    0.0000    0.2062    0.0000 C   0  0  0  0  0  0  0  2  0  0  0  0
    0.7145   -0.2062    0.0000 C   0  0  0  0  0  0  0  2  0  0  0  0
    0.7145   -1.0313    0.0000 O   0  0  0  0  0  0  0  2  0  0  0  0
    1.4289    0.2062    0.0000 N   0  0  0  0  0  0  0  2  0  0  0  0
    1.4289    1.0313    0.0000 C   0  0  0  0  0  0  0  2  0  0  0  0
    2.1434   -0.2062    0.0000 C   0  0  0  0  0  0  0  2  0  0  0  0
    2.8579    0.2062    0.0000 O   0  0  0  0  0  0  0  2  0  0  0  0
  1  2  1  0        0
  2  3  1  0        0
  3  4  2  0        0
  3  5  1  0        0
  5  6  1  0        0
  3  7  1  0        0
  7  8  1  0        0
  8  9  1  0        0
  9 10  2  0        0
  9 11  1  0        0
 11 12  1  0        0
 11 13  1  0        0
 13 14  2  0        0
M  END
$$$$

CDXL12

 19 22  0  0  0  0  0  0  0  0999 V2000
   -0.3572   -1.8562    0.0000 C   0  0  0  0  0  0  0  2  0  0  0  0
   -0.3572   -1.0312    0.0000 C   0  0  0  0  0  0  0  2  0  0  0  0
   -1.0717   -0.6187    0.0000 C   0  0  0  0  0  0  0  2  0  0  0  0
   -1.7862   -1.0312    0.0000 C   0  0  0  0  0  0  0  2  0  0  0  0
   -2.5006   -0.6187    0.0000 C   0  0  0  0  0  0  0  2  0  0  0  0
   -2.5006    0.2062    0.0000 C   0  0  0  0  0  0  0  2  0  0  0  0
   -1.7862    0.6188    0.0000 C   0  0  0  0  0  0  0  2  0  0  0  0
   -1.0717    0.2062    0.0000 C   0  0  0  0  0  0  0  2  0  0  0  0
   -0.3572    0.6188    0.0000 C   0  0  0  0  0  0  0  2  0  0  0  0
    0.3572    0.2062    0.0000 C   0  0  0  0  0  0  0  2  0  0  0  0
    0.3572   -0.6187    0.0000 C   0  0  0  0  0  0  0  2  0  0  0  0
    1.0717   -1.0313    0.0000 C   0  0  0  0  0  0  0  2  0  0  0  0
    1.7862   -0.6188    0.0000 C   0  0  0  0  0  0  0  2  0  0  0  0
    1.7862    0.2062    0.0000 C   0  0  0  0  0  0  0  2  0  0  0  0
    2.5006    0.6187    0.0000 C   0  0  0  0  0  0  0  2  0  0  0  0
    2.5006    1.4437    0.0000 C   0  0  0  0  0  0  0  2  0  0  0  0
    1.7862    1.8562    0.0000 C   0  0  0  0  0  0  0  2  0  0  0  0
    1.0717    1.4437    0.0000 C   0  0  0  0  0  0  0  2  0  0  0  0
    1.0717    0.6187    0.0000 C   0  0  0  0  0  0  0  2  0  0  0  0
  1  2  1  0        0
  2  3  4  0        0
  3  4  4  0        0
  4  5  4  0        0
  5  6  4  0        0
  6  7  4  0        0
  7  8  4  0        0
  3  8  4  0        0
  8  9  4  0        0
  9 10  4  0        0
 10 11  4  0        0
  2 11  4  0        0
 11 12  4  0        0
 12 13  4  0        0
 13 14  4  0        0
 14 15  4  0        0
 15 16  4  0        0
 16 17  4  0        0
 17 18  4  0        0
 18 19  4  0        0
 10 19  4  0        0
 14 19  4  0        0
M  END
$$$$

CDXL12

 11 11  0  0  0  0  0  0  0  0999 V2000
   -1.0717    1.2375    0.0000 O   0  0  0  0  0  0  0  2  0  0  0  0
   -1.0717    0.4125    0.0000 N   0  0  0  0  0  0  0  2  0  0  0  0
   -1.7862   -0.0000    0.0000 O   0  0  0  0  0  0  0  2  0  0  0  0
   -0.3572   -0.0000    0.0000 C   0  0  0  0  0  0  0  2  0  0  0  0
   -0.3572   -0.8250    0.0000 C   0  0  0  0  0  0  0  2  0  0  0  0
    0.3572   -1.2375    0.0000 C   0  0  0  0  0  0  0  2  0  0  0  0
    1.0717   -0.8250    0.0000 C   0  0  0  0  0  0  0  2  0  0  0  0
    1.7862   -1.2375    0.0000 O   0  0  0  0  0  0  0  2  0  0  0  0
    1.0717    0.0000    0.0000 C   0  0  0  0  0  0  0  2  0  0  0  0
    0.3572    0.4125    0.0000 C   0  0  0  0  0  0  0  2  0  0  0  0
   -1.0717   -1.2375    0.0000 C   0  0  0  0  0  0  0  2  0  0  0  0
  1  2  2  0        0
  2  3  2  0        0
  2  4  1  0        0
  4  5  4  0        0
  5  6  4  0        0
  6  7  4  0        0
  7  8  1  0        0
  7  9  4  0        0
  9 10  4  0        0
  4 10  4  0        0
  5 11  1  0        0
M  END
$$$$

CDXL12

 12 12  0  0  0  0  0  0  0  0999 V2000
    2.5450   -0.6273    0.0000 C   0  0  0  0  0  0  0  2  0  0  0  0
    1.8306   -0.2148    0.0000 C   0  0  0  0  0  0  0  2  0  0  0  0
    1.1161   -0.6273    0.0000 O   0  0  0  0  0  0  0  2  0  0  0  0
    0.4016   -0.2148    0.0000 C   0  0  0  0  0  0  0  2  0  0  0  0
   -0.3520   -0.5504    0.0000 N   0  0  0  0  0  0  0  2  0  0  0  0
   -0.9041    0.0627    0.0000 C   0  0  0  0  0  0  0  2  0  0  0  0
   -0.4916    0.7772    0.0000 N   0  0  0  0  0  0  0  2  0  0  0  0
    0.3154    0.6057    0.0000 S   0  0  0  0  0  0  0  2  0  0  0  0
   -1.7246   -0.0235    0.0000 C   0  0  0  0  0  0  0  2  0  0  0  0
   -2.5450   -0.1098    0.0000 Cl  0  0  0  0  0  0  0  2  0  0  0  0
   -2.0601   -0.7772    0.0000 Cl  0  0  0  0  0  0  0  2  0  0  0  0
   -2.2095    0.6439    0.0000 Cl  0  0  0  0  0  0  0  2  0  0  0  0
  1  2  1  0        0
  2  3  1  0        0
  3  4  1  0        0
  4  5  4  0        0
  5  6  4  0        0
  6  7  4  0        0
  7  8  4  0        0
  4  8  4  0        0
  6  9  1  0        0
  9 10  1  0        0
  9 11  1  0        0
  9 12  1  0        0
M  END
$$$$

CDXL12

 19 18  0  0  0  0  0  0  0  0999 V2000
    3.9296   -0.6187    0.0000 C   0  0  0  0  0  0  0  2  0  0  0  0
    3.2151   -0.2063    0.0000 C   0  0  0  0  0  0  0  2  0  0  0  0
    2.5006   -0.6187    0.0000 O   0  0  0  0  0  0  0  2  0  0  0  0
    1.7862   -0.2063    0.0000 C   0  0  0  0  0  0  0  2  0  0  0  0
    1.7862    0.6188    0.0000 O   0  0  0  0  0  0  0  2  0  0  0  0
    1.0717   -0.6187    0.0000 N   0  0  0  0  0  0  0  2  0  0  0  0
    1.0717   -1.4437    0.0000 C   0  0  0  0  0  0  0  2  0  0  0  0
    0.3572   -0.2062    0.0000 C   0  0  0  0  0  0  0  2  0  0  0  0
    0.3572    0.6188    0.0000 O   0  0  0  0  0  0  0  2  0  0  0  0
   -0.3572   -0.6187    0.0000 C   0  0  0  0  0  0  0  2  0  0  0  0
   -1.0717   -0.2063    0.0000 S   0  0  0  0  0  0  0  2  0  0  0  0
   -1.7862   -0.6187    0.0000 P   0  0  0  0  0  0  0  2  0  0  0  0
   -1.7862   -1.4437    0.0000 S   0  0  0  0  0  0  0  2  0  0  0  0
   -2.5006   -0.2063    0.0000 O   0  0  0  0  0  0  0  2  0  0  0  0
   -3.2151   -0.6187    0.0000 C   0  0  0  0  0  0  0  2  0  0  0  0
   -3.9296   -0.2063    0.0000 C   0  0  0  0  0  0  0  2  0  0  0  0
   -1.7862    0.2062    0.0000 O   0  0  0  0  0  0  0  2  0  0  0  0
   -2.5006    0.6187    0.0000 C   0  0  0  0  0  0  0  2  0  0  0  0
   -2.5006    1.4437    0.0000 C   0  0  0  0  0  0  0  2  0  0  0  0
  1  2  1  0        0
  2  3  1  0        0
  3  4  1  0        0
  4  5  2  0        0
  4  6  1  0        0
  6  7  1  0        0
  6  8  1  0        0
  8  9  2  0        0
  8 10  1  0        0
 10 11  1  0        0
 11 12  1  0        0
 12 13  2  0        0
 12 14  1  0        0
 14 15  1  0        0
 15 16  1  0        0
 12 17  1  0        0
 17 18  1  0        0
 18 19  1  0        0
M  END
$$$$

CDXL12

 19 19  0  0  0  0  0  0  0  0999 V2000
    2.8579   -0.6188    0.0000 C   0  0  0  0  0  0  0  2  0  0  0  0
    2.1434   -1.0313    0.0000 C   0  0  0  0  0  0  0  2  0  0  0  0
    1.4289   -0.6188    0.0000 O   0  0  0  0  0  0  0  2  0  0  0  0
    0.7145   -1.0313    0.0000 C   0  0  0  0  0  0  0  2  0  0  0  0
    0.7145   -1.8563    0.0000 O   0  0  0  0  0  0  0  2  0  0  0  0
    0.0000   -0.6188    0.0000 C   0  0  0  0  0  0  0  2  0  0  0  0
   -0.7145   -1.0313    0.0000 S   0  0  0  0  0  0  0  2  0  0  0  0
   -1.4289   -0.6188    0.0000 P   0  0  0  0  0  0  0  2  0  0  0  0
   -1.4289    0.2062    0.0000 S   0  0  0  0  0  0  0  2  0  0  0  0
   -2.1434   -1.0313    0.0000 O   0  0  0  0  0  0  0  2  0  0  0  0
   -2.8579   -0.6187    0.0000 C   0  0  0  0  0  0  0  2  0  0  0  0
   -1.4289   -1.4438    0.0000 O   0  0  0  0  0  0  0  2  0  0  0  0
   -2.1434   -1.8563    0.0000 C   0  0  0  0  0  0  0  2  0  0  0  0
    0.0000    0.2062    0.0000 C   0  0  0  0  0  0  0  2  0  0  0  0
   -0.7145    0.6188    0.0000 C   0  0  0  0  0  0  0  2  0  0  0  0
   -0.7145    1.4438    0.0000 C   0  0  0  0  0  0  0  2  0  0  0  0
    0.0000    1.8563    0.0000 C   0  0  0  0  0  0  0  2  0  0  0  0
    0.7145    1.4437    0.0000 C   0  0  0  0  0  0  0  2  0  0  0  0
    0.7145    0.6188    0.0000 C   0  0  0  0  0  0  0  2  0  0  0  0
  1  2  1  0        0
  2  3  1  0        0
  3  4  1  0        0
  4  5  2  0        0
  4  6  1  0        0
  6  7  1  0        0
  7  8  1  0        0
  8  9  2  0        0
  8 10  1  0        0
 10 11  1  0        0
  8 12  1  0        0
 12 13  1  0        0
  6 14  1  0        0
 14 15  4  0        0
 15 16  4  0        0
 16 17  4  0        0
 17 18  4  0        0
 18 19  4  0        0
 14 19  4  0        0
M  END
$$$$

CDXL12

 20 23  0  0  0  0  0  0  0  0999 V2000
    0.7145    0.6187    0.0000 C   0  0  0  0  0  0  0  2  0  0  0  0
   -0.0000    0.2062    0.0000 C   0  0  0  0  0  0  0  2  0  0  0  0
   -0.7145    0.6187    0.0000 C   0  0  0  0  0  0  0  2  0  0  0  0
   -1.4289    0.2062    0.0000 C   0  0  0  0  0  0  0  2  0  0  0  0
   -2.1434    0.6187    0.0000 C   0  0  0  0  0  0  0  2  0  0  0  0
   -2.8579    0.2062    0.0000 C   0  0  0  0  0  0  0  2  0  0  0  0
   -2.8579   -0.6187    0.0000 C   0  0  0  0  0  0  0  2  0  0  0  0
   -2.1434   -1.0312    0.0000 C   0  0  0  0  0  0  0  2  0  0  0  0
   -1.4289   -0.6187    0.0000 C   0  0  0  0  0  0  0  2  0  0  0  0
   -0.7145   -1.0312    0.0000 C   0  0  0  0  0  0  0  2  0  0  0  0
   -0.7145   -1.8562    0.0000 C   0  0  0  0  0  0  0  2  0  0  0  0
   -0.0000   -0.6187    0.0000 C   0  0  0  0  0  0  0  2  0  0  0  0
    0.7145   -1.0312    0.0000 C   0  0  0  0  0  0  0  2  0  0  0  0
    1.4289   -0.6187    0.0000 C   0  0  0  0  0  0  0  2  0  0  0  0
    1.4289    0.2062    0.0000 C   0  0  0  0  0  0  0  2  0  0  0  0
    2.1434    0.6187    0.0000 C   0  0  0  0  0  0  0  2  0  0  0  0
    2.1434    1.4437    0.0000 C   0  0  0  0  0  0  0  2  0  0  0  0
    2.8579    1.8562    0.0000 F   0  0  0  0  0  0  0  2  0  0  0  0
    1.4289    1.8562    0.0000 C   0  0  0  0  0  0  0  2  0  0  0  0
    0.7145    1.4437    0.0000 C   0  0  0  0  0  0  0  2  0  0  0  0
  1  2  4  0        0
  2  3  4  0        0
  3  4  4  0        0
  4  5  4  0        0
  5  6  4  0        0
  6  7  4  0        0
  7  8  4  0        0
  8  9  4  0        0
  4  9  4  0        0
  9 10  4  0        0
 10 11  1  0        0
 10 12  4  0        0
  2 12  4  0        0
 12 13  4  0        0
 13 14  4  0        0
 14 15  4  0        0
  1 15  4  0        0
 15 16  4  0        0
 16 17  4  0        0
 17 18  1  0        0
 17 19  4  0        0
 19 20  4  0        0
  1 20  4  0        0
M  END
$$$$

CDXL12

 14 14  0  0  0  0  0  0  0  0999 V2000
    2.8579   -0.8250    0.0000 C   0  0  0  0  0  0  0  2  0  0  0  0
    2.1434   -0.4125    0.0000 C   0  0  0  0  0  0  0  2  0  0  0  0
    2.1434    0.4125    0.0000 O   0  0  0  0  0  0  0  2  0  0  0  0
    1.4289   -0.8250    0.0000 N   0  0  0  0  0  0  0  2  0  0  0  0
    0.7145   -0.4125    0.0000 C   0  0  0  0  0  0  0  2  0  0  0  0
    0.7145    0.4125    0.0000 C   0  0  0  0  0  0  0  2  0  0  0  0
    0.0000    0.8250    0.0000 C   0  0  0  0  0  0  0  2  0  0  0  0
   -0.7145    0.4125    0.0000 C   0  0  0  0  0  0  0  2  0  0  0  0
   -1.4289    0.8250    0.0000 O   0  0  0  0  0  0  0  2  0  0  0  0
   -2.1434    0.4125    0.0000 C   0  0  0  0  0  0  0  2  0  0  0  0
   -2.8579    0.8250    0.0000 C   0  0  0  0  0  0  0  2  0  0  0  0
   -2.1434   -0.4125    0.0000 O   0  0  0  0  0  0  0  2  0  0  0  0
   -0.7145   -0.4125    0.0000 C   0  0  0  0  0  0  0  2  0  0  0  0
    0.0000   -0.8250    0.0000 C   0  0  0  0  0  0  0  2  0  0  0  0
  1  2  1  0        0
  2  3  2  0        0
  2  4  1  0        0
  4  5  1  0        0
  5  6  4  0        0
  6  7  4  0        0
  7  8  4  0        0
  8  9  1  0        0
  9 10  1  0        0
 10 11  1  0        0
 10 12  2  0        0
  8 13  4  0        0
 13 14  4  0        0
  5 14  4  0        0
M  END
$$$$

CDXL12

 15 15  0  0  0  0  0  0  0  0999 V2000
   -2.8579   -0.4125    0.0000 C   0  0  0  0  0  0  0  2  0  0  0  0
   -2.1434   -0.8250    0.0000 N   0  0  0  0  0  0  0  2  0  0  0  0
   -1.4289   -0.4125    0.0000 C   0  0  0  0  0  0  0  2  0  0  0  0
   -1.4289    0.4125    0.0000 O   0  0  0  0  0  0  0  2  0  0  0  0
   -0.7145   -0.8250    0.0000 O   0  0  0  0  0  0  0  2  0  0  0  0
    0.0000   -0.4125    0.0000 C   0  0  0  0  0  0  0  2  0  0  0  0
    0.0000    0.4125    0.0000 C   0  0  0  0  0  0  0  2  0  0  0  0
    0.7145    0.8250    0.0000 C   0  0  0  0  0  0  0  2  0  0  0  0
    0.7145    1.6500    0.0000 C   0  0  0  0  0  0  0  2  0  0  0  0
    1.4289    0.4125    0.0000 C   0  0  0  0  0  0  0  2  0  0  0  0
    1.4289   -0.4125    0.0000 C   0  0  0  0  0  0  0  2  0  0  0  0
    0.7145   -0.8250    0.0000 C   0  0  0  0  0  0  0  2  0  0  0  0
    2.1434   -0.8250    0.0000 C   0  0  0  0  0  0  0  2  0  0  0  0
    2.1434   -1.6500    0.0000 C   0  0  0  0  0  0  0  2  0  0  0  0
    2.8579   -0.4125    0.0000 C   0  0  0  0  0  0  0  2  0  0  0  0
  1  2  1  0        0
  2  3  1  0        0
  3  4  2  0        0
  3  5  1  0        0
  5  6  1  0        0
  6  7  4  0        0
  7  8  4  0        0
  8  9  1  0        0
  8 10  4  0        0
 10 11  4  0        0
 11 12  4  0        0
  6 12  4  0        0
 11 13  1  0        0
 13 14  1  0        0
 13 15  1  0        0
M  END
$$$$

CDXL12

 14 14  0  0  0  0  0  0  0  0999 V2000
   -0.7145    1.0313    0.0000 O   0  0  0  0  0  0  0  2  0  0  0  0
   -0.7145    0.2062    0.0000 C   0  0  0  0  0  0  0  2  0  0  0  0
    0.0000   -0.2062    0.0000 O   0  0  0  0  0  0  0  2  0  0  0  0
    0.7145    0.2063    0.0000 C   0  0  0  0  0  0  0  2  0  0  0  0
    1.4289   -0.2062    0.0000 C   0  0  0  0  0  0  0  2  0  0  0  0
    2.1434    0.2062    0.0000 C   0  0  0  0  0  0  0  2  0  0  0  0
    2.1434    1.0312    0.0000 C   0  0  0  0  0  0  0  2  0  0  0  0
    1.4289    1.4437    0.0000 C   0  0  0  0  0  0  0  2  0  0  0  0
    0.7145    1.0312    0.0000 C   0  0  0  0  0  0  0  2  0  0  0  0
    1.4289   -1.0312    0.0000 C   0  0  0  0  0  0  0  2  0  0  0  0
    2.1434   -1.4437    0.0000 C   0  0  0  0  0  0  0  2  0  0  0  0
    0.7145   -1.4437    0.0000 C   0  0  0  0  0  0  0  2  0  0  0  0
   -1.4289   -0.2062    0.0000 N   0  0  0  0  0  0  0  2  0  0  0  0
   -2.1434    0.2062    0.0000 C   0  0  0  0  0  0  0  2  0  0  0  0
  1  2  2  0        0
  2  3  1  0        0
  3  4  1  0        0
  4  5  4  0        0
  5  6  4  0        0
  6  7  4  0        0
  7  8  4  0        0
  8  9  4  0        0
  4  9  4  0        0
  5 10  1  0        0
 10 11  1  0        0
 10 12  1  0        0
  2 13  1  0        0
 13 14  1  0        0
M  END
$$$$

CDXL12

 15 15  0  0  0  0  0  0  0  0999 V2000
    2.8579   -0.2063    0.0000 C   0  0  0  0  0  0  0  2  0  0  0  0
    2.1434   -0.6188    0.0000 O   0  0  0  0  0  0  0  2  0  0  0  0
    1.4289   -0.2062    0.0000 P   0  0  0  0  0  0  0  2  0  0  0  0
    1.4289    0.6188    0.0000 S   0  0  0  0  0  0  0  2  0  0  0  0
    1.4289   -1.0313    0.0000 O   0  0  0  0  0  0  0  2  0  0  0  0
    2.1434   -1.4438    0.0000 C   0  0  0  0  0  0  0  2  0  0  0  0
    0.7145   -0.6188    0.0000 O   0  0  0  0  0  0  0  2  0  0  0  0
    0.0000   -0.2063    0.0000 C   0  0  0  0  0  0  0  2  0  0  0  0
   -0.7145   -0.6188    0.0000 C   0  0  0  0  0  0  0  2  0  0  0  0
   -1.4289   -0.2062    0.0000 C   0  0  0  0  0  0  0  2  0  0  0  0
   -1.4289    0.6188    0.0000 C   0  0  0  0  0  0  0  2  0  0  0  0
   -2.1434    1.0313    0.0000 C   0  0  0  0  0  0  0  2  0  0  0  0
   -2.8579    1.4438    0.0000 N   0  0  0  0  0  0  0  2  0  0  0  0
   -0.7145    1.0313    0.0000 C   0  0  0  0  0  0  0  2  0  0  0  0
    0.0000    0.6188    0.0000 C   0  0  0  0  0  0  0  2  0  0  0  0
  1  2  1  0        0
  2  3  1  0        0
  3  4  2  0        0
  3  5  1  0        0
  5  6  1  0        0
  3  7  1  0        0
  7  8  1  0        0
  8  9  4  0        0
  9 10  4  0        0
 10 11  4  0        0
 11 12  1  0        0
 12 13  3  0        0
 11 14  4  0        0
 14 15  4  0        0
  8 15  4  0        0
M  END
$$$$

CDXL12

 19 22  0  0  0  0  0  0  0  0999 V2000
   -0.3572   -1.8562    0.0000 N   0  0  0  0  0  0  0  2  0  0  0  0
   -0.3572   -1.0312    0.0000 C   0  0  0  0  0  0  0  2  0  0  0  0
    0.3572   -0.6187    0.0000 C   0  0  0  0  0  0  0  2  0  0  0  0
    0.3572    0.2062    0.0000 C   0  0  0  0  0  0  0  2  0  0  0  0
    1.0717    0.6187    0.0000 C   0  0  0  0  0  0  0  2  0  0  0  0
    1.7862    0.2062    0.0000 C   0  0  0  0  0  0  0  2  0  0  0  0
    2.5006    0.6187    0.0000 C   0  0  0  0  0  0  0  2  0  0  0  0
    2.5006    1.4437    0.0000 C   0  0  0  0  0  0  0  2  0  0  0  0
    1.7862    1.8562    0.0000 C   0  0  0  0  0  0  0  2  0  0  0  0
    1.0717    1.4437    0.0000 C   0  0  0  0  0  0  0  2  0  0  0  0
    0.3572    1.8562    0.0000 C   0  0  0  0  0  0  0  2  0  0  0  0
   -0.3572    1.4437    0.0000 C   0  0  0  0  0  0  0  2  0  0  0  0
   -0.3572    0.6187    0.0000 C   0  0  0  0  0  0  0  2  0  0  0  0
   -1.0717    0.2063    0.0000 C   0  0  0  0  0  0  0  2  0  0  0  0
   -1.7862    0.6188    0.0000 C   0  0  0  0  0  0  0  2  0  0  0  0
   -2.5006    0.2063    0.0000 C   0  0  0  0  0  0  0  2  0  0  0  0
   -2.5006   -0.6187    0.0000 C   0  0  0  0  0  0  0  2  0  0  0  0
   -1.7862   -1.0312    0.0000 C   0  0  0  0  0  0  0  2  0  0  0  0
   -1.0717   -0.6187    0.0000 C   0  0  0  0  0  0  0  2  0  0  0  0
  1  2  1  0        0
  2  3  4  0        0
  3  4  4  0        0
  4  5  4  0        0
  5  6  4  0        0
  6  7  4  0        0
  7  8  4  0        0
  8  9  4  0        0
  9 10  4  0        0
  5 10  4  0        0
 10 11  4  0        0
 11 12  4  0        0
 12 13  4  0        0
  4 13  4  0        0
 13 14  4  0        0
 14 15  4  0        0
 15 16  4  0        0
 16 17  4  0        0
 17 18  4  0        0
 18 19  4  0        0
  2 19  4  0        0
 14 19  4  0        0
M  END
$$$$

CDXL12

 13 13  0  0  0  0  0  0  0  0999 V2000
   -2.5006   -0.8250    0.0000 C   0  0  0  0  0  0  0  2  0  0  0  0
   -1.7862   -1.2375    0.0000 N   0  0  0  0  0  0  0  2  0  0  0  0
   -1.0717   -0.8250    0.0000 C   0  0  0  0  0  0  0  2  0  0  0  0
   -1.0717    0.0000    0.0000 O   0  0  0  0  0  0  0  2  0  0  0  0
   -0.3572   -1.2375    0.0000 O   0  0  0  0  0  0  0  2  0  0  0  0
    0.3572   -0.8250    0.0000 C   0  0  0  0  0  0  0  2  0  0  0  0
    0.3572    0.0000    0.0000 C   0  0  0  0  0  0  0  2  0  0  0  0
    1.0717    0.4125    0.0000 C   0  0  0  0  0  0  0  2  0  0  0  0
    1.0717    1.2375    0.0000 C   0  0  0  0  0  0  0  2  0  0  0  0
    1.7862   -0.0000    0.0000 C   0  0  0  0  0  0  0  2  0  0  0  0
    1.7862   -0.8250    0.0000 C   0  0  0  0  0  0  0  2  0  0  0  0
    2.5006   -1.2375    0.0000 C   0  0  0  0  0  0  0  2  0  0  0  0
    1.0717   -1.2375    0.0000 C   0  0  0  0  0  0  0  2  0  0  0  0
  1  2  1  0        0
  2  3  1  0        0
  3  4  2  0        0
  3  5  1  0        0
  5  6  1  0        0
  6  7  4  0        0
  7  8  4  0        0
  8  9  1  0        0
  8 10  4  0        0
 10 11  4  0        0
 11 12  1  0        0
 11 13  4  0        0
  6 13  4  0        0
M  END
$$$$

CDXL12

 19 19  0  0  0  0  0  0  0  0999 V2000
    0.7145   -1.2375    0.0000 C   0  0  0  0  0  0  0  2  0  0  0  0
    1.4289   -0.8250    0.0000 C   0  0  0  0  0  0  0  2  0  0  0  0
    2.1434   -1.2375    0.0000 C   0  0  0  0  0  0  0  2  0  0  0  0
    2.8579   -1.6500    0.0000 C   0  0  0  0  0  0  0  2  0  0  0  0
    2.1434   -2.0625    0.0000 C   0  0  0  0  0  0  0  2  0  0  0  0
    2.8579   -0.8250    0.0000 C   0  0  0  0  0  0  0  2  0  0  0  0
    1.4289   -0.0000    0.0000 C   0  0  0  0  0  0  0  2  0  0  0  0
    0.7145    0.4125    0.0000 C   0  0  0  0  0  0  0  2  0  0  0  0
    0.7145    1.2375    0.0000 C   0  0  0  0  0  0  0  2  0  0  0  0
   -0.0000    1.6500    0.0000 C   0  0  0  0  0  0  0  2  0  0  0  0
    0.7145    2.0625    0.0000 C   0  0  0  0  0  0  0  2  0  0  0  0
    1.4289    1.6500    0.0000 C   0  0  0  0  0  0  0  2  0  0  0  0
   -0.0000   -0.0000    0.0000 C   0  0  0  0  0  0  0  2  0  0  0  0
   -0.0000   -0.8250    0.0000 C   0  0  0  0  0  0  0  2  0  0  0  0
   -0.7145   -1.2375    0.0000 O   0  0  0  0  0  0  0  2  0  0  0  0
   -1.4289   -0.8250    0.0000 C   0  0  0  0  0  0  0  2  0  0  0  0
   -1.4289   -0.0000    0.0000 O   0  0  0  0  0  0  0  2  0  0  0  0
   -2.1434   -1.2375    0.0000 N   0  0  0  0  0  0  0  2  0  0  0  0
   -2.8579   -0.8250    0.0000 C   0  0  0  0  0  0  0  2  0  0  0  0
  1  2  4  0        0
  2  3  1  0        0
  3  4  1  0        0
  3  5  1  0        0
  3  6  1  0        0
  2  7  4  0        0
  7  8  4  0        0
  8  9  1  0        0
  9 10  1  0        0
  9 11  1  0        0
  9 12  1  0        0
  8 13  4  0        0
 13 14  4  0        0
  1 14  4  0        0
 14 15  1  0        0
 15 16  1  0        0
 16 17  2  0        0
 16 18  1  0        0
 18 19  1  0        0
M  END
$$$$

CDXL12

 12 12  0  0  0  0  0  0  0  0999 V2000
    2.1434   -0.4125    0.0000 C   0  0  0  0  0  0  0  2  0  0  0  0
    1.4289   -0.8250    0.0000 O   0  0  0  0  0  0  0  2  0  0  0  0
    0.7145   -0.4125    0.0000 C   0  0  0  0  0  0  0  2  0  0  0  0
    0.0000   -0.8250    0.0000 C   0  0  0  0  0  0  0  2  0  0  0  0
   -0.7145   -0.4125    0.0000 C   0  0  0  0  0  0  0  2  0  0  0  0
   -1.4289   -0.8250    0.0000 Cl  0  0  0  0  0  0  0  2  0  0  0  0
   -0.7145    0.4125    0.0000 C   0  0  0  0  0  0  0  2  0  0  0  0
   -1.4289    0.8250    0.0000 O   0  0  0  0  0  0  0  2  0  0  0  0
   -2.1434    0.4125    0.0000 C   0  0  0  0  0  0  0  2  0  0  0  0
    0.0000    0.8250    0.0000 C   0  0  0  0  0  0  0  2  0  0  0  0
    0.7145    0.4125    0.0000 C   0  0  0  0  0  0  0  2  0  0  0  0
    1.4289    0.8250    0.0000 Cl  0  0  0  0  0  0  0  2  0  0  0  0
  1  2  1  0        0
  2  3  1  0        0
  3  4  4  0        0
  4  5  4  0        0
  5  6  1  0        0
  5  7  4  0        0
  7  8  1  0        0
  8  9  1  0        0
  7 10  4  0        0
 10 11  4  0        0
  3 11  4  0        0
 11 12  1  0        0
M  END
$$$$

CDXL12

  5  4  0  0  0  0  0  0  0  0999 V2000
   -0.8250   -0.0000    0.0000 F   0  0  0  0  0  0  0  2  0  0  0  0
    0.0000   -0.0000    0.0000 S   0  0  0  0  0  0  0  2  0  0  0  0
    0.8250   -0.0000    0.0000 F   0  0  0  0  0  0  0  2  0  0  0  0
    0.0000   -0.8250    0.0000 O   0  0  0  0  0  0  0  2  0  0  0  0
    0.0000    0.8250    0.0000 O   0  0  0  0  0  0  0  2  0  0  0  0
  1  2  1  0        0
  2  3  1  0        0
  2  4  2  0        0
  2  5  2  0        0
M  END
$$$$

CDXL12

 14 14  0  0  0  0  0  0  0  0999 V2000
    2.8579    0.4125    0.0000 Na  0  0  0  0  0  0  0  2  0  0  0  0
    2.1434   -0.0000    0.0000 O   0  0  0  0  0  0  0  2  0  0  0  0
    1.4289    0.4125    0.0000 C   0  0  0  0  0  0  0  2  0  0  0  0
    1.4289    1.2375    0.0000 O   0  0  0  0  0  0  0  2  0  0  0  0
    0.7145   -0.0000    0.0000 C   0  0  0  0  0  0  0  2  0  0  0  0
    0.0000    0.4125    0.0000 O   0  0  0  0  0  0  0  2  0  0  0  0
   -0.7145   -0.0000    0.0000 C   0  0  0  0  0  0  0  2  0  0  0  0
   -1.4289    0.4125    0.0000 C   0  0  0  0  0  0  0  2  0  0  0  0
   -2.1434    0.0000    0.0000 C   0  0  0  0  0  0  0  2  0  0  0  0
   -2.1434   -0.8250    0.0000 C   0  0  0  0  0  0  0  2  0  0  0  0
   -2.8579   -1.2375    0.0000 Cl  0  0  0  0  0  0  0  2  0  0  0  0
   -1.4289   -1.2375    0.0000 C   0  0  0  0  0  0  0  2  0  0  0  0
   -0.7145   -0.8250    0.0000 C   0  0  0  0  0  0  0  2  0  0  0  0
    0.0000   -1.2375    0.0000 Cl  0  0  0  0  0  0  0  2  0  0  0  0
  1  2  1  0        0
  2  3  1  0        0
  3  4  2  0        0
  3  5  1  0        0
  5  6  1  0        0
  6  7  1  0        0
  7  8  4  0        0
  8  9  4  0        0
  9 10  4  0        0
 10 11  1  0        0
 10 12  4  0        0
 12 13  4  0        0
  7 13  4  0        0
 13 14  1  0        0
M  END
$$$$

CDXL12

 20 20  0  0  0  0  0  0  0  0999 V2000
   -2.5006    0.1650    0.0000 C   0  0  0  0  0  0  0  2  0  0  0  0
   -1.7862   -0.2475    0.0000 C   0  0  0  0  0  0  0  2  0  0  0  0
   -1.0717    0.1650    0.0000 C   0  0  0  0  0  0  0  2  0  0  0  0
   -1.0717    0.9900    0.0000 C   0  0  0  0  0  0  0  2  0  0  0  0
   -0.3572   -0.2475    0.0000 C   0  0  0  0  0  0  0  2  0  0  0  0
   -0.3572   -1.0725    0.0000 C   0  0  0  0  0  0  0  2  0  0  0  0
    0.3572   -1.4850    0.0000 C   0  0  0  0  0  0  0  2  0  0  0  0
    1.0717   -1.0725    0.0000 C   0  0  0  0  0  0  0  2  0  0  0  0
    1.0717   -0.2475    0.0000 C   0  0  0  0  0  0  0  2  0  0  0  0
    1.7862    0.1650    0.0000 N   0  0  0  0  0  0  0  2  0  0  0  0
    1.7862    0.9900    0.0000 O   0  0  0  0  0  0  0  2  0  0  0  0
    2.5006   -0.2475    0.0000 O   0  0  0  0  0  0  0  2  0  0  0  0
    0.3572    0.1650    0.0000 C   0  0  0  0  0  0  0  2  0  0  0  0
    0.3572    1.4850    0.0000 O   0  0  0  0  0  0  0  2  0  0  0  0
   -0.3572    1.8975    0.0000 C   0  0  0  0  0  0  0  2  0  0  0  0
   -0.3572    2.7225    0.0000 C   0  0  0  0  0  0  0  2  0  0  0  0
   -1.0717    1.4850    0.0000 O   0  0  0  0  0  0  0  2  0  0  0  0
    0.3572   -2.3100    0.0000 N   0  0  0  0  0  0  0  2  0  0  0  0
   -0.3572   -2.7225    0.0000 O   0  0  0  0  0  0  0  2  0  0  0  0
    1.0717   -2.7225    0.0000 O   0  0  0  0  0  0  0  2  0  0  0  0
  1  2  1  0        0
  2  3  1  0        0
  3  4  1  0        0
  3  5  1  0        0
  5  6  4  0        0
  6  7  4  0        0
  7  8  4  0        0
  8  9  4  0        0
  9 10  1  0        0
 10 11  2  0        0
 10 12  2  0        0
  9 13  4  0        0
  5 13  4  0        0
 13 14  1  0        0
 14 15  1  0        0
 15 16  1  0        0
 15 17  2  0        0
  7 18  1  0        0
 18 19  2  0        0
 18 20  2  0        0
M  END
$$$$

CDXL12

 11 11  0  0  0  0  0  0  0  0999 V2000
    0.3572    0.4125    0.0000 N   0  0  0  0  0  0  0  2  0  0  0  0
   -0.3572    0.8250    0.0000 C   0  0  0  0  0  0  0  2  0  0  0  0
   -0.3572    1.6500    0.0000 O   0  0  0  0  0  0  0  2  0  0  0  0
   -1.0717    0.4125    0.0000 C   0  0  0  0  0  0  0  2  0  0  0  0
   -1.0717   -0.4125    0.0000 C   0  0  0  0  0  0  0  2  0  0  0  0
   -1.7862   -0.8250    0.0000 C   0  0  0  0  0  0  0  2  0  0  0  0
   -0.3572   -0.8250    0.0000 N   0  0  0  0  0  0  0  2  0  0  0  0
    0.3572   -0.4125    0.0000 C   0  0  0  0  0  0  0  2  0  0  0  0
    1.0717   -0.8250    0.0000 C   0  0  0  0  0  0  0  2  0  0  0  0
    1.0717   -1.6500    0.0000 C   0  0  0  0  0  0  0  2  0  0  0  0
    1.7862   -0.4125    0.0000 C   0  0  0  0  0  0  0  2  0  0  0  0
  1  2  4  0        0
  2  3  1  0        0
  2  4  4  0        0
  4  5  4  0        0
  5  6  1  0        0
  5  7  4  0        0
  7  8  4  0        0
  1  8  4  0        0
  8  9  1  0        0
  9 10  1  0        0
  9 11  1  0        0
M  END
$$$$

CDXL12

 14 14  0  0  0  0  0  0  0  0999 V2000
    2.1434   -1.2375    0.0000 C   0  0  0  0  0  0  0  2  0  0  0  0
    2.1434   -0.4125    0.0000 C   0  0  0  0  0  0  0  2  0  0  0  0
    2.8579   -0.0000    0.0000 C   0  0  0  0  0  0  0  2  0  0  0  0
    1.4289   -0.0000    0.0000 N   0  0  0  0  0  0  0  2  0  0  0  0
    0.7145   -0.4125    0.0000 O   0  0  0  0  0  0  0  2  0  0  0  0
    0.0000    0.0000    0.0000 N   0  0  0  0  0  0  0  2  0  0  0  0
   -0.7145   -0.4125    0.0000 C   0  0  0  0  0  0  0  2  0  0  0  0
   -0.7145   -1.2375    0.0000 O   0  0  0  0  0  0  0  2  0  0  0  0
   -1.4289    0.0000    0.0000 C   0  0  0  0  0  0  0  2  0  0  0  0
   -1.4289    0.8250    0.0000 C   0  0  0  0  0  0  0  2  0  0  0  0
   -2.1434    1.2375    0.0000 C   0  0  0  0  0  0  0  2  0  0  0  0
   -2.8579    0.8250    0.0000 C   0  0  0  0  0  0  0  2  0  0  0  0
   -2.8579    0.0000    0.0000 C   0  0  0  0  0  0  0  2  0  0  0  0
   -2.1434   -0.4125    0.0000 C   0  0  0  0  0  0  0  2  0  0  0  0
  1  2  1  0        0
  2  3  1  0        0
  2  4  2  0        0
  4  5  1  0        0
  5  6  1  0        0
  6  7  1  0        0
  7  8  2  0        0
  7  9  1  0        0
  9 10  4  0        0
 10 11  4  0        0
 11 12  4  0        0
 12 13  4  0        0
 13 14  4  0        0
  9 14  4  0        0
M  END
$$$$

CDXL12

 11 11  0  0  0  0  0  0  0  0999 V2000
    1.0717    0.8250    0.0000 O   0  0  0  0  0  0  0  2  0  0  0  0
    1.0717    0.0000    0.0000 C   0  0  0  0  0  0  0  2  0  0  0  0
    1.7862   -0.4125    0.0000 O   0  0  0  0  0  0  0  2  0  0  0  0
    0.3572   -0.4125    0.0000 C   0  0  0  0  0  0  0  2  0  0  0  0
    0.3572   -1.2375    0.0000 N   0  0  0  0  0  0  0  2  0  0  0  0
   -0.3572   -0.0000    0.0000 C   0  0  0  0  0  0  0  2  0  0  0  0
   -1.0717   -0.4125    0.0000 C   0  0  0  0  0  0  0  2  0  0  0  0
   -1.7862    0.0000    0.0000 C   0  0  0  0  0  0  0  2  0  0  0  0
   -1.7862    0.8250    0.0000 C   0  0  0  0  0  0  0  2  0  0  0  0
   -1.0717    1.2375    0.0000 C   0  0  0  0  0  0  0  2  0  0  0  0
   -0.3572    0.8250    0.0000 C   0  0  0  0  0  0  0  2  0  0  0  0
  1  2  2  0        0
  2  3  1  0        0
  2  4  1  0        0
  4  5  1  0        0
  4  6  1  0        0
  6  7  4  0        0
  7  8  4  0        0
  8  9  4  0        0
  9 10  4  0        0
 10 11  4  0        0
  6 11  4  0        0
M  END
$$$$

CDXL12

 30 32  0  0  0  0  0  0  0  0999 V2000
   -0.7145    0.4125    0.0000 C   0  0  0  0  0  0  0  2  0  0  0  0
    0.0000    0.8250    0.0000 C   0  0  0  0  0  0  0  2  0  0  0  0
    0.0000    1.6500    0.0000 O   0  0  0  0  0  0  0  2  0  0  0  0
    0.7145    0.4125    0.0000 C   0  0  0  0  0  0  0  2  0  0  0  0
    1.4289    0.8250    0.0000 C   0  0  0  0  0  0  0  2  0  0  0  0
    1.4289    1.6500    0.0000 O   0  0  0  0  0  0  0  2  0  0  0  0
    2.1434    0.4125    0.0000 C   0  0  0  0  0  0  0  2  0  0  0  0
    2.8579    0.8250    0.0000 S   0  0  0  0  0  0  0  2  0  0  0  0
    3.2704    0.1105    0.0000 O   0  0  0  0  0  0  0  2  0  0  0  0
    2.4454    1.5395    0.0000 O   0  0  0  0  0  0  0  2  0  0  0  0
    3.5724    1.2375    0.0000 O   0  0  0  0  0  0  0  2  0  0  0  0
    4.2868    0.8250    0.0000 Na  0  0  0  0  0  0  0  2  0  0  0  0
    2.1434   -0.4125    0.0000 C   0  0  0  0  0  0  0  2  0  0  0  0
    1.4289   -0.8250    0.0000 C   0  0  0  0  0  0  0  2  0  0  0  0
    1.4289   -1.6500    0.0000 N   0  0  0  0  0  0  0  2  0  0  0  0
    0.7145   -0.4125    0.0000 C   0  0  0  0  0  0  0  2  0  0  0  0
    0.0000   -0.8250    0.0000 C   0  0  0  0  0  0  0  2  0  0  0  0
    0.0000   -1.6500    0.0000 O   0  0  0  0  0  0  0  2  0  0  0  0
   -0.7145   -0.4125    0.0000 C   0  0  0  0  0  0  0  2  0  0  0  0
   -1.4289   -0.8250    0.0000 C   0  0  0  0  0  0  0  2  0  0  0  0
   -1.4289   -1.6500    0.0000 O   0  0  0  0  0  0  0  2  0  0  0  0
   -2.1434   -0.4125    0.0000 C   0  0  0  0  0  0  0  2  0  0  0  0
   -2.8579   -0.8250    0.0000 S   0  0  0  0  0  0  0  2  0  0  0  0
   -3.2704   -0.1105    0.0000 O   0  0  0  0  0  0  0  2  0  0  0  0
   -2.4454   -1.5395    0.0000 O   0  0  0  0  0  0  0  2  0  0  0  0
   -3.5724   -1.2375    0.0000 O   0  0  0  0  0  0  0  2  0  0  0  0
   -4.2868   -0.8250    0.0000 Na  0  0  0  0  0  0  0  2  0  0  0  0
   -2.1434    0.4125    0.0000 C   0  0  0  0  0  0  0  2  0  0  0  0
   -1.4289    0.8250    0.0000 C   0  0  0  0  0  0  0  2  0  0  0  0
   -1.4289    1.6500    0.0000 N   0  0  0  0  0  0  0  2  0  0  0  0
  1  2  1  0        0
  2  3  2  0        0
  2  4  1  0        0
  4  5  4  0        0
  5  6  1  0        0
  5  7  4  0        0
  7  8  1  0        0
  8  9  2  0        0
  8 10  2  0        0
  8 11  1  0        0
 11 12  1  0        0
  7 13  4  0        0
 13 14  4  0        0
 14 15  1  0        0
 14 16  4  0        0
  4 16  4  0        0
 16 17  1  0        0
 17 18  2  0        0
 17 19  1  0        0
  1 19  4  0        0
 19 20  4  0        0
 20 21  1  0        0
 20 22  4  0        0
 22 23  1  0        0
 23 24  2  0        0
 23 25  2  0        0
 23 26  1  0        0
 26 27  1  0        0
 22 28  4  0        0
 28 29  4  0        0
  1 29  4  0        0
 29 30  1  0        0
M  END
$$$$

CDXL12

 20 22  0  0  0  0  0  0  0  0999 V2000
   -0.7145    1.6500    0.0000 O   0  0  0  0  0  0  0  2  0  0  0  0
   -0.7145    0.8250    0.0000 C   0  0  0  0  0  0  0  2  0  0  0  0
   -1.4289    0.4125    0.0000 C   0  0  0  0  0  0  0  2  0  0  0  0
   -1.4289   -0.4125    0.0000 C   0  0  0  0  0  0  0  2  0  0  0  0
   -0.7145   -0.8250    0.0000 C   0  0  0  0  0  0  0  2  0  0  0  0
   -0.7145   -1.6500    0.0000 O   0  0  0  0  0  0  0  2  0  0  0  0
   -0.0000   -0.4125    0.0000 C   0  0  0  0  0  0  0  2  0  0  0  0
    0.7145   -0.8250    0.0000 C   0  0  0  0  0  0  0  2  0  0  0  0
    0.7145   -1.6500    0.0000 N   0  0  0  0  0  0  0  2  0  0  0  0
    1.4289   -0.4125    0.0000 C   0  0  0  0  0  0  0  2  0  0  0  0
    1.4289    0.4125    0.0000 C   0  0  0  0  0  0  0  2  0  0  0  0
    2.1434    0.8250    0.0000 O   0  0  0  0  0  0  0  2  0  0  0  0
    2.8579    0.4125    0.0000 C   0  0  0  0  0  0  0  2  0  0  0  0
    0.7145    0.8250    0.0000 C   0  0  0  0  0  0  0  2  0  0  0  0
    0.7145    1.6500    0.0000 N   0  0  0  0  0  0  0  2  0  0  0  0
   -0.0000    0.4125    0.0000 C   0  0  0  0  0  0  0  2  0  0  0  0
   -2.1434   -0.8250    0.0000 C   0  0  0  0  0  0  0  2  0  0  0  0
   -2.8579   -0.4125    0.0000 C   0  0  0  0  0  0  0  2  0  0  0  0
   -2.8579    0.4125    0.0000 C   0  0  0  0  0  0  0  2  0  0  0  0
   -2.1434    0.8250    0.0000 C   0  0  0  0  0  0  0  2  0  0  0  0
  1  2  2  0        0
  2  3  1  0        0
  3  4  4  0        0
  4  5  1  0        0
  5  6  2  0        0
  5  7  1  0        0
  7  8  4  0        0
  8  9  1  0        0
  8 10  4  0        0
 10 11  4  0        0
 11 12  1  0        0
 12 13  1  0        0
 11 14  4  0        0
 14 15  1  0        0
 14 16  4  0        0
  2 16  1  0        0
  7 16  4  0        0
  4 17  4  0        0
 17 18  4  0        0
 18 19  4  0        0
 19 20  4  0        0
  3 20  4  0        0
M  END
$$$$

CDXL12

 23 24  0  0  0  0  0  0  0  0999 V2000
    0.3572    3.9187    0.0000 O   0  0  0  0  0  0  0  2  0  0  0  0
    1.0717    3.5063    0.0000 N   0  0  0  0  0  0  0  2  0  0  0  0
    1.7862    3.9187    0.0000 O   0  0  0  0  0  0  0  2  0  0  0  0
    1.0717    2.6813    0.0000 C   0  0  0  0  0  0  0  2  0  0  0  0
    1.7862    2.2688    0.0000 C   0  0  0  0  0  0  0  2  0  0  0  0
    1.7862    1.4438    0.0000 C   0  0  0  0  0  0  0  2  0  0  0  0
    1.0717    1.0313    0.0000 C   0  0  0  0  0  0  0  2  0  0  0  0
    1.0717    0.2063    0.0000 N   0  0  0  0  0  0  0  2  0  0  0  0
    0.3572   -0.2062    0.0000 N   0  0  0  0  0  0  0  2  0  0  0  0
    0.3572   -1.0312    0.0000 C   0  0  0  0  0  0  0  2  0  0  0  0
    1.0717   -1.4437    0.0000 C   0  0  0  0  0  0  0  2  0  0  0  0
    1.0717   -2.2687    0.0000 C   0  0  0  0  0  0  0  2  0  0  0  0
    0.3572   -2.6812    0.0000 C   0  0  0  0  0  0  0  2  0  0  0  0
    0.3572   -3.5062    0.0000 N   0  0  0  0  0  0  0  2  0  0  0  0
   -0.3572   -3.9187    0.0000 C   0  0  0  0  0  0  0  2  0  0  0  0
   -1.0717   -3.5062    0.0000 C   0  0  0  0  0  0  0  2  0  0  0  0
   -1.7862   -3.9187    0.0000 O   0  0  0  0  0  0  0  2  0  0  0  0
    1.0717   -3.9187    0.0000 C   0  0  0  0  0  0  0  2  0  0  0  0
    1.7862   -3.5062    0.0000 C   0  0  0  0  0  0  0  2  0  0  0  0
   -0.3572   -2.2687    0.0000 C   0  0  0  0  0  0  0  2  0  0  0  0
   -0.3572   -1.4437    0.0000 C   0  0  0  0  0  0  0  2  0  0  0  0
    0.3572    1.4438    0.0000 C   0  0  0  0  0  0  0  2  0  0  0  0
    0.3572    2.2688    0.0000 C   0  0  0  0  0  0  0  2  0  0  0  0
  1  2  2  0        0
  2  3  2  0        0
  2  4  1  0        0
  4  5  4  0        0
  5  6  4  0        0
  6  7  4  0        0
  7  8  1  0        0
  8  9  2  0        0
  9 10  1  0        0
 10 11  4  0        0
 11 12  4  0        0
 12 13  4  0        0
 13 14  1  0        0
 14 15  1  0        0
 15 16  1  0        0
 16 17  1  0        0
 14 18  1  0        0
 18 19  1  0        0
 13 20  4  0        0
 20 21  4  0        0
 10 21  4  0        0
  7 22  4  0        0
 22 23  4  0        0
  4 23  4  0        0
M  END
$$$$

CDXL12

 12 12  0  0  0  0  0  0  0  0999 V2000
    2.1434   -0.2063    0.0000 Na  0  0  0  0  0  0  0  2  0  0  0  0
    1.4289   -0.6188    0.0000 O   0  0  0  0  0  0  0  2  0  0  0  0
    0.7145   -0.2063    0.0000 C   0  0  0  0  0  0  0  2  0  0  0  0
    0.0000   -0.6188    0.0000 C   0  0  0  0  0  0  0  2  0  0  0  0
    0.0000   -1.4437    0.0000 I   0  0  0  0  0  0  0  2  0  0  0  0
   -0.7145   -0.2063    0.0000 C   0  0  0  0  0  0  0  2  0  0  0  0
   -0.7145    0.6187    0.0000 C   0  0  0  0  0  0  0  2  0  0  0  0
   -1.4289    1.0312    0.0000 C   0  0  0  0  0  0  0  2  0  0  0  0
   -2.1434    1.4437    0.0000 N   0  0  0  0  0  0  0  2  0  0  0  0
    0.0000    1.0312    0.0000 C   0  0  0  0  0  0  0  2  0  0  0  0
    0.7145    0.6187    0.0000 C   0  0  0  0  0  0  0  2  0  0  0  0
    1.4289    1.0312    0.0000 I   0  0  0  0  0  0  0  2  0  0  0  0
  1  2  1  0        0
  2  3  1  0        0
  3  4  4  0        0
  4  5  1  0        0
  4  6  4  0        0
  6  7  4  0        0
  7  8  1  0        0
  8  9  3  0        0
  7 10  4  0        0
 10 11  4  0        0
  3 11  4  0        0
 11 12  1  0        0
M  END
$$$$

CDXL12

 11 11  0  0  0  0  0  0  0  0999 V2000
    1.4289    0.4125    0.0000 Cl  0  0  0  0  0  0  0  2  0  0  0  0
    0.7145    0.0000    0.0000 C   0  0  0  0  0  0  0  2  0  0  0  0
    0.7145   -0.8250    0.0000 C   0  0  0  0  0  0  0  2  0  0  0  0
    0.0000   -1.2375    0.0000 N   0  0  0  0  0  0  0  2  0  0  0  0
   -0.7145   -0.8250    0.0000 C   0  0  0  0  0  0  0  2  0  0  0  0
   -1.4289   -1.2375    0.0000 C   0  0  0  0  0  0  0  2  0  0  0  0
   -0.7145    0.0000    0.0000 C   0  0  0  0  0  0  0  2  0  0  0  0
    0.0000    0.4125    0.0000 C   0  0  0  0  0  0  0  2  0  0  0  0
    0.0000    1.2375    0.0000 O   0  0  0  0  0  0  0  2  0  0  0  0
   -1.4289    0.4125    0.0000 Cl  0  0  0  0  0  0  0  2  0  0  0  0
    1.4289   -1.2375    0.0000 C   0  0  0  0  0  0  0  2  0  0  0  0
  1  2  1  0        0
  2  3  4  0        0
  3  4  4  0        0
  4  5  4  0        0
  5  6  1  0        0
  5  7  4  0        0
  7  8  4  0        0
  2  8  4  0        0
  8  9  1  0        0
  7 10  1  0        0
  3 11  1  0        0
M  END
$$$$

CDXL12

 14 15  0  0  0  0  0  0  0  0999 V2000
   -0.7145   -1.0313    0.0000 C   0  0  0  0  0  0  0  2  0  0  0  0
   -1.4289   -1.4437    0.0000 C   0  0  0  0  0  0  0  2  0  0  0  0
   -2.1434   -1.0312    0.0000 C   0  0  0  0  0  0  0  2  0  0  0  0
   -2.1434   -0.2062    0.0000 C   0  0  0  0  0  0  0  2  0  0  0  0
   -1.4289    0.2062    0.0000 C   0  0  0  0  0  0  0  2  0  0  0  0
   -0.7145   -0.2063    0.0000 C   0  0  0  0  0  0  0  2  0  0  0  0
    0.0000    0.2062    0.0000 C   0  0  0  0  0  0  0  2  0  0  0  0
    0.7145   -0.2062    0.0000 C   0  0  0  0  0  0  0  2  0  0  0  0
    1.4289    0.2062    0.0000 C   0  0  0  0  0  0  0  2  0  0  0  0
    2.1434   -0.2062    0.0000 Cl  0  0  0  0  0  0  0  2  0  0  0  0
    1.4289    1.0312    0.0000 C   0  0  0  0  0  0  0  2  0  0  0  0
    2.1434    1.4437    0.0000 Cl  0  0  0  0  0  0  0  2  0  0  0  0
    0.7145    1.4437    0.0000 C   0  0  0  0  0  0  0  2  0  0  0  0
    0.0000    1.0312    0.0000 C   0  0  0  0  0  0  0  2  0  0  0  0
  1  2  4  0        0
  2  3  4  0        0
  3  4  4  0        0
  4  5  4  0        0
  5  6  4  0        0
  1  6  4  0        0
  6  7  1  0        0
  7  8  4  0        0
  8  9  4  0        0
  9 10  1  0        0
  9 11  4  0        0
 11 12  1  0        0
 11 13  4  0        0
 13 14  4  0        0
  7 14  4  0        0
M  END
$$$$

CDXL12

 13 13  0  0  0  0  0  0  0  0999 V2000
    2.5006   -0.0000    0.0000 O   0  0  0  0  0  0  0  2  0  0  0  0
    1.7862   -0.4125    0.0000 C   0  0  0  0  0  0  0  2  0  0  0  0
    1.7862   -1.2375    0.0000 O   0  0  0  0  0  0  0  2  0  0  0  0
    1.0717    0.0000    0.0000 C   0  0  0  0  0  0  0  2  0  0  0  0
    0.3572   -0.4125    0.0000 O   0  0  0  0  0  0  0  2  0  0  0  0
   -0.3572   -0.0000    0.0000 C   0  0  0  0  0  0  0  2  0  0  0  0
   -1.0717   -0.4125    0.0000 C   0  0  0  0  0  0  0  2  0  0  0  0
   -1.0717   -1.2375    0.0000 Cl  0  0  0  0  0  0  0  2  0  0  0  0
   -1.7862    0.0000    0.0000 C   0  0  0  0  0  0  0  2  0  0  0  0
   -2.5006   -0.4125    0.0000 Cl  0  0  0  0  0  0  0  2  0  0  0  0
   -1.7862    0.8250    0.0000 C   0  0  0  0  0  0  0  2  0  0  0  0
   -1.0717    1.2375    0.0000 C   0  0  0  0  0  0  0  2  0  0  0  0
   -0.3572    0.8250    0.0000 C   0  0  0  0  0  0  0  2  0  0  0  0
  1  2  1  0        0
  2  3  2  0        0
  2  4  1  0        0
  4  5  1  0        0
  5  6  1  0        0
  6  7  4  0        0
  7  8  1  0        0
  7  9  4  0        0
  9 10  1  0        0
  9 11  4  0        0
 11 12  4  0        0
 12 13  4  0        0
  6 13  4  0        0
M  END
$$$$

CDXL12

 20 23  0  0  0  0  0  0  0  0999 V2000
    1.7862   -1.0312    0.0000 C   0  0  0  0  0  0  0  2  0  0  0  0
    1.0717   -1.4437    0.0000 C   0  0  0  0  0  0  0  2  0  0  0  0
    0.3572   -1.0312    0.0000 C   0  0  0  0  0  0  0  2  0  0  0  0
   -0.3572   -1.4438    0.0000 C   0  0  0  0  0  0  0  2  0  0  0  0
   -1.0717   -1.0313    0.0000 C   0  0  0  0  0  0  0  2  0  0  0  0
   -1.7862   -1.4437    0.0000 C   0  0  0  0  0  0  0  2  0  0  0  0
   -2.5006   -1.0312    0.0000 C   0  0  0  0  0  0  0  2  0  0  0  0
   -2.5006   -0.2062    0.0000 C   0  0  0  0  0  0  0  2  0  0  0  0
   -3.2151    0.2062    0.0000 C   0  0  0  0  0  0  0  2  0  0  0  0
   -1.7862    0.2062    0.0000 C   0  0  0  0  0  0  0  2  0  0  0  0
   -1.0717   -0.2063    0.0000 C   0  0  0  0  0  0  0  2  0  0  0  0
   -0.3572    0.2062    0.0000 C   0  0  0  0  0  0  0  2  0  0  0  0
    0.3572   -0.2062    0.0000 C   0  0  0  0  0  0  0  2  0  0  0  0
    1.0717    0.2062    0.0000 C   0  0  0  0  0  0  0  2  0  0  0  0
    1.0717    1.0313    0.0000 C   0  0  0  0  0  0  0  2  0  0  0  0
    1.7862    1.4438    0.0000 C   0  0  0  0  0  0  0  2  0  0  0  0
    2.5006    1.0313    0.0000 C   0  0  0  0  0  0  0  2  0  0  0  0
    2.5006    0.2062    0.0000 C   0  0  0  0  0  0  0  2  0  0  0  0
    3.2151   -0.2062    0.0000 F   0  0  0  0  0  0  0  2  0  0  0  0
    1.7862   -0.2062    0.0000 C   0  0  0  0  0  0  0  2  0  0  0  0
  1  2  4  0        0
  2  3  4  0        0
  3  4  4  0        0
  4  5  4  0        0
  5  6  4  0        0
  6  7  4  0        0
  7  8  4  0        0
  8  9  1  0        0
  8 10  4  0        0
 10 11  4  0        0
  5 11  4  0        0
 11 12  4  0        0
 12 13  4  0        0
  3 13  4  0        0
 13 14  4  0        0
 14 15  4  0        0
 15 16  4  0        0
 16 17  4  0        0
 17 18  4  0        0
 18 19  1  0        0
 18 20  4  0        0
  1 20  4  0        0
 14 20  4  0        0
M  END
$$$$

CDXL12

 12 12  0  0  0  0  0  0  0  0999 V2000
   -0.7145   -0.8250    0.0000 C   0  0  0  0  0  0  0  2  0  0  0  0
   -0.7145   -0.0000    0.0000 C   0  0  0  0  0  0  0  2  0  0  0  0
   -1.4289    0.4125    0.0000 C   0  0  0  0  0  0  0  2  0  0  0  0
   -2.1434   -0.0000    0.0000 O   0  0  0  0  0  0  0  2  0  0  0  0
    0.0000    0.4125    0.0000 C   0  0  0  0  0  0  0  2  0  0  0  0
    0.7145   -0.0000    0.0000 C   0  0  0  0  0  0  0  2  0  0  0  0
    1.4289    0.4125    0.0000 N   0  0  0  0  0  0  0  2  0  0  0  0
    1.4289    1.2375    0.0000 O   0  0  0  0  0  0  0  2  0  0  0  0
    2.1434   -0.0000    0.0000 O   0  0  0  0  0  0  0  2  0  0  0  0
    0.7145   -0.8250    0.0000 C   0  0  0  0  0  0  0  2  0  0  0  0
    1.4289   -1.2375    0.0000 O   0  0  0  0  0  0  0  2  0  0  0  0
    0.0000   -1.2375    0.0000 C   0  0  0  0  0  0  0  2  0  0  0  0
  1  2  4  0        0
  2  3  1  0        0
  3  4  2  0        0
  2  5  4  0        0
  5  6  4  0        0
  6  7  1  0        0
  7  8  2  0        0
  7  9  2  0        0
  6 10  4  0        0
 10 11  1  0        0
 10 12  4  0        0
  1 12  4  0        0
M  END
$$$$

CDXL12

  5  4  0  0  0  0  0  0  0  0999 V2000
    0.3572    0.6187    0.0000 Br  0  0  0  0  0  0  0  2  0  0  0  0
    0.3572   -0.2062    0.0000 C   0  0  0  0  0  0  0  2  0  0  0  0
   -0.3572   -0.6187    0.0000 C   0  0  0  0  0  0  0  2  0  0  0  0
   -1.0717   -0.2062    0.0000 Cl  0  0  0  0  0  0  0  2  0  0  0  0
    1.0717   -0.6187    0.0000 C   0  0  0  0  0  0  0  2  0  0  0  0
  1  2  1  0        0
  2  3  1  0        0
  3  4  1  0        0
  2  5  1  0        0
M  END
$$$$

CDXL12

 14 14  0  0  0  0  0  0  0  0999 V2000
   -2.8579   -0.4125    0.0000 C   0  0  0  0  0  0  0  2  0  0  0  0
   -2.1434    0.0000    0.0000 O   0  0  0  0  0  0  0  2  0  0  0  0
   -1.4289   -0.4125    0.0000 N   0  0  0  0  0  0  0  2  0  0  0  0
   -1.4289   -1.2375    0.0000 C   0  0  0  0  0  0  0  2  0  0  0  0
   -0.7145    0.0000    0.0000 C   0  0  0  0  0  0  0  2  0  0  0  0
   -0.7145    0.8250    0.0000 O   0  0  0  0  0  0  0  2  0  0  0  0
    0.0000   -0.4125    0.0000 N   0  0  0  0  0  0  0  2  0  0  0  0
    0.7145    0.0000    0.0000 C   0  0  0  0  0  0  0  2  0  0  0  0
    0.7145    0.8250    0.0000 C   0  0  0  0  0  0  0  2  0  0  0  0
    1.4289    1.2375    0.0000 C   0  0  0  0  0  0  0  2  0  0  0  0
    2.1434    0.8250    0.0000 C   0  0  0  0  0  0  0  2  0  0  0  0
    2.8579    1.2375    0.0000 Br  0  0  0  0  0  0  0  2  0  0  0  0
    2.1434    0.0000    0.0000 C   0  0  0  0  0  0  0  2  0  0  0  0
    1.4289   -0.4125    0.0000 C   0  0  0  0  0  0  0  2  0  0  0  0
  1  2  1  0        0
  2  3  1  0        0
  3  4  1  0        0
  3  5  1  0        0
  5  6  2  0        0
  5  7  1  0        0
  7  8  1  0        0
  8  9  4  0        0
  9 10  4  0        0
 10 11  4  0        0
 11 12  1  0        0
 11 13  4  0        0
 13 14  4  0        0
  8 14  4  0        0
M  END
$$$$

CDXL12

  7  6  0  0  0  0  0  0  0  0999 V2000
   -1.4289    0.2062    0.0000 C   0  0  0  0  0  0  0  2  0  0  0  0
   -2.1434   -0.2062    0.0000 C   0  0  0  0  0  0  0  2  0  0  0  0
   -0.7145   -0.2062    0.0000 C   0  0  0  0  0  0  0  2  0  0  0  0
    0.0000    0.2062    0.0000 C   0  0  0  0  0  0  0  2  0  0  0  0
    0.7145   -0.2062    0.0000 C   0  0  0  0  0  0  0  2  0  0  0  0
    1.4289    0.2062    0.0000 C   0  0  0  0  0  0  0  2  0  0  0  0
    2.1434   -0.2062    0.0000 C   0  0  0  0  0  0  0  2  0  0  0  0
  1  2  2  0        0
  1  3  1  0        0
  3  4  1  0        0
  4  5  1  0        0
  5  6  1  0        0
  6  7  2  0        0
M  END
$$$$

CDXL12

  9  9  0  0  0  0  0  0  0  0999 V2000
    0.6592    0.2615    0.0000 C   0  0  0  0  0  0  0  2  0  0  0  0
    0.6592   -0.5635    0.0000 C   0  0  0  0  0  0  0  2  0  0  0  0
   -0.0553   -0.9760    0.0000 C   0  0  0  0  0  0  0  2  0  0  0  0
   -0.7697   -0.5635    0.0000 C   0  0  0  0  0  0  0  2  0  0  0  0
   -0.7697    0.2615    0.0000 C   0  0  0  0  0  0  0  2  0  0  0  0
   -1.4842    0.6740    0.0000 C   0  0  0  0  0  0  0  2  0  0  0  0
   -0.0553    0.6740    0.0000 C   0  0  0  0  0  0  0  2  0  0  0  0
    1.0717    0.9760    0.0000 C   0  0  0  0  0  0  0  2  0  0  0  0
    1.4842    0.2615    0.0000 C   0  0  0  0  0  0  0  2  0  0  0  0
  1  2  1  0        0
  2  3  1  0        0
  3  4  1  0        0
  4  5  1  0        0
  5  6  1  0        0
  5  7  1  0        0
  1  7  1  0        0
  1  8  1  0        0
  1  9  1  0        0
M  END
$$$$

CDXL12

  6  5  0  0  0  0  0  0  0  0999 V2000
   -1.7862   -0.2062    0.0000 O   0  0  0  0  0  0  0  2  0  0  0  0
   -1.0717    0.2062    0.0000 C   0  0  0  0  0  0  0  2  0  0  0  0
   -0.3572   -0.2062    0.0000 C   0  0  0  0  0  0  0  2  0  0  0  0
    0.3572    0.2062    0.0000 S   0  0  0  0  0  0  0  2  0  0  0  0
    1.0717   -0.2062    0.0000 C   0  0  0  0  0  0  0  2  0  0  0  0
    1.7862    0.2062    0.0000 C   0  0  0  0  0  0  0  2  0  0  0  0
  1  2  1  0        0
  2  3  1  0        0
  3  4  1  0        0
  4  5  1  0        0
  5  6  2  0        0
M  END
$$$$

CDXL12

  8  7  0  0  0  0  0  0  0  0999 V2000
    1.7862   -0.2063    0.0000 O   0  0  0  0  0  0  0  2  0  0  0  0
    1.0717   -0.6188    0.0000 C   0  0  0  0  0  0  0  2  0  0  0  0
    0.3572   -0.2062    0.0000 C   0  0  0  0  0  0  0  2  0  0  0  0
   -0.3572   -0.6188    0.0000 C   0  0  0  0  0  0  0  2  0  0  0  0
   -1.0717   -0.2063    0.0000 C   0  0  0  0  0  0  0  2  0  0  0  0
   -1.7862   -0.6188    0.0000 C   0  0  0  0  0  0  0  2  0  0  0  0
   -1.7862    0.2062    0.0000 C   0  0  0  0  0  0  0  2  0  0  0  0
   -1.0717    0.6188    0.0000 C   0  0  0  0  0  0  0  2  0  0  0  0
  1  2  1  0        0
  2  3  1  0        0
  3  4  1  0        0
  4  5  1  0        0
  5  6  1  0        0
  5  7  1  0        0
  5  8  1  0        0
M  END
$$$$

CDXL12

 20 20  0  0  0  0  0  0  0  0999 V2000
   -0.0000   -0.4125    0.0000 C   0  0  0  0  0  0  0  2  0  0  0  0
   -0.7145    0.0000    0.0000 C   0  0  0  0  0  0  0  2  0  0  0  0
   -1.4289   -0.4125    0.0000 C   0  0  0  0  0  0  0  2  0  0  0  0
   -1.4289   -1.2375    0.0000 O   0  0  0  0  0  0  0  2  0  0  0  0
   -2.1434   -0.0000    0.0000 O   0  0  0  0  0  0  0  2  0  0  0  0
   -2.8579   -0.4125    0.0000 C   0  0  0  0  0  0  0  2  0  0  0  0
   -3.5724   -0.0000    0.0000 C   0  0  0  0  0  0  0  2  0  0  0  0
   -4.2868   -0.4125    0.0000 C   0  0  0  0  0  0  0  2  0  0  0  0
   -5.0013   -0.0000    0.0000 C   0  0  0  0  0  0  0  2  0  0  0  0
   -0.7145    0.8250    0.0000 C   0  0  0  0  0  0  0  2  0  0  0  0
   -0.0000    1.2375    0.0000 C   0  0  0  0  0  0  0  2  0  0  0  0
    0.7145    0.8250    0.0000 C   0  0  0  0  0  0  0  2  0  0  0  0
    0.7145   -0.0000    0.0000 C   0  0  0  0  0  0  0  2  0  0  0  0
    1.4289   -0.4125    0.0000 C   0  0  0  0  0  0  0  2  0  0  0  0
    1.4289   -1.2375    0.0000 O   0  0  0  0  0  0  0  2  0  0  0  0
    2.1434   -0.0000    0.0000 O   0  0  0  0  0  0  0  2  0  0  0  0
    2.8579   -0.4125    0.0000 C   0  0  0  0  0  0  0  2  0  0  0  0
    3.5724   -0.0000    0.0000 C   0  0  0  0  0  0  0  2  0  0  0  0
    4.2868   -0.4125    0.0000 C   0  0  0  0  0  0  0  2  0  0  0  0
    5.0013   -0.0000    0.0000 C   0  0  0  0  0  0  0  2  0  0  0  0
  1  2  4  0        0
  2  3  1  0        0
  3  4  2  0        0
  3  5  1  0        0
  5  6  1  0        0
  6  7  1  0        0
  7  8  1  0        0
  8  9  1  0        0
  2 10  4  0        0
 10 11  4  0        0
 11 12  4  0        0
 12 13  4  0        0
  1 13  4  0        0
 13 14  1  0        0
 14 15  2  0        0
 14 16  1  0        0
 16 17  1  0        0
 17 18  1  0        0
 18 19  1  0        0
 19 20  1  0        0
M  END
$$$$

CDXL12

 22 23  0  0  0  0  0  0  0  0999 V2000
   -1.0717    0.2062    0.0000 C   0  0  0  0  0  0  0  2  0  0  0  0
   -1.7862   -0.2062    0.0000 C   0  0  0  0  0  0  0  2  0  0  0  0
   -2.5006    0.2063    0.0000 C   0  0  0  0  0  0  0  2  0  0  0  0
   -2.5006    1.0313    0.0000 C   0  0  0  0  0  0  0  2  0  0  0  0
   -1.7862    1.4438    0.0000 C   0  0  0  0  0  0  0  2  0  0  0  0
   -1.0717    1.0313    0.0000 C   0  0  0  0  0  0  0  2  0  0  0  0
   -0.3572    1.4437    0.0000 C   0  0  0  0  0  0  0  2  0  0  0  0
   -0.3572    2.2687    0.0000 O   0  0  0  0  0  0  0  2  0  0  0  0
    0.3572    1.0313    0.0000 N   0  0  0  0  0  0  0  2  0  0  0  0
    0.3572    0.2062    0.0000 C   0  0  0  0  0  0  0  2  0  0  0  0
    1.0717   -0.2062    0.0000 C   0  0  0  0  0  0  0  2  0  0  0  0
    1.0717   -1.0313    0.0000 C   0  0  0  0  0  0  0  2  0  0  0  0
    1.7862   -1.4438    0.0000 Cl  0  0  0  0  0  0  0  2  0  0  0  0
    0.3572   -1.4438    0.0000 C   0  0  0  0  0  0  0  2  0  0  0  0
    0.3572   -2.2687    0.0000 Cl  0  0  0  0  0  0  0  2  0  0  0  0
   -0.3572   -1.0313    0.0000 C   0  0  0  0  0  0  0  2  0  0  0  0
   -0.3572   -0.2062    0.0000 C   0  0  0  0  0  0  0  2  0  0  0  0
    1.0717    1.4438    0.0000 C   0  0  0  0  0  0  0  2  0  0  0  0
    1.0717    2.2687    0.0000 O   0  0  0  0  0  0  0  2  0  0  0  0
    1.7862    1.0313    0.0000 N   0  0  0  0  0  0  0  2  0  0  0  0
    2.5006    1.4437    0.0000 C   0  0  0  0  0  0  0  2  0  0  0  0
    1.7862    0.2062    0.0000 C   0  0  0  0  0  0  0  2  0  0  0  0
  1  2  4  0        0
  2  3  4  0        0
  3  4  4  0        0
  4  5  4  0        0
  5  6  4  0        0
  1  6  4  0        0
  6  7  1  0        0
  7  8  2  0        0
  7  9  1  0        0
  9 10  1  0        0
 10 11  4  0        0
 11 12  4  0        0
 12 13  1  0        0
 12 14  4  0        0
 14 15  1  0        0
 14 16  4  0        0
 16 17  4  0        0
 10 17  4  0        0
  9 18  1  0        0
 18 19  2  0        0
 18 20  1  0        0
 20 21  1  0        0
 20 22  1  0        0
M  END
$$$$

CDXL12

 18 18  0  0  0  0  0  0  0  0999 V2000
    2.1434   -1.4438    0.0000 Br  0  0  0  0  0  0  0  2  0  0  0  0
    1.4289   -1.0313    0.0000 C   0  0  0  0  0  0  0  2  0  0  0  0
    0.7145   -1.4438    0.0000 C   0  0  0  0  0  0  0  2  0  0  0  0
    0.7145   -2.2687    0.0000 Br  0  0  0  0  0  0  0  2  0  0  0  0
    0.0000   -1.0313    0.0000 C   0  0  0  0  0  0  0  2  0  0  0  0
   -0.7145   -1.4438    0.0000 C   0  0  0  0  0  0  0  2  0  0  0  0
   -1.4289   -1.0313    0.0000 C   0  0  0  0  0  0  0  2  0  0  0  0
   -2.1434   -1.4437    0.0000 Br  0  0  0  0  0  0  0  2  0  0  0  0
   -1.4289   -0.2062    0.0000 C   0  0  0  0  0  0  0  2  0  0  0  0
   -2.1434    0.2062    0.0000 Br  0  0  0  0  0  0  0  2  0  0  0  0
   -0.7145    0.2062    0.0000 C   0  0  0  0  0  0  0  2  0  0  0  0
   -0.7145    1.0313    0.0000 C   0  0  0  0  0  0  0  2  0  0  0  0
    0.0000    1.4438    0.0000 C   0  0  0  0  0  0  0  2  0  0  0  0
    0.0000    2.2687    0.0000 Br  0  0  0  0  0  0  0  2  0  0  0  0
    0.7145    1.0313    0.0000 C   0  0  0  0  0  0  0  2  0  0  0  0
    1.4289    1.4438    0.0000 Br  0  0  0  0  0  0  0  2  0  0  0  0
    0.7145    0.2062    0.0000 C   0  0  0  0  0  0  0  2  0  0  0  0
    1.4289   -0.2062    0.0000 C   0  0  0  0  0  0  0  2  0  0  0  0
  1  2  1  0        0
  2  3  1  0        0
  3  4  1  0        0
  3  5  1  0        0
  5  6  1  0        0
  6  7  1  0        0
  7  8  1  0        0
  7  9  1  0        0
  9 10  1  0        0
  9 11  1  0        0
 11 12  1  0        0
 12 13  1  0        0
 13 14  1  0        0
 13 15  1  0        0
 15 16  1  0        0
 15 17  1  0        0
 17 18  1  0        0
  2 18  1  0        0
M  END
$$$$

CDXL12

 11 11  0  0  0  0  0  0  0  0999 V2000
   -1.0717    1.2375    0.0000 O   0  0  0  0  0  0  0  2  0  0  0  0
   -1.0717    0.4125    0.0000 N   0  0  0  0  0  0  0  2  0  0  0  0
   -1.7862    0.0000    0.0000 O   0  0  0  0  0  0  0  2  0  0  0  0
   -0.3572    0.0000    0.0000 C   0  0  0  0  0  0  0  2  0  0  0  0
    0.3572    0.4125    0.0000 C   0  0  0  0  0  0  0  2  0  0  0  0
    1.0717   -0.0000    0.0000 C   0  0  0  0  0  0  0  2  0  0  0  0
    1.0717   -0.8250    0.0000 C   0  0  0  0  0  0  0  2  0  0  0  0
    0.3572   -1.2375    0.0000 C   0  0  0  0  0  0  0  2  0  0  0  0
   -0.3572   -0.8250    0.0000 C   0  0  0  0  0  0  0  2  0  0  0  0
    1.7862    0.4125    0.0000 Cl  0  0  0  0  0  0  0  2  0  0  0  0
    0.3572    1.2375    0.0000 Cl  0  0  0  0  0  0  0  2  0  0  0  0
  1  2  2  0        0
  2  3  2  0        0
  2  4  1  0        0
  4  5  4  0        0
  5  6  4  0        0
  6  7  4  0        0
  7  8  4  0        0
  8  9  4  0        0
  4  9  4  0        0
  6 10  1  0        0
  5 11  1  0        0
M  END
$$$$

CDXL12

  9  8  0  0  0  0  0  0  0  0999 V2000
    1.4289    0.0000    0.0000 Br  0  0  0  0  0  0  0  2  0  0  0  0
    0.7145   -0.4125    0.0000 C   0  0  0  0  0  0  0  2  0  0  0  0
    0.0000   -0.0000    0.0000 C   0  0  0  0  0  0  0  2  0  0  0  0
   -0.4125   -0.7145    0.0000 C   0  0  0  0  0  0  0  2  0  0  0  0
   -1.2375   -0.7145    0.0000 Br  0  0  0  0  0  0  0  2  0  0  0  0
   -0.7145    0.4125    0.0000 C   0  0  0  0  0  0  0  2  0  0  0  0
   -1.4289   -0.0000    0.0000 Br  0  0  0  0  0  0  0  2  0  0  0  0
    0.4125    0.7145    0.0000 C   0  0  0  0  0  0  0  2  0  0  0  0
    1.2375    0.7145    0.0000 Br  0  0  0  0  0  0  0  2  0  0  0  0
  1  2  1  0        0
  2  3  1  0        0
  3  4  1  0        0
  4  5  1  0        0
  3  6  1  0        0
  6  7  1  0        0
  3  8  1  0        0
  8  9  1  0        0
M  END
$$$$

CDXL12

 21 20  0  0  0  0  0  0  0  0999 V2000
    3.5724    0.8250    0.0000 C   0  0  0  0  0  0  0  2  0  0  0  0
    2.8579    0.4125    0.0000 C   0  0  0  0  0  0  0  2  0  0  0  0
    2.1434    0.8250    0.0000 C   0  0  0  0  0  0  0  2  0  0  0  0
    1.4289    0.4125    0.0000 O   0  0  0  0  0  0  0  2  0  0  0  0
    0.7145    0.8250    0.0000 P   0  0  0  0  0  0  0  2  0  0  0  0
    0.7145    1.6500    0.0000 S   0  0  0  0  0  0  0  2  0  0  0  0
    0.7145    0.0000    0.0000 O   0  0  0  0  0  0  0  2  0  0  0  0
    1.4289   -0.4125    0.0000 C   0  0  0  0  0  0  0  2  0  0  0  0
    1.4289   -1.2375    0.0000 C   0  0  0  0  0  0  0  2  0  0  0  0
    2.1434   -1.6500    0.0000 C   0  0  0  0  0  0  0  2  0  0  0  0
    0.0000    0.4125    0.0000 O   0  0  0  0  0  0  0  2  0  0  0  0
   -0.7145    0.8250    0.0000 P   0  0  0  0  0  0  0  2  0  0  0  0
   -0.7145    1.6500    0.0000 S   0  0  0  0  0  0  0  2  0  0  0  0
   -1.4289    0.4125    0.0000 O   0  0  0  0  0  0  0  2  0  0  0  0
   -2.1434    0.8250    0.0000 C   0  0  0  0  0  0  0  2  0  0  0  0
   -2.8579    0.4125    0.0000 C   0  0  0  0  0  0  0  2  0  0  0  0
   -3.5724    0.8250    0.0000 C   0  0  0  0  0  0  0  2  0  0  0  0
   -0.7145    0.0000    0.0000 O   0  0  0  0  0  0  0  2  0  0  0  0
   -1.4289   -0.4125    0.0000 C   0  0  0  0  0  0  0  2  0  0  0  0
   -1.4289   -1.2375    0.0000 C   0  0  0  0  0  0  0  2  0  0  0  0
   -2.1434   -1.6500    0.0000 C   0  0  0  0  0  0  0  2  0  0  0  0
  1  2  1  0        0
  2  3  1  0        0
  3  4  1  0        0
  4  5  1  0        0
  5  6  2  0        0
  5  7  1  0        0
  7  8  1  0        0
  8  9  1  0        0
  9 10  1  0        0
  5 11  1  0        0
 11 12  1  0        0
 12 13  2  0        0
 12 14  1  0        0
 14 15  1  0        0
 15 16  1  0        0
 16 17  1  0        0
 12 18  1  0        0
 18 19  1  0        0
 19 20  1  0        0
 20 21  1  0        0
M  END
$$$$

CDXL12

 24 23  0  0  0  0  0  0  0  0999 V2000
    1.8010    1.6095    0.0000 O   0  0  0  0  0  0  0  2  0  0  0  0
    1.8010    0.7845    0.0000 C   0  0  0  0  0  0  0  2  0  0  0  0
    1.0865    0.3720    0.0000 O   0  0  0  0  0  0  0  2  0  0  0  0
    0.3720    0.7845    0.0000 C   0  0  0  0  0  0  0  2  0  0  0  0
   -0.3424    0.3720    0.0000 C   0  0  0  0  0  0  0  2  0  0  0  0
    0.0701   -0.3424    0.0000 C   0  0  0  0  0  0  0  2  0  0  0  0
    0.8951   -0.3424    0.0000 C   0  0  0  0  0  0  0  2  0  0  0  0
   -1.0569   -0.0405    0.0000 C   0  0  0  0  0  0  0  2  0  0  0  0
   -1.0569   -0.8655    0.0000 O   0  0  0  0  0  0  0  2  0  0  0  0
   -1.7714   -1.2780    0.0000 C   0  0  0  0  0  0  0  2  0  0  0  0
   -2.4858   -0.8655    0.0000 O   0  0  0  0  0  0  0  2  0  0  0  0
   -1.7714   -2.1030    0.0000 C   0  0  0  0  0  0  0  2  0  0  0  0
   -2.4858   -2.5155    0.0000 C   0  0  0  0  0  0  0  2  0  0  0  0
   -1.0569   -2.5155    0.0000 C   0  0  0  0  0  0  0  2  0  0  0  0
   -0.7549    1.0865    0.0000 C   0  0  0  0  0  0  0  2  0  0  0  0
   -1.5799    1.0865    0.0000 O   0  0  0  0  0  0  0  2  0  0  0  0
   -1.9924    1.8010    0.0000 C   0  0  0  0  0  0  0  2  0  0  0  0
   -1.5799    2.5155    0.0000 O   0  0  0  0  0  0  0  2  0  0  0  0
   -2.8174    1.8010    0.0000 C   0  0  0  0  0  0  0  2  0  0  0  0
   -3.2299    2.5155    0.0000 C   0  0  0  0  0  0  0  2  0  0  0  0
   -3.2299    1.0865    0.0000 C   0  0  0  0  0  0  0  2  0  0  0  0
    2.5155    0.3720    0.0000 C   0  0  0  0  0  0  0  2  0  0  0  0
    3.2299    0.7845    0.0000 C   0  0  0  0  0  0  0  2  0  0  0  0
    2.5155   -0.4530    0.0000 C   0  0  0  0  0  0  0  2  0  0  0  0
  1  2  2  0        0
  2  3  1  0        0
  3  4  1  0        0
  4  5  1  0        0
  5  6  1  0        0
  6  7  1  0        0
  5  8  1  0        0
  8  9  1  0        0
  9 10  1  0        0
 10 11  2  0        0
 10 12  1  0        0
 12 13  2  0        0
 12 14  1  0        0
  5 15  1  0        0
 15 16  1  0        0
 16 17  1  0        0
 17 18  2  0        0
 17 19  1  0        0
 19 20  2  0        0
 19 21  1  0        0
  2 22  1  0        0
 22 23  2  0        0
 22 24  1  0        0
M  END
$$$$

CDXL12

  9  8  0  0  0  0  0  0  0  0999 V2000
    1.4289    0.0000    0.0000 O   0  0  0  0  0  0  0  2  0  0  0  0
    0.7145   -0.4125    0.0000 C   0  0  0  0  0  0  0  2  0  0  0  0
    0.0000   -0.0000    0.0000 C   0  0  0  0  0  0  0  2  0  0  0  0
   -0.4125   -0.7145    0.0000 C   0  0  0  0  0  0  0  2  0  0  0  0
   -1.2375   -0.7145    0.0000 Br  0  0  0  0  0  0  0  2  0  0  0  0
   -0.7145    0.4125    0.0000 C   0  0  0  0  0  0  0  2  0  0  0  0
   -1.4289   -0.0000    0.0000 Br  0  0  0  0  0  0  0  2  0  0  0  0
    0.4125    0.7145    0.0000 C   0  0  0  0  0  0  0  2  0  0  0  0
    1.2375    0.7145    0.0000 O   0  0  0  0  0  0  0  2  0  0  0  0
  1  2  1  0        0
  2  3  1  0        0
  3  4  1  0        0
  4  5  1  0        0
  3  6  1  0        0
  6  7  1  0        0
  3  8  1  0        0
  8  9  1  0        0
M  END
$$$$

CDXL12

 13 13  0  0  0  0  0  0  0  0999 V2000
    1.0717   -0.8250    0.0000 C   0  0  0  0  0  0  0  2  0  0  0  0
    1.0717   -0.0000    0.0000 C   0  0  0  0  0  0  0  2  0  0  0  0
    0.3572    0.4125    0.0000 O   0  0  0  0  0  0  0  2  0  0  0  0
   -0.3572   -0.0000    0.0000 C   0  0  0  0  0  0  0  2  0  0  0  0
   -0.3572   -0.8250    0.0000 C   0  0  0  0  0  0  0  2  0  0  0  0
   -1.0717   -1.2375    0.0000 C   0  0  0  0  0  0  0  2  0  0  0  0
   -1.7862   -0.8250    0.0000 C   0  0  0  0  0  0  0  2  0  0  0  0
   -2.5006   -1.2375    0.0000 Cl  0  0  0  0  0  0  0  2  0  0  0  0
   -1.7862   -0.0000    0.0000 C   0  0  0  0  0  0  0  2  0  0  0  0
   -1.0717    0.4125    0.0000 C   0  0  0  0  0  0  0  2  0  0  0  0
    1.7862    0.4125    0.0000 C   0  0  0  0  0  0  0  2  0  0  0  0
    2.5006   -0.0000    0.0000 O   0  0  0  0  0  0  0  2  0  0  0  0
    1.7862    1.2375    0.0000 O   0  0  0  0  0  0  0  2  0  0  0  0
  1  2  1  0        0
  2  3  1  0        0
  3  4  1  0        0
  4  5  4  0        0
  5  6  4  0        0
  6  7  4  0        0
  7  8  1  0        0
  7  9  4  0        0
  9 10  4  0        0
  4 10  4  0        0
  2 11  1  0        0
 11 12  1  0        0
 11 13  2  0        0
M  END
$$$$

CDXL12

 39 39  0  0  0  0  0  0  0  0999 V2000
   -1.4289   -0.2062    0.0000 O   0  0  0  0  0  0  0  2  0  0  0  0
   -1.4289   -1.0313    0.0000 C   0  0  0  0  0  0  0  2  0  0  0  0
   -2.1434   -1.4438    0.0000 O   0  0  0  0  0  0  0  2  0  0  0  0
   -2.8579   -1.0313    0.0000 C   0  0  0  0  0  0  0  2  0  0  0  0
   -3.5724   -1.4438    0.0000 C   0  0  0  0  0  0  0  2  0  0  0  0
   -4.2868   -1.0313    0.0000 C   0  0  0  0  0  0  0  2  0  0  0  0
   -5.0013   -1.4438    0.0000 C   0  0  0  0  0  0  0  2  0  0  0  0
   -5.7158   -1.0313    0.0000 C   0  0  0  0  0  0  0  2  0  0  0  0
   -6.4302   -1.4438    0.0000 C   0  0  0  0  0  0  0  2  0  0  0  0
   -3.5724   -2.2687    0.0000 C   0  0  0  0  0  0  0  2  0  0  0  0
   -4.2868   -2.6812    0.0000 C   0  0  0  0  0  0  0  2  0  0  0  0
   -0.7145   -1.4438    0.0000 C   0  0  0  0  0  0  0  2  0  0  0  0
   -0.7145   -2.2687    0.0000 C   0  0  0  0  0  0  0  2  0  0  0  0
   -0.0000   -2.6812    0.0000 C   0  0  0  0  0  0  0  2  0  0  0  0
    0.7145   -2.2687    0.0000 C   0  0  0  0  0  0  0  2  0  0  0  0
    0.7145   -1.4438    0.0000 C   0  0  0  0  0  0  0  2  0  0  0  0
    1.4289   -1.0313    0.0000 C   0  0  0  0  0  0  0  2  0  0  0  0
    2.1434   -1.4438    0.0000 O   0  0  0  0  0  0  0  2  0  0  0  0
    1.4289   -0.2062    0.0000 O   0  0  0  0  0  0  0  2  0  0  0  0
    2.1434    0.2062    0.0000 C   0  0  0  0  0  0  0  2  0  0  0  0
    2.1434    1.0313    0.0000 C   0  0  0  0  0  0  0  2  0  0  0  0
    2.8579    1.4437    0.0000 C   0  0  0  0  0  0  0  2  0  0  0  0
    2.8579    2.2687    0.0000 C   0  0  0  0  0  0  0  2  0  0  0  0
    3.5724    2.6812    0.0000 C   0  0  0  0  0  0  0  2  0  0  0  0
    3.5724    3.5063    0.0000 C   0  0  0  0  0  0  0  2  0  0  0  0
    1.4289    1.4437    0.0000 C   0  0  0  0  0  0  0  2  0  0  0  0
    0.7145    1.0313    0.0000 C   0  0  0  0  0  0  0  2  0  0  0  0
   -0.0000   -1.0313    0.0000 C   0  0  0  0  0  0  0  2  0  0  0  0
    1.4289   -2.6812    0.0000 C   0  0  0  0  0  0  0  2  0  0  0  0
    1.4289   -3.5063    0.0000 O   0  0  0  0  0  0  0  2  0  0  0  0
    2.1434   -2.2687    0.0000 O   0  0  0  0  0  0  0  2  0  0  0  0
    2.8579   -2.6812    0.0000 C   0  0  0  0  0  0  0  2  0  0  0  0
    3.5724   -2.2687    0.0000 C   0  0  0  0  0  0  0  2  0  0  0  0
    4.2868   -2.6812    0.0000 C   0  0  0  0  0  0  0  2  0  0  0  0
    5.0013   -2.2687    0.0000 C   0  0  0  0  0  0  0  2  0  0  0  0
    5.7158   -2.6812    0.0000 C   0  0  0  0  0  0  0  2  0  0  0  0
    6.4302   -2.2687    0.0000 C   0  0  0  0  0  0  0  2  0  0  0  0
    3.5724   -1.4438    0.0000 C   0  0  0  0  0  0  0  2  0  0  0  0
    4.2868   -1.0313    0.0000 C   0  0  0  0  0  0  0  2  0  0  0  0
  1  2  2  0        0
  2  3  1  0        0
  3  4  1  0        0
  4  5  1  0        0
  5  6  1  0        0
  6  7  1  0        0
  7  8  1  0        0
  8  9  1  0        0
  5 10  1  0        0
 10 11  1  0        0
  2 12  1  0        0
 12 13  4  0        0
 13 14  4  0        0
 14 15  4  0        0
 15 16  4  0        0
 16 17  1  0        0
 17 18  2  0        0
 17 19  1  0        0
 19 20  1  0        0
 20 21  1  0        0
 21 22  1  0        0
 22 23  1  0        0
 23 24  1  0        0
 24 25  1  0        0
 21 26  1  0        0
 26 27  1  0        0
 16 28  4  0        0
 12 28  4  0        0
 15 29  1  0        0
 29 30  2  0        0
 29 31  1  0        0
 31 32  1  0        0
 32 33  1  0        0
 33 34  1  0        0
 34 35  1  0        0
 35 36  1  0        0
 36 37  1  0        0
 33 38  1  0        0
 38 39  1  0        0
M  END
$$$$

CDXL12

 15 15  0  0  0  0  0  0  0  0999 V2000
    2.8579   -0.4678    0.0000 C   0  0  0  0  0  0  0  2  0  0  0  0
    2.1434   -0.8803    0.0000 O   0  0  0  0  0  0  0  2  0  0  0  0
    1.4289   -0.4678    0.0000 C   0  0  0  0  0  0  0  2  0  0  0  0
    1.4289    0.3572    0.0000 O   0  0  0  0  0  0  0  2  0  0  0  0
    0.7145   -0.8803    0.0000 N   0  0  0  0  0  0  0  2  0  0  0  0
    0.0000   -0.4678    0.0000 S   0  0  0  0  0  0  0  2  0  0  0  0
    0.4125    0.2467    0.0000 O   0  0  0  0  0  0  0  2  0  0  0  0
   -0.4125   -1.1822    0.0000 O   0  0  0  0  0  0  0  2  0  0  0  0
   -0.7145   -0.0553    0.0000 C   0  0  0  0  0  0  0  2  0  0  0  0
   -1.4289   -0.4678    0.0000 C   0  0  0  0  0  0  0  2  0  0  0  0
   -2.1434   -0.0553    0.0000 C   0  0  0  0  0  0  0  2  0  0  0  0
   -2.1434    0.7697    0.0000 C   0  0  0  0  0  0  0  2  0  0  0  0
   -2.8579    1.1822    0.0000 N   0  0  0  0  0  0  0  2  0  0  0  0
   -1.4289    1.1822    0.0000 C   0  0  0  0  0  0  0  2  0  0  0  0
   -0.7145    0.7697    0.0000 C   0  0  0  0  0  0  0  2  0  0  0  0
  1  2  1  0        0
  2  3  1  0        0
  3  4  2  0        0
  3  5  1  0        0
  5  6  1  0        0
  6  7  2  0        0
  6  8  2  0        0
  6  9  1  0        0
  9 10  4  0        0
 10 11  4  0        0
 11 12  4  0        0
 12 13  1  0        0
 12 14  4  0        0
 14 15  4  0        0
  9 15  4  0        0
M  END
$$$$

CDXL12

 17 18  0  0  0  0  0  0  0  0999 V2000
   -0.0000    0.4125    0.0000 O   0  0  0  0  0  0  0  2  0  0  0  0
   -0.7145    0.0000    0.0000 C   0  0  0  0  0  0  0  2  0  0  0  0
   -0.7145   -0.8250    0.0000 C   0  0  0  0  0  0  0  2  0  0  0  0
   -0.0000   -1.2375    0.0000 O   0  0  0  0  0  0  0  2  0  0  0  0
   -1.4289   -1.2375    0.0000 C   0  0  0  0  0  0  0  2  0  0  0  0
   -2.1434   -0.8250    0.0000 C   0  0  0  0  0  0  0  2  0  0  0  0
   -2.1434    0.0000    0.0000 C   0  0  0  0  0  0  0  2  0  0  0  0
   -1.4289    0.4125    0.0000 C   0  0  0  0  0  0  0  2  0  0  0  0
   -2.8579   -1.2375    0.0000 Cl  0  0  0  0  0  0  0  2  0  0  0  0
    0.7145   -0.0000    0.0000 C   0  0  0  0  0  0  0  2  0  0  0  0
    1.4289    0.4125    0.0000 C   0  0  0  0  0  0  0  2  0  0  0  0
    2.1434    0.0000    0.0000 C   0  0  0  0  0  0  0  2  0  0  0  0
    2.1434   -0.8250    0.0000 C   0  0  0  0  0  0  0  2  0  0  0  0
    1.4289   -1.2375    0.0000 C   0  0  0  0  0  0  0  2  0  0  0  0
    0.7145   -0.8250    0.0000 C   0  0  0  0  0  0  0  2  0  0  0  0
    2.8579   -1.2375    0.0000 Cl  0  0  0  0  0  0  0  2  0  0  0  0
    1.4289    1.2375    0.0000 Cl  0  0  0  0  0  0  0  2  0  0  0  0
  1  2  1  0        0
  2  3  4  0        0
  3  4  1  0        0
  3  5  4  0        0
  5  6  4  0        0
  6  7  4  0        0
  7  8  4  0        0
  2  8  4  0        0
  6  9  1  0        0
  1 10  1  0        0
 10 11  4  0        0
 11 12  4  0        0
 12 13  4  0        0
 13 14  4  0        0
 14 15  4  0        0
 10 15  4  0        0
 13 16  1  0        0
 11 17  1  0        0
M  END
$$$$

CDXL12

 18 19  0  0  0  0  0  0  0  0999 V2000
    1.7862    0.8250    0.0000 Cl  0  0  0  0  0  0  0  2  0  0  0  0
    1.0717    1.2375    0.0000 C   0  0  0  0  0  0  0  2  0  0  0  0
    0.3572    0.8250    0.0000 C   0  0  0  0  0  0  0  2  0  0  0  0
   -0.3572    1.2375    0.0000 C   0  0  0  0  0  0  0  2  0  0  0  0
   -1.0717    0.8250    0.0000 C   0  0  0  0  0  0  0  2  0  0  0  0
   -1.7862    1.2375    0.0000 C   0  0  0  0  0  0  0  2  0  0  0  0
   -1.7862    2.0625    0.0000 C   0  0  0  0  0  0  0  2  0  0  0  0
   -1.0717    2.4750    0.0000 C   0  0  0  0  0  0  0  2  0  0  0  0
   -0.3572    2.0625    0.0000 C   0  0  0  0  0  0  0  2  0  0  0  0
    0.3572    2.4750    0.0000 Cl  0  0  0  0  0  0  0  2  0  0  0  0
    0.3572    0.0000    0.0000 C   0  0  0  0  0  0  0  2  0  0  0  0
    1.0717   -0.4125    0.0000 C   0  0  0  0  0  0  0  2  0  0  0  0
    1.0717   -1.2375    0.0000 C   0  0  0  0  0  0  0  2  0  0  0  0
    0.3572   -1.6500    0.0000 C   0  0  0  0  0  0  0  2  0  0  0  0
   -0.3572   -1.2375    0.0000 C   0  0  0  0  0  0  0  2  0  0  0  0
   -0.3572   -0.4125    0.0000 C   0  0  0  0  0  0  0  2  0  0  0  0
    0.3572   -2.4750    0.0000 Cl  0  0  0  0  0  0  0  2  0  0  0  0
    1.0717    2.0625    0.0000 Cl  0  0  0  0  0  0  0  2  0  0  0  0
  1  2  1  0        0
  2  3  2  0        0
  3  4  1  0        0
  4  5  4  0        0
  5  6  4  0        0
  6  7  4  0        0
  7  8  4  0        0
  8  9  4  0        0
  4  9  4  0        0
  9 10  1  0        0
  3 11  1  0        0
 11 12  4  0        0
 12 13  4  0        0
 13 14  4  0        0
 14 15  4  0        0
 15 16  4  0        0
 11 16  4  0        0
 14 17  1  0        0
  2 18  1  0        0
M  END
$$$$

CDXL12

 10 10  0  0  0  0  0  0  0  0999 V2000
    1.4289   -0.8250    0.0000 O   0  0  0  0  0  0  0  2  0  0  0  0
    0.7145   -0.4125    0.0000 C   0  0  0  0  0  0  0  2  0  0  0  0
    0.0000   -0.8250    0.0000 C   0  0  0  0  0  0  0  2  0  0  0  0
   -0.7145   -0.4125    0.0000 C   0  0  0  0  0  0  0  2  0  0  0  0
   -1.4289   -0.8250    0.0000 Cl  0  0  0  0  0  0  0  2  0  0  0  0
   -0.7145    0.4125    0.0000 C   0  0  0  0  0  0  0  2  0  0  0  0
   -1.4289    0.8250    0.0000 Cl  0  0  0  0  0  0  0  2  0  0  0  0
    0.0000    0.8250    0.0000 C   0  0  0  0  0  0  0  2  0  0  0  0
    0.7145    0.4125    0.0000 C   0  0  0  0  0  0  0  2  0  0  0  0
    1.4289    0.8250    0.0000 O   0  0  0  0  0  0  0  2  0  0  0  0
  1  2  1  0        0
  2  3  4  0        0
  3  4  4  0        0
  4  5  1  0        0
  4  6  4  0        0
  6  7  1  0        0
  6  8  4  0        0
  8  9  4  0        0
  2  9  4  0        0
  9 10  1  0        0
M  END
$$$$

CDXL12

  9  8  0  0  0  0  0  0  0  0999 V2000
    2.1434   -0.0000    0.0000 C   0  0  0  0  0  0  0  2  0  0  0  0
    2.8579   -0.4125    0.0000 C   0  0  0  0  0  0  0  2  0  0  0  0
    1.4289    0.4125    0.0000 C   0  0  0  0  0  0  0  2  0  0  0  0
    0.7145   -0.0000    0.0000 C   0  0  0  0  0  0  0  2  0  0  0  0
    0.0000    0.4125    0.0000 C   0  0  0  0  0  0  0  2  0  0  0  0
   -0.7145   -0.0000    0.0000 C   0  0  0  0  0  0  0  2  0  0  0  0
   -1.4289    0.4125    0.0000 C   0  0  0  0  0  0  0  2  0  0  0  0
   -2.1434   -0.0000    0.0000 C   0  0  0  0  0  0  0  2  0  0  0  0
   -2.8579    0.4125    0.0000 C   0  0  0  0  0  0  0  2  0  0  0  0
  1  2  3  0        0
  1  3  1  0        0
  3  4  1  0        0
  4  5  1  0        0
  5  6  1  0        0
  6  7  1  0        0
  7  8  1  0        0
  8  9  1  0        0
M  END
$$$$

CDXL12

 11 10  0  0  0  0  0  0  0  0999 V2000
    2.1434    0.6187    0.0000 O   0  0  0  0  0  0  0  2  0  0  0  0
    2.1434   -0.2062    0.0000 N   0  0  0  0  0  0  0  2  0  0  0  0
    2.8579   -0.6188    0.0000 O   0  0  0  0  0  0  0  2  0  0  0  0
    1.4289   -0.6188    0.0000 O   0  0  0  0  0  0  0  2  0  0  0  0
    0.7145   -0.2062    0.0000 C   0  0  0  0  0  0  0  2  0  0  0  0
   -0.0000   -0.6188    0.0000 C   0  0  0  0  0  0  0  2  0  0  0  0
   -0.7145   -0.2062    0.0000 C   0  0  0  0  0  0  0  2  0  0  0  0
   -1.4289   -0.6188    0.0000 O   0  0  0  0  0  0  0  2  0  0  0  0
   -2.1434   -0.2062    0.0000 N   0  0  0  0  0  0  0  2  0  0  0  0
   -2.8579   -0.6187    0.0000 O   0  0  0  0  0  0  0  2  0  0  0  0
   -2.1434    0.6188    0.0000 O   0  0  0  0  0  0  0  2  0  0  0  0
  1  2  2  0        0
  2  3  2  0        0
  2  4  1  0        0
  4  5  1  0        0
  5  6  1  0        0
  6  7  1  0        0
  7  8  1  0        0
  8  9  1  0        0
  9 10  2  0        0
  9 11  2  0        0
M  END
$$$$

CDXL12

 12 11  0  0  0  0  0  0  0  0999 V2000
   -2.5006   -1.0312    0.0000 O   0  0  0  0  0  0  0  2  0  0  0  0
   -2.5006   -0.2062    0.0000 N   0  0  0  0  0  0  0  2  0  0  0  0
   -3.2151    0.2062    0.0000 O   0  0  0  0  0  0  0  2  0  0  0  0
   -1.7862    0.2063    0.0000 O   0  0  0  0  0  0  0  2  0  0  0  0
   -1.0717   -0.2062    0.0000 C   0  0  0  0  0  0  0  2  0  0  0  0
   -0.3572    0.2062    0.0000 C   0  0  0  0  0  0  0  2  0  0  0  0
    0.3572   -0.2062    0.0000 C   0  0  0  0  0  0  0  2  0  0  0  0
    1.0717    0.2062    0.0000 C   0  0  0  0  0  0  0  2  0  0  0  0
    1.7862   -0.2062    0.0000 O   0  0  0  0  0  0  0  2  0  0  0  0
    2.5006    0.2062    0.0000 N   0  0  0  0  0  0  0  2  0  0  0  0
    2.5006    1.0312    0.0000 O   0  0  0  0  0  0  0  2  0  0  0  0
    3.2151   -0.2062    0.0000 O   0  0  0  0  0  0  0  2  0  0  0  0
  1  2  2  0        0
  2  3  2  0        0
  2  4  1  0        0
  4  5  1  0        0
  5  6  1  0        0
  6  7  1  0        0
  7  8  1  0        0
  8  9  1  0        0
  9 10  1  0        0
 10 11  2  0        0
 10 12  2  0        0
M  END
$$$$

CDXL12

 13 12  0  0  0  0  0  0  0  0999 V2000
    2.8579    0.6187    0.0000 O   0  0  0  0  0  0  0  2  0  0  0  0
    2.8579   -0.2062    0.0000 N   0  0  0  0  0  0  0  2  0  0  0  0
    3.5724   -0.6188    0.0000 O   0  0  0  0  0  0  0  2  0  0  0  0
    2.1434   -0.6188    0.0000 O   0  0  0  0  0  0  0  2  0  0  0  0
    1.4289   -0.2062    0.0000 C   0  0  0  0  0  0  0  2  0  0  0  0
    0.7145   -0.6188    0.0000 C   0  0  0  0  0  0  0  2  0  0  0  0
   -0.0000   -0.2062    0.0000 C   0  0  0  0  0  0  0  2  0  0  0  0
   -0.7145   -0.6188    0.0000 C   0  0  0  0  0  0  0  2  0  0  0  0
   -1.4289   -0.2062    0.0000 C   0  0  0  0  0  0  0  2  0  0  0  0
   -2.1434   -0.6188    0.0000 O   0  0  0  0  0  0  0  2  0  0  0  0
   -2.8579   -0.2062    0.0000 N   0  0  0  0  0  0  0  2  0  0  0  0
   -3.5724   -0.6187    0.0000 O   0  0  0  0  0  0  0  2  0  0  0  0
   -2.8579    0.6188    0.0000 O   0  0  0  0  0  0  0  2  0  0  0  0
  1  2  2  0        0
  2  3  2  0        0
  2  4  1  0        0
  4  5  1  0        0
  5  6  1  0        0
  6  7  1  0        0
  7  8  1  0        0
  8  9  1  0        0
  9 10  1  0        0
 10 11  1  0        0
 11 12  2  0        0
 11 13  2  0        0
M  END
$$$$

CDXL12

 14 13  0  0  0  0  0  0  0  0999 V2000
   -3.2151   -1.0312    0.0000 O   0  0  0  0  0  0  0  2  0  0  0  0
   -3.2151   -0.2062    0.0000 N   0  0  0  0  0  0  0  2  0  0  0  0
   -3.9296    0.2062    0.0000 O   0  0  0  0  0  0  0  2  0  0  0  0
   -2.5006    0.2063    0.0000 O   0  0  0  0  0  0  0  2  0  0  0  0
   -1.7862   -0.2062    0.0000 C   0  0  0  0  0  0  0  2  0  0  0  0
   -1.0717    0.2062    0.0000 C   0  0  0  0  0  0  0  2  0  0  0  0
   -0.3572   -0.2062    0.0000 C   0  0  0  0  0  0  0  2  0  0  0  0
    0.3572    0.2062    0.0000 C   0  0  0  0  0  0  0  2  0  0  0  0
    1.0717   -0.2062    0.0000 C   0  0  0  0  0  0  0  2  0  0  0  0
    1.7862    0.2062    0.0000 C   0  0  0  0  0  0  0  2  0  0  0  0
    2.5006   -0.2062    0.0000 O   0  0  0  0  0  0  0  2  0  0  0  0
    3.2151    0.2062    0.0000 N   0  0  0  0  0  0  0  2  0  0  0  0
    3.2151    1.0312    0.0000 O   0  0  0  0  0  0  0  2  0  0  0  0
    3.9296   -0.2062    0.0000 O   0  0  0  0  0  0  0  2  0  0  0  0
  1  2  2  0        0
  2  3  2  0        0
  2  4  1  0        0
  4  5  1  0        0
  5  6  1  0        0
  6  7  1  0        0
  7  8  1  0        0
  8  9  1  0        0
  9 10  1  0        0
 10 11  1  0        0
 11 12  1  0        0
 12 13  2  0        0
 12 14  2  0        0
M  END
$$$$

CDXL12

 16 15  0  0  0  0  0  0  0  0999 V2000
   -3.9296   -1.0312    0.0000 O   0  0  0  0  0  0  0  2  0  0  0  0
   -3.9296   -0.2062    0.0000 N   0  0  0  0  0  0  0  2  0  0  0  0
   -4.6441    0.2062    0.0000 O   0  0  0  0  0  0  0  2  0  0  0  0
   -3.2151    0.2063    0.0000 O   0  0  0  0  0  0  0  2  0  0  0  0
   -2.5006   -0.2062    0.0000 C   0  0  0  0  0  0  0  2  0  0  0  0
   -1.7862    0.2062    0.0000 C   0  0  0  0  0  0  0  2  0  0  0  0
   -1.0717   -0.2062    0.0000 C   0  0  0  0  0  0  0  2  0  0  0  0
   -0.3572    0.2062    0.0000 C   0  0  0  0  0  0  0  2  0  0  0  0
    0.3572   -0.2062    0.0000 C   0  0  0  0  0  0  0  2  0  0  0  0
    1.0717    0.2062    0.0000 C   0  0  0  0  0  0  0  2  0  0  0  0
    1.7862   -0.2062    0.0000 C   0  0  0  0  0  0  0  2  0  0  0  0
    2.5006    0.2062    0.0000 C   0  0  0  0  0  0  0  2  0  0  0  0
    3.2151   -0.2062    0.0000 O   0  0  0  0  0  0  0  2  0  0  0  0
    3.9296    0.2062    0.0000 N   0  0  0  0  0  0  0  2  0  0  0  0
    3.9296    1.0312    0.0000 O   0  0  0  0  0  0  0  2  0  0  0  0
    4.6441   -0.2062    0.0000 O   0  0  0  0  0  0  0  2  0  0  0  0
  1  2  2  0        0
  2  3  2  0        0
  2  4  1  0        0
  4  5  1  0        0
  5  6  1  0        0
  6  7  1  0        0
  7  8  1  0        0
  8  9  1  0        0
  9 10  1  0        0
 10 11  1  0        0
 11 12  1  0        0
 12 13  1  0        0
 13 14  1  0        0
 14 15  2  0        0
 14 16  2  0        0
M  END
$$$$

CDXL12

 18 17  0  0  0  0  0  0  0  0999 V2000
   -4.6441   -1.0312    0.0000 O   0  0  0  0  0  0  0  2  0  0  0  0
   -4.6441   -0.2062    0.0000 N   0  0  0  0  0  0  0  2  0  0  0  0
   -5.3585    0.2062    0.0000 O   0  0  0  0  0  0  0  2  0  0  0  0
   -3.9296    0.2063    0.0000 O   0  0  0  0  0  0  0  2  0  0  0  0
   -3.2151   -0.2062    0.0000 C   0  0  0  0  0  0  0  2  0  0  0  0
   -2.5006    0.2062    0.0000 C   0  0  0  0  0  0  0  2  0  0  0  0
   -1.7862   -0.2062    0.0000 C   0  0  0  0  0  0  0  2  0  0  0  0
   -1.0717    0.2062    0.0000 C   0  0  0  0  0  0  0  2  0  0  0  0
   -0.3572   -0.2062    0.0000 C   0  0  0  0  0  0  0  2  0  0  0  0
    0.3572    0.2062    0.0000 C   0  0  0  0  0  0  0  2  0  0  0  0
    1.0717   -0.2062    0.0000 C   0  0  0  0  0  0  0  2  0  0  0  0
    1.7862    0.2062    0.0000 C   0  0  0  0  0  0  0  2  0  0  0  0
    2.5006   -0.2062    0.0000 C   0  0  0  0  0  0  0  2  0  0  0  0
    3.2151    0.2062    0.0000 C   0  0  0  0  0  0  0  2  0  0  0  0
    3.9296   -0.2062    0.0000 O   0  0  0  0  0  0  0  2  0  0  0  0
    4.6441    0.2062    0.0000 N   0  0  0  0  0  0  0  2  0  0  0  0
    4.6441    1.0312    0.0000 O   0  0  0  0  0  0  0  2  0  0  0  0
    5.3585   -0.2062    0.0000 O   0  0  0  0  0  0  0  2  0  0  0  0
  1  2  2  0        0
  2  3  2  0        0
  2  4  1  0        0
  4  5  1  0        0
  5  6  1  0        0
  6  7  1  0        0
  7  8  1  0        0
  8  9  1  0        0
  9 10  1  0        0
 10 11  1  0        0
 11 12  1  0        0
 12 13  1  0        0
 13 14  1  0        0
 14 15  1  0        0
 15 16  1  0        0
 16 17  2  0        0
 16 18  2  0        0
M  END
$$$$

CDXL12

 12 11  0  0  0  0  0  0  0  0999 V2000
    2.5006    0.2062    0.0000 O   0  0  0  0  0  0  0  2  0  0  0  0
    1.7862   -0.2062    0.0000 C   0  0  0  0  0  0  0  2  0  0  0  0
    1.0717    0.2062    0.0000 C   0  0  0  0  0  0  0  2  0  0  0  0
    1.0717    1.0313    0.0000 O   0  0  0  0  0  0  0  2  0  0  0  0
    0.3572   -0.2062    0.0000 C   0  0  0  0  0  0  0  2  0  0  0  0
    0.3572   -1.0313    0.0000 O   0  0  0  0  0  0  0  2  0  0  0  0
   -0.3572    0.2062    0.0000 C   0  0  0  0  0  0  0  2  0  0  0  0
   -0.3572    1.0313    0.0000 O   0  0  0  0  0  0  0  2  0  0  0  0
   -1.0717   -0.2062    0.0000 C   0  0  0  0  0  0  0  2  0  0  0  0
   -1.0717   -1.0313    0.0000 O   0  0  0  0  0  0  0  2  0  0  0  0
   -1.7862    0.2062    0.0000 C   0  0  0  0  0  0  0  2  0  0  0  0
   -2.5006   -0.2062    0.0000 O   0  0  0  0  0  0  0  2  0  0  0  0
  1  2  2  0        0
  2  3  1  0        0
  3  4  1  0        0
  3  5  1  0        0
  5  6  1  0        0
  5  7  1  0        0
  7  8  1  0        0
  7  9  1  0        0
  9 10  1  0        0
  9 11  1  0        0
 11 12  1  0        0
M  END
$$$$

CDXL12

  9  8  0  0  0  0  0  0  0  0999 V2000
   -1.0717   -1.0312    0.0000 C   0  0  0  0  0  0  0  2  0  0  0  0
   -1.0717   -0.2062    0.0000 C   0  0  0  0  0  0  0  2  0  0  0  0
   -1.7862   -0.6187    0.0000 C   0  0  0  0  0  0  0  2  0  0  0  0
   -1.7862    0.2063    0.0000 C   0  0  0  0  0  0  0  2  0  0  0  0
   -0.3572    0.2062    0.0000 C   0  0  0  0  0  0  0  2  0  0  0  0
    0.3572   -0.2062    0.0000 C   0  0  0  0  0  0  0  2  0  0  0  0
    1.0717    0.2062    0.0000 C   0  0  0  0  0  0  0  2  0  0  0  0
    1.0717    1.0312    0.0000 C   0  0  0  0  0  0  0  2  0  0  0  0
    1.7862   -0.2062    0.0000 C   0  0  0  0  0  0  0  2  0  0  0  0
  1  2  1  0        0
  2  3  1  0        0
  2  4  1  0        0
  2  5  1  0        0
  5  6  1  0        0
  6  7  1  0        0
  7  8  1  0        0
  7  9  1  0        0
M  END
$$$$

CDXL12

 21 20  0  0  0  0  0  0  0  0999 V2000
    1.8280    0.6778    0.0000 Si  0  0  0  0  0  0  0  2  0  0  0  0
    1.1135    1.0903    0.0000 O   0  0  0  0  0  0  0  2  0  0  0  0
   -0.1582    0.3561    0.0000 Si  0  0  0  0  0  0  0  2  0  0  0  0
   -0.8925    1.6278    0.0000 O   0  0  0  0  0  0  0  2  0  0  0  0
   -1.7175    1.6278    0.0000 Si  0  0  0  0  0  0  0  2  0  0  0  0
   -2.5425    1.6278    0.0000 C   0  0  0  0  0  0  0  2  0  0  0  0
   -2.1300    0.9133    0.0000 C   0  0  0  0  0  0  0  2  0  0  0  0
   -2.1300    2.3423    0.0000 C   0  0  0  0  0  0  0  2  0  0  0  0
   -1.4891   -0.2646    0.0000 O   0  0  0  0  0  0  0  2  0  0  0  0
   -1.5610   -1.0864    0.0000 Si  0  0  0  0  0  0  0  2  0  0  0  0
   -0.8852   -1.5596    0.0000 C   0  0  0  0  0  0  0  2  0  0  0  0
   -1.6329   -1.9083    0.0000 C   0  0  0  0  0  0  0  2  0  0  0  0
   -2.3087   -1.4351    0.0000 C   0  0  0  0  0  0  0  2  0  0  0  0
    0.6841   -0.8469    0.0000 O   0  0  0  0  0  0  0  2  0  0  0  0
    0.3354   -1.5946    0.0000 Si  0  0  0  0  0  0  0  2  0  0  0  0
   -0.4864   -1.6665    0.0000 C   0  0  0  0  0  0  0  2  0  0  0  0
   -0.0132   -2.3423    0.0000 C   0  0  0  0  0  0  0  2  0  0  0  0
    0.8086   -2.2704    0.0000 C   0  0  0  0  0  0  0  2  0  0  0  0
    2.5425    1.0903    0.0000 C   0  0  0  0  0  0  0  2  0  0  0  0
    1.8280   -0.1472    0.0000 C   0  0  0  0  0  0  0  2  0  0  0  0
    2.5425    0.2653    0.0000 C   0  0  0  0  0  0  0  2  0  0  0  0
  1  2  1  0        0
  2  3  1  0        0
  3  4  1  0        0
  4  5  1  0        0
  5  6  1  0        0
  5  7  1  0        0
  5  8  1  0        0
  3  9  1  0        0
  9 10  1  0        0
 10 11  1  0        0
 10 12  1  0        0
 10 13  1  0        0
  3 14  1  0        0
 14 15  1  0        0
 15 16  1  0        0
 15 17  1  0        0
 15 18  1  0        0
  1 19  1  0        0
  1 20  1  0        0
  1 21  1  0        0
M  END
$$$$

CDXL12

 40 41  0  0  0  0  0  0  0  0999 V2000
   -2.8579   -2.6812    0.0000 O   0  0  0  0  0  0  0  2  0  0  0  0
   -2.8579   -3.5063    0.0000 C   0  0  0  0  0  0  0  2  0  0  0  0
   -2.1434   -3.9188    0.0000 O   0  0  0  0  0  0  0  2  0  0  0  0
   -1.4289   -3.5063    0.0000 C   0  0  0  0  0  0  0  2  0  0  0  0
   -0.7145   -3.9188    0.0000 C   0  0  0  0  0  0  0  2  0  0  0  0
    0.0000   -3.5063    0.0000 N   0  0  0  0  0  0  0  2  0  0  0  0
    0.0000   -2.6812    0.0000 C   0  0  0  0  0  0  0  2  0  0  0  0
    0.7145   -2.2687    0.0000 C   0  0  0  0  0  0  0  2  0  0  0  0
    1.4289   -2.6812    0.0000 O   0  0  0  0  0  0  0  2  0  0  0  0
    2.1434   -2.2687    0.0000 C   0  0  0  0  0  0  0  2  0  0  0  0
    0.7145   -1.4438    0.0000 C   0  0  0  0  0  0  0  2  0  0  0  0
    0.0000   -1.0313    0.0000 C   0  0  0  0  0  0  0  2  0  0  0  0
    0.0000   -0.2062    0.0000 N   0  0  0  0  0  0  0  2  0  0  0  0
    0.7145    0.2062    0.0000 N   0  0  0  0  0  0  0  2  0  0  0  0
    0.7145    1.0313    0.0000 C   0  0  0  0  0  0  0  2  0  0  0  0
    1.4289    1.4438    0.0000 C   0  0  0  0  0  0  0  2  0  0  0  0
    1.4289    2.2688    0.0000 C   0  0  0  0  0  0  0  2  0  0  0  0
    0.7145    2.6812    0.0000 C   0  0  0  0  0  0  0  2  0  0  0  0
    0.7145    3.5063    0.0000 N   0  0  0  0  0  0  0  2  0  0  0  0
    0.0000    3.9188    0.0000 O   0  0  0  0  0  0  0  2  0  0  0  0
    1.4289    3.9187    0.0000 O   0  0  0  0  0  0  0  2  0  0  0  0
    0.0000    2.2687    0.0000 C   0  0  0  0  0  0  0  2  0  0  0  0
    0.0000    1.4438    0.0000 C   0  0  0  0  0  0  0  2  0  0  0  0
   -0.7145    1.0313    0.0000 N   0  0  0  0  0  0  0  2  0  0  0  0
   -0.7145    0.2062    0.0000 O   0  0  0  0  0  0  0  2  0  0  0  0
   -1.4289    1.4438    0.0000 O   0  0  0  0  0  0  0  2  0  0  0  0
    2.1434    1.0313    0.0000 Br  0  0  0  0  0  0  0  2  0  0  0  0
   -0.7145   -1.4438    0.0000 C   0  0  0  0  0  0  0  2  0  0  0  0
   -1.4289   -1.0313    0.0000 N   0  0  0  0  0  0  0  2  0  0  0  0
   -2.1434   -1.4438    0.0000 C   0  0  0  0  0  0  0  2  0  0  0  0
   -2.1434   -2.2687    0.0000 O   0  0  0  0  0  0  0  2  0  0  0  0
   -2.8579   -1.0313    0.0000 C   0  0  0  0  0  0  0  2  0  0  0  0
   -0.7145   -2.2687    0.0000 C   0  0  0  0  0  0  0  2  0  0  0  0
    0.7145   -3.9188    0.0000 C   0  0  0  0  0  0  0  2  0  0  0  0
    1.4289   -3.5063    0.0000 C   0  0  0  0  0  0  0  2  0  0  0  0
    2.1434   -3.9188    0.0000 O   0  0  0  0  0  0  0  2  0  0  0  0
    2.8579   -3.5063    0.0000 C   0  0  0  0  0  0  0  2  0  0  0  0
    2.8579   -2.6812    0.0000 O   0  0  0  0  0  0  0  2  0  0  0  0
    3.5724   -3.9188    0.0000 C   0  0  0  0  0  0  0  2  0  0  0  0
   -3.5724   -3.9188    0.0000 C   0  0  0  0  0  0  0  2  0  0  0  0
  1  2  2  0        0
  2  3  1  0        0
  3  4  1  0        0
  4  5  1  0        0
  5  6  1  0        0
  6  7  1  0        0
  7  8  4  0        0
  8  9  1  0        0
  9 10  1  0        0
  8 11  4  0        0
 11 12  4  0        0
 12 13  1  0        0
 13 14  2  0        0
 14 15  1  0        0
 15 16  4  0        0
 16 17  4  0        0
 17 18  4  0        0
 18 19  1  0        0
 19 20  2  0        0
 19 21  2  0        0
 18 22  4  0        0
 22 23  4  0        0
 15 23  4  0        0
 23 24  1  0        0
 24 25  2  0        0
 24 26  2  0        0
 16 27  1  0        0
 12 28  4  0        0
 28 29  1  0        0
 29 30  1  0        0
 30 31  2  0        0
 30 32  1  0        0
 28 33  4  0        0
  7 33  4  0        0
  6 34  1  0        0
 34 35  1  0        0
 35 36  1  0        0
 36 37  1  0        0
 37 38  2  0        0
 37 39  1  0        0
  2 40  1  0        0
M  END
$$$$

CDXL12

 17 16  0  0  0  0  0  0  0  0999 V2000
   -2.8579    0.2062    0.0000 C   0  0  0  0  0  0  0  2  0  0  0  0
   -2.1434    0.6187    0.0000 C   0  0  0  0  0  0  0  2  0  0  0  0
   -1.4289    0.2062    0.0000 O   0  0  0  0  0  0  0  2  0  0  0  0
   -0.7145    0.6187    0.0000 P   0  0  0  0  0  0  0  2  0  0  0  0
   -0.7145    1.4438    0.0000 S   0  0  0  0  0  0  0  2  0  0  0  0
   -0.7145   -0.2062    0.0000 O   0  0  0  0  0  0  0  2  0  0  0  0
   -1.4289   -0.6188    0.0000 C   0  0  0  0  0  0  0  2  0  0  0  0
   -1.4289   -1.4438    0.0000 C   0  0  0  0  0  0  0  2  0  0  0  0
    0.0000    0.2062    0.0000 O   0  0  0  0  0  0  0  2  0  0  0  0
    0.7145    0.6188    0.0000 P   0  0  0  0  0  0  0  2  0  0  0  0
    0.7145    1.4438    0.0000 S   0  0  0  0  0  0  0  2  0  0  0  0
    1.4289    0.2062    0.0000 O   0  0  0  0  0  0  0  2  0  0  0  0
    2.1434    0.6187    0.0000 C   0  0  0  0  0  0  0  2  0  0  0  0
    2.8579    0.2062    0.0000 C   0  0  0  0  0  0  0  2  0  0  0  0
    0.7145   -0.2062    0.0000 O   0  0  0  0  0  0  0  2  0  0  0  0
    1.4289   -0.6188    0.0000 C   0  0  0  0  0  0  0  2  0  0  0  0
    1.4289   -1.4438    0.0000 C   0  0  0  0  0  0  0  2  0  0  0  0
  1  2  1  0        0
  2  3  1  0        0
  3  4  1  0        0
  4  5  2  0        0
  4  6  1  0        0
  6  7  1  0        0
  7  8  1  0        0
  4  9  1  0        0
  9 10  1  0        0
 10 11  2  0        0
 10 12  1  0        0
 12 13  1  0        0
 13 14  1  0        0
 10 15  1  0        0
 15 16  1  0        0
 16 17  1  0        0
M  END
$$$$

CDXL12

 19 22  0  0  0  0  0  0  0  0999 V2000
    1.0717   -1.4438    0.0000 C   0  0  0  0  0  0  0  2  0  0  0  0
    0.3572   -1.0313    0.0000 C   0  0  0  0  0  0  0  2  0  0  0  0
   -0.3572   -1.4438    0.0000 C   0  0  0  0  0  0  0  2  0  0  0  0
   -1.0717   -1.0313    0.0000 C   0  0  0  0  0  0  0  2  0  0  0  0
   -1.7862   -1.4437    0.0000 C   0  0  0  0  0  0  0  2  0  0  0  0
   -2.5006   -1.0312    0.0000 C   0  0  0  0  0  0  0  2  0  0  0  0
   -2.5006   -0.2062    0.0000 C   0  0  0  0  0  0  0  2  0  0  0  0
   -1.7862    0.2062    0.0000 C   0  0  0  0  0  0  0  2  0  0  0  0
   -1.0717   -0.2063    0.0000 C   0  0  0  0  0  0  0  2  0  0  0  0
   -0.3572    0.2062    0.0000 C   0  0  0  0  0  0  0  2  0  0  0  0
   -0.3572    1.0312    0.0000 C   0  0  0  0  0  0  0  2  0  0  0  0
    0.3572    1.4438    0.0000 C   0  0  0  0  0  0  0  2  0  0  0  0
    1.0717    1.0313    0.0000 C   0  0  0  0  0  0  0  2  0  0  0  0
    1.7862    1.4438    0.0000 C   0  0  0  0  0  0  0  2  0  0  0  0
    2.5006    1.0313    0.0000 C   0  0  0  0  0  0  0  2  0  0  0  0
    2.5006    0.2062    0.0000 C   0  0  0  0  0  0  0  2  0  0  0  0
    1.7862   -0.2062    0.0000 C   0  0  0  0  0  0  0  2  0  0  0  0
    1.0717    0.2062    0.0000 C   0  0  0  0  0  0  0  2  0  0  0  0
    0.3572   -0.2063    0.0000 C   0  0  0  0  0  0  0  2  0  0  0  0
  1  2  1  0        0
  2  3  4  0        0
  3  4  4  0        0
  4  5  4  0        0
  5  6  4  0        0
  6  7  4  0        0
  7  8  4  0        0
  8  9  4  0        0
  4  9  4  0        0
  9 10  4  0        0
 10 11  4  0        0
 11 12  4  0        0
 12 13  4  0        0
 13 14  4  0        0
 14 15  4  0        0
 15 16  4  0        0
 16 17  4  0        0
 17 18  4  0        0
 13 18  4  0        0
 18 19  4  0        0
  2 19  4  0        0
 10 19  4  0        0
M  END
$$$$

CDXL12

 20 23  0  0  0  0  0  0  0  0999 V2000
   -2.5006    0.2062    0.0000 C   0  0  0  0  0  0  0  2  0  0  0  0
   -2.5006   -0.6188    0.0000 C   0  0  0  0  0  0  0  2  0  0  0  0
   -1.7862   -1.0313    0.0000 C   0  0  0  0  0  0  0  2  0  0  0  0
   -1.0717   -0.6187    0.0000 C   0  0  0  0  0  0  0  2  0  0  0  0
   -0.3572   -1.0312    0.0000 C   0  0  0  0  0  0  0  2  0  0  0  0
   -0.3572   -1.8562    0.0000 C   0  0  0  0  0  0  0  2  0  0  0  0
    0.3572   -0.6187    0.0000 C   0  0  0  0  0  0  0  2  0  0  0  0
    1.0717   -1.0312    0.0000 C   0  0  0  0  0  0  0  2  0  0  0  0
    0.3572    0.2062    0.0000 C   0  0  0  0  0  0  0  2  0  0  0  0
    1.0717    0.6187    0.0000 C   0  0  0  0  0  0  0  2  0  0  0  0
    1.7862    0.2062    0.0000 C   0  0  0  0  0  0  0  2  0  0  0  0
    2.5006    0.6187    0.0000 C   0  0  0  0  0  0  0  2  0  0  0  0
    2.5006    1.4437    0.0000 C   0  0  0  0  0  0  0  2  0  0  0  0
    1.7862    1.8562    0.0000 C   0  0  0  0  0  0  0  2  0  0  0  0
    1.0717    1.4437    0.0000 C   0  0  0  0  0  0  0  2  0  0  0  0
    0.3572    1.8562    0.0000 C   0  0  0  0  0  0  0  2  0  0  0  0
   -0.3572    1.4437    0.0000 C   0  0  0  0  0  0  0  2  0  0  0  0
   -0.3572    0.6187    0.0000 C   0  0  0  0  0  0  0  2  0  0  0  0
   -1.0717    0.2062    0.0000 C   0  0  0  0  0  0  0  2  0  0  0  0
   -1.7862    0.6187    0.0000 C   0  0  0  0  0  0  0  2  0  0  0  0
  1  2  4  0        0
  2  3  4  0        0
  3  4  4  0        0
  4  5  4  0        0
  5  6  1  0        0
  5  7  4  0        0
  7  8  1  0        0
  7  9  4  0        0
  9 10  4  0        0
 10 11  4  0        0
 11 12  4  0        0
 12 13  4  0        0
 13 14  4  0        0
 14 15  4  0        0
 10 15  4  0        0
 15 16  4  0        0
 16 17  4  0        0
 17 18  4  0        0
  9 18  4  0        0
 18 19  4  0        0
  4 19  4  0        0
 19 20  4  0        0
  1 20  4  0        0
M  END
$$$$

CDXL12

 20 23  0  0  0  0  0  0  0  0999 V2000
    2.5006    1.6500    0.0000 C   0  0  0  0  0  0  0  2  0  0  0  0
    2.5006    0.8250    0.0000 C   0  0  0  0  0  0  0  2  0  0  0  0
    1.7862    0.4125    0.0000 C   0  0  0  0  0  0  0  2  0  0  0  0
    1.7862   -0.4125    0.0000 C   0  0  0  0  0  0  0  2  0  0  0  0
    1.0717   -0.8250    0.0000 C   0  0  0  0  0  0  0  2  0  0  0  0
    0.3572   -0.4125    0.0000 C   0  0  0  0  0  0  0  2  0  0  0  0
   -0.3572   -0.8250    0.0000 C   0  0  0  0  0  0  0  2  0  0  0  0
   -1.0717   -0.4125    0.0000 C   0  0  0  0  0  0  0  2  0  0  0  0
   -1.7862   -0.8250    0.0000 C   0  0  0  0  0  0  0  2  0  0  0  0
   -2.5006   -0.4125    0.0000 C   0  0  0  0  0  0  0  2  0  0  0  0
   -2.5006    0.4125    0.0000 C   0  0  0  0  0  0  0  2  0  0  0  0
   -1.7862    0.8250    0.0000 C   0  0  0  0  0  0  0  2  0  0  0  0
   -1.0717    0.4125    0.0000 C   0  0  0  0  0  0  0  2  0  0  0  0
   -0.3572    0.8250    0.0000 C   0  0  0  0  0  0  0  2  0  0  0  0
    0.3572    0.4125    0.0000 C   0  0  0  0  0  0  0  2  0  0  0  0
    1.0717    0.8250    0.0000 C   0  0  0  0  0  0  0  2  0  0  0  0
    1.0717    1.6500    0.0000 C   0  0  0  0  0  0  0  2  0  0  0  0
    1.7862    2.0625    0.0000 C   0  0  0  0  0  0  0  2  0  0  0  0
   -0.3572   -1.6500    0.0000 C   0  0  0  0  0  0  0  2  0  0  0  0
   -1.0717   -2.0625    0.0000 C   0  0  0  0  0  0  0  2  0  0  0  0
  1  2  4  0        0
  2  3  4  0        0
  3  4  4  0        0
  4  5  4  0        0
  5  6  4  0        0
  6  7  4  0        0
  7  8  4  0        0
  8  9  4  0        0
  9 10  4  0        0
 10 11  4  0        0
 11 12  4  0        0
 12 13  4  0        0
  8 13  4  0        0
 13 14  4  0        0
 14 15  4  0        0
  6 15  4  0        0
 15 16  4  0        0
  3 16  4  0        0
 16 17  4  0        0
 17 18  4  0        0
  1 18  4  0        0
  7 19  1  0        0
 19 20  1  0        0
M  END
$$$$

CDXL12

  9  9  0  0  0  0  0  0  0  0999 V2000
    0.0000   -1.2375    0.0000 O   0  0  0  0  0  0  0  2  0  0  0  0
    0.0000   -0.4125    0.0000 N   0  0  0  0  0  0  0  2  0  0  0  0
   -0.7145   -0.0000    0.0000 C   0  0  0  0  0  0  0  2  0  0  0  0
   -0.7145    0.8250    0.0000 C   0  0  0  0  0  0  0  2  0  0  0  0
   -1.4289    1.2375    0.0000 C   0  0  0  0  0  0  0  2  0  0  0  0
    0.0000    1.2375    0.0000 C   0  0  0  0  0  0  0  2  0  0  0  0
    0.7145    0.8250    0.0000 C   0  0  0  0  0  0  0  2  0  0  0  0
    1.4289    1.2375    0.0000 C   0  0  0  0  0  0  0  2  0  0  0  0
    0.7145   -0.0000    0.0000 C   0  0  0  0  0  0  0  2  0  0  0  0
  1  2  2  0        0
  2  3  1  0        0
  3  4  1  0        0
  4  5  1  0        0
  4  6  1  0        0
  6  7  1  0        0
  7  8  1  0        0
  7  9  1  0        0
  2  9  1  0        0
M  END
$$$$

CDXL12

 16 18  0  0  0  0  0  0  0  0999 V2000
   -1.7065   -0.8250    0.0000 Cl  0  0  0  0  0  0  0  2  0  0  0  0
   -0.9920   -0.4125    0.0000 C   0  0  0  0  0  0  0  2  0  0  0  0
   -0.9920    0.4125    0.0000 C   0  0  0  0  0  0  0  2  0  0  0  0
   -1.7065    0.8250    0.0000 Cl  0  0  0  0  0  0  0  2  0  0  0  0
   -0.2775    0.8250    0.0000 C   0  0  0  0  0  0  0  2  0  0  0  0
   -0.2775    1.6500    0.0000 Cl  0  0  0  0  0  0  0  2  0  0  0  0
   -0.6141   -0.0000    0.0000 C   0  0  0  0  0  0  0  2  0  0  0  0
   -1.3285    0.4125    0.0000 Cl  0  0  0  0  0  0  0  2  0  0  0  0
   -1.3285   -0.4125    0.0000 Cl  0  0  0  0  0  0  0  2  0  0  0  0
   -0.2775   -0.8250    0.0000 C   0  0  0  0  0  0  0  2  0  0  0  0
    0.4369   -0.4125    0.0000 C   0  0  0  0  0  0  0  2  0  0  0  0
    0.4369    0.4125    0.0000 C   0  0  0  0  0  0  0  2  0  0  0  0
    1.2216    0.6674    0.0000 C   0  0  0  0  0  0  0  2  0  0  0  0
    1.7065   -0.0000    0.0000 C   0  0  0  0  0  0  0  2  0  0  0  0
    1.2216   -0.6674    0.0000 C   0  0  0  0  0  0  0  2  0  0  0  0
   -0.2775   -1.6500    0.0000 Cl  0  0  0  0  0  0  0  2  0  0  0  0
  1  2  1  0        0
  2  3  2  0        0
  3  4  1  0        0
  3  5  1  0        0
  5  6  1  0        0
  5  7  1  0        0
  7  8  1  0        0
  7  9  1  0        0
  7 10  1  0        0
  2 10  1  0        0
 10 11  1  0        0
 11 12  1  0        0
  5 12  1  0        0
 12 13  1  0        0
 13 14  1  0        0
 14 15  2  0        0
 11 15  1  0        0
 10 16  1  0        0
M  END
$$$$

CDXL12

 16 16  0  0  0  0  0  0  0  0999 V2000
    1.7862    0.8250    0.0000 C   0  0  0  0  0  0  0  2  0  0  0  0
    1.7862    0.0000    0.0000 C   0  0  0  0  0  0  0  2  0  0  0  0
    2.5006   -0.4125    0.0000 C   0  0  0  0  0  0  0  2  0  0  0  0
    3.2151   -0.8250    0.0000 C   0  0  0  0  0  0  0  2  0  0  0  0
    1.0717   -0.4125    0.0000 N   0  0  0  0  0  0  0  2  0  0  0  0
    1.0717   -1.2375    0.0000 C   0  0  0  0  0  0  0  2  0  0  0  0
    0.3572   -0.0000    0.0000 C   0  0  0  0  0  0  0  2  0  0  0  0
    0.3572    0.8250    0.0000 O   0  0  0  0  0  0  0  2  0  0  0  0
   -0.3572   -0.4125    0.0000 N   0  0  0  0  0  0  0  2  0  0  0  0
   -1.0717   -0.0000    0.0000 C   0  0  0  0  0  0  0  2  0  0  0  0
   -1.7862   -0.4125    0.0000 C   0  0  0  0  0  0  0  2  0  0  0  0
   -2.5006    0.0000    0.0000 C   0  0  0  0  0  0  0  2  0  0  0  0
   -2.5006    0.8250    0.0000 C   0  0  0  0  0  0  0  2  0  0  0  0
   -3.2151    1.2375    0.0000 Cl  0  0  0  0  0  0  0  2  0  0  0  0
   -1.7862    1.2375    0.0000 C   0  0  0  0  0  0  0  2  0  0  0  0
   -1.0717    0.8250    0.0000 C   0  0  0  0  0  0  0  2  0  0  0  0
  1  2  1  0        0
  2  3  1  0        0
  3  4  3  0        0
  2  5  1  0        0
  5  6  1  0        0
  5  7  1  0        0
  7  8  2  0        0
  7  9  1  0        0
  9 10  1  0        0
 10 11  4  0        0
 11 12  4  0        0
 12 13  4  0        0
 13 14  1  0        0
 13 15  4  0        0
 15 16  4  0        0
 10 16  4  0        0
M  END
$$$$

CDXL12

 13 14  0  0  0  0  0  0  0  0999 V2000
   -2.0477    0.2615    0.0000 C   0  0  0  0  0  0  0  2  0  0  0  0
   -2.0477   -0.5635    0.0000 C   0  0  0  0  0  0  0  2  0  0  0  0
   -1.3332   -0.9760    0.0000 C   0  0  0  0  0  0  0  2  0  0  0  0
   -0.6188   -0.5635    0.0000 C   0  0  0  0  0  0  0  2  0  0  0  0
    0.0957   -0.9760    0.0000 C   0  0  0  0  0  0  0  2  0  0  0  0
    0.8102   -0.5635    0.0000 O   0  0  0  0  0  0  0  2  0  0  0  0
    0.8102    0.2615    0.0000 P   0  0  0  0  0  0  0  2  0  0  0  0
    1.2227    0.9760    0.0000 S   0  0  0  0  0  0  0  2  0  0  0  0
    1.6352    0.2615    0.0000 O   0  0  0  0  0  0  0  2  0  0  0  0
    2.0477    0.9760    0.0000 C   0  0  0  0  0  0  0  2  0  0  0  0
    0.0957    0.6740    0.0000 O   0  0  0  0  0  0  0  2  0  0  0  0
   -0.6188    0.2615    0.0000 C   0  0  0  0  0  0  0  2  0  0  0  0
   -1.3332    0.6740    0.0000 C   0  0  0  0  0  0  0  2  0  0  0  0
  1  2  4  0        0
  2  3  4  0        0
  3  4  4  0        0
  4  5  1  0        0
  5  6  1  0        0
  6  7  1  0        0
  7  8  2  0        0
  7  9  1  0        0
  9 10  1  0        0
  7 11  1  0        0
 11 12  1  0        0
  4 12  4  0        0
 12 13  4  0        0
  1 13  4  0        0
M  END
$$$$

CDXL12

 15 16  0  0  0  0  0  0  0  0999 V2000
    1.9294   -0.2486    0.0000 O   0  0  0  0  0  0  0  2  0  0  0  0
    1.3461   -0.8320    0.0000 C   0  0  0  0  0  0  0  2  0  0  0  0
    1.6010   -1.6166    0.0000 O   0  0  0  0  0  0  0  2  0  0  0  0
    0.5391   -0.6605    0.0000 C   0  0  0  0  0  0  0  2  0  0  0  0
    0.2841    0.1242    0.0000 N   0  0  0  0  0  0  0  2  0  0  0  0
    0.7691    0.7916    0.0000 C   0  0  0  0  0  0  0  2  0  0  0  0
    1.5941    0.7916    0.0000 O   0  0  0  0  0  0  0  2  0  0  0  0
    0.2841    1.4590    0.0000 S   0  0  0  0  0  0  0  2  0  0  0  0
   -0.5005    1.2041    0.0000 C   0  0  0  0  0  0  0  2  0  0  0  0
   -1.2149    1.6166    0.0000 C   0  0  0  0  0  0  0  2  0  0  0  0
   -1.9294    1.2041    0.0000 C   0  0  0  0  0  0  0  2  0  0  0  0
   -1.9294    0.3791    0.0000 C   0  0  0  0  0  0  0  2  0  0  0  0
   -1.2149   -0.0334    0.0000 C   0  0  0  0  0  0  0  2  0  0  0  0
   -1.2149   -0.8584    0.0000 Cl  0  0  0  0  0  0  0  2  0  0  0  0
   -0.5005    0.3791    0.0000 C   0  0  0  0  0  0  0  2  0  0  0  0
  1  2  1  0        0
  2  3  2  0        0
  2  4  1  0        0
  4  5  1  0        0
  5  6  1  0        0
  6  7  2  0        0
  6  8  1  0        0
  8  9  1  0        0
  9 10  4  0        0
 10 11  4  0        0
 11 12  4  0        0
 12 13  4  0        0
 13 14  1  0        0
 13 15  4  0        0
  5 15  1  0        0
  9 15  4  0        0
M  END
$$$$

CDXL12

 14 16  0  0  0  0  0  0  0  0999 V2000
   -0.1830   -0.6674    0.0000 N   0  0  0  0  0  0  0  2  0  0  0  0
   -0.9676   -0.4125    0.0000 C   0  0  0  0  0  0  0  2  0  0  0  0
   -1.6820   -0.8250    0.0000 C   0  0  0  0  0  0  0  2  0  0  0  0
   -2.3965   -0.4125    0.0000 C   0  0  0  0  0  0  0  2  0  0  0  0
   -2.3965    0.4125    0.0000 C   0  0  0  0  0  0  0  2  0  0  0  0
   -1.6820    0.8250    0.0000 C   0  0  0  0  0  0  0  2  0  0  0  0
   -0.9676    0.4125    0.0000 C   0  0  0  0  0  0  0  2  0  0  0  0
   -0.1830    0.6674    0.0000 N   0  0  0  0  0  0  0  2  0  0  0  0
    0.3020   -0.0000    0.0000 C   0  0  0  0  0  0  0  2  0  0  0  0
    1.1270   -0.0000    0.0000 C   0  0  0  0  0  0  0  2  0  0  0  0
    1.6119    0.6674    0.0000 C   0  0  0  0  0  0  0  2  0  0  0  0
    2.3965    0.4125    0.0000 C   0  0  0  0  0  0  0  2  0  0  0  0
    2.3965   -0.4125    0.0000 C   0  0  0  0  0  0  0  2  0  0  0  0
    1.6119   -0.6674    0.0000 O   0  0  0  0  0  0  0  2  0  0  0  0
  1  2  4  0        0
  2  3  4  0        0
  3  4  4  0        0
  4  5  4  0        0
  5  6  4  0        0
  6  7  4  0        0
  2  7  4  0        0
  7  8  4  0        0
  8  9  4  0        0
  1  9  4  0        0
  9 10  1  0        0
 10 11  4  0        0
 11 12  4  0        0
 12 13  4  0        0
 13 14  4  0        0
 10 14  4  0        0
M  END
$$$$

CDXL12

 14 13  0  0  0  0  0  0  0  0999 V2000
   -4.6441   -0.2062    0.0000 Cl  0  0  0  0  0  0  0  2  0  0  0  0
   -3.9296    0.2062    0.0000 C   0  0  0  0  0  0  0  2  0  0  0  0
   -3.2151   -0.2062    0.0000 C   0  0  0  0  0  0  0  2  0  0  0  0
   -2.5006    0.2062    0.0000 C   0  0  0  0  0  0  0  2  0  0  0  0
   -1.7862   -0.2062    0.0000 C   0  0  0  0  0  0  0  2  0  0  0  0
   -1.0717    0.2062    0.0000 C   0  0  0  0  0  0  0  2  0  0  0  0
   -0.3572   -0.2062    0.0000 C   0  0  0  0  0  0  0  2  0  0  0  0
    0.3572    0.2062    0.0000 C   0  0  0  0  0  0  0  2  0  0  0  0
    1.0717   -0.2062    0.0000 C   0  0  0  0  0  0  0  2  0  0  0  0
    1.7862    0.2062    0.0000 C   0  0  0  0  0  0  0  2  0  0  0  0
    2.5006   -0.2062    0.0000 C   0  0  0  0  0  0  0  2  0  0  0  0
    3.2151    0.2062    0.0000 C   0  0  0  0  0  0  0  2  0  0  0  0
    3.9296   -0.2062    0.0000 C   0  0  0  0  0  0  0  2  0  0  0  0
    4.6441    0.2062    0.0000 Cl  0  0  0  0  0  0  0  2  0  0  0  0
  1  2  1  0        0
  2  3  1  0        0
  3  4  1  0        0
  4  5  1  0        0
  5  6  1  0        0
  6  7  1  0        0
  7  8  1  0        0
  8  9  1  0        0
  9 10  1  0        0
 10 11  1  0        0
 11 12  1  0        0
 12 13  1  0        0
 13 14  1  0        0
M  END
$$$$

CDXL12

  8  7  0  0  0  0  0  0  0  0999 V2000
    0.7145    1.0313    0.0000 C   0  0  0  0  0  0  0  2  0  0  0  0
    0.7145    0.2062    0.0000 C   0  0  0  0  0  0  0  2  0  0  0  0
    1.4289    0.6188    0.0000 C   0  0  0  0  0  0  0  2  0  0  0  0
    1.4289   -0.2062    0.0000 C   0  0  0  0  0  0  0  2  0  0  0  0
    0.0000   -0.2062    0.0000 C   0  0  0  0  0  0  0  2  0  0  0  0
    0.0000   -1.0313    0.0000 O   0  0  0  0  0  0  0  2  0  0  0  0
   -0.7145    0.2062    0.0000 C   0  0  0  0  0  0  0  2  0  0  0  0
   -1.4289   -0.2062    0.0000 C   0  0  0  0  0  0  0  2  0  0  0  0
  1  2  1  0        0
  2  3  1  0        0
  2  4  1  0        0
  2  5  1  0        0
  5  6  1  0        0
  5  7  1  0        0
  7  8  1  0        0
M  END
$$$$

CDXL12

 17 17  0  0  0  0  0  0  0  0999 V2000
    1.4289    0.4125    0.0000 O   0  0  0  0  0  0  0  2  0  0  0  0
    0.7145    0.0000    0.0000 C   0  0  0  0  0  0  0  2  0  0  0  0
    0.7145   -0.8250    0.0000 C   0  0  0  0  0  0  0  2  0  0  0  0
    0.0000   -1.2375    0.0000 C   0  0  0  0  0  0  0  2  0  0  0  0
   -0.7145   -0.8250    0.0000 C   0  0  0  0  0  0  0  2  0  0  0  0
   -0.7145    0.0000    0.0000 C   0  0  0  0  0  0  0  2  0  0  0  0
    0.0000    0.4125    0.0000 C   0  0  0  0  0  0  0  2  0  0  0  0
    0.0000    1.2375    0.0000 C   0  0  0  0  0  0  0  2  0  0  0  0
   -0.7145    1.6500    0.0000 C   0  0  0  0  0  0  0  2  0  0  0  0
    0.0000    2.0625    0.0000 C   0  0  0  0  0  0  0  2  0  0  0  0
    0.7145    1.6500    0.0000 C   0  0  0  0  0  0  0  2  0  0  0  0
   -1.4289   -1.2375    0.0000 C   0  0  0  0  0  0  0  2  0  0  0  0
   -2.1434   -0.8250    0.0000 C   0  0  0  0  0  0  0  2  0  0  0  0
    1.4289   -1.2375    0.0000 C   0  0  0  0  0  0  0  2  0  0  0  0
    2.1434   -1.6500    0.0000 C   0  0  0  0  0  0  0  2  0  0  0  0
    1.4289   -2.0625    0.0000 C   0  0  0  0  0  0  0  2  0  0  0  0
    2.1434   -0.8250    0.0000 C   0  0  0  0  0  0  0  2  0  0  0  0
  1  2  1  0        0
  2  3  4  0        0
  3  4  4  0        0
  4  5  4  0        0
  5  6  4  0        0
  6  7  4  0        0
  2  7  4  0        0
  7  8  1  0        0
  8  9  1  0        0
  8 10  1  0        0
  8 11  1  0        0
  5 12  1  0        0
 12 13  1  0        0
  3 14  1  0        0
 14 15  1  0        0
 14 16  1  0        0
 14 17  1  0        0
M  END
$$$$

CDXL12

 17 17  0  0  0  0  0  0  0  0999 V2000
    2.8579   -1.8562    0.0000 C   0  0  0  0  0  0  0  2  0  0  0  0
    2.1434   -1.4437    0.0000 C   0  0  0  0  0  0  0  2  0  0  0  0
    1.4289   -1.8562    0.0000 S   0  0  0  0  0  0  0  2  0  0  0  0
    0.7145   -1.4438    0.0000 C   0  0  0  0  0  0  0  2  0  0  0  0
    0.7145   -0.6187    0.0000 N   0  0  0  0  0  0  0  2  0  0  0  0
    0.0000   -0.2063    0.0000 C   0  0  0  0  0  0  0  2  0  0  0  0
    0.0000    0.6187    0.0000 N   0  0  0  0  0  0  0  2  0  0  0  0
   -0.7145    1.0312    0.0000 C   0  0  0  0  0  0  0  2  0  0  0  0
   -1.4289    0.6187    0.0000 C   0  0  0  0  0  0  0  2  0  0  0  0
   -0.7145    1.8562    0.0000 C   0  0  0  0  0  0  0  2  0  0  0  0
   -0.7145   -0.6188    0.0000 N   0  0  0  0  0  0  0  2  0  0  0  0
   -0.7145   -1.4438    0.0000 C   0  0  0  0  0  0  0  2  0  0  0  0
   -1.4289   -1.8562    0.0000 N   0  0  0  0  0  0  0  2  0  0  0  0
   -2.1434   -1.4438    0.0000 C   0  0  0  0  0  0  0  2  0  0  0  0
   -2.1434   -0.6188    0.0000 C   0  0  0  0  0  0  0  2  0  0  0  0
   -2.8579   -1.8562    0.0000 C   0  0  0  0  0  0  0  2  0  0  0  0
    0.0000   -1.8562    0.0000 N   0  0  0  0  0  0  0  2  0  0  0  0
  1  2  1  0        0
  2  3  1  0        0
  3  4  1  0        0
  4  5  4  0        0
  5  6  4  0        0
  6  7  1  0        0
  7  8  1  0        0
  8  9  1  0        0
  8 10  1  0        0
  6 11  4  0        0
 11 12  4  0        0
 12 13  1  0        0
 13 14  1  0        0
 14 15  1  0        0
 14 16  1  0        0
 12 17  4  0        0
  4 17  4  0        0
M  END
$$$$

CDXL12

  5  4  0  0  0  0  0  0  0  0999 V2000
   -1.4289   -0.2062    0.0000 O   0  0  0  0  0  0  0  2  0  0  0  0
   -0.7145    0.2062    0.0000 C   0  0  0  0  0  0  0  2  0  0  0  0
    0.0000   -0.2062    0.0000 C   0  0  0  0  0  0  0  2  0  0  0  0
    0.7145    0.2062    0.0000 C   0  0  0  0  0  0  0  2  0  0  0  0
    1.4289   -0.2062    0.0000 C   0  0  0  0  0  0  0  2  0  0  0  0
  1  2  2  0        0
  2  3  1  0        0
  3  4  2  0        0
  4  5  1  0        0
M  END
$$$$

CDXL12

 24 24  0  0  0  0  0  0  0  0999 V2000
   -2.1434    0.7697    0.0000 C   0  0  0  0  0  0  0  2  0  0  0  0
   -2.8579    1.1822    0.0000 C   0  0  0  0  0  0  0  2  0  0  0  0
   -3.5724    0.7697    0.0000 C   0  0  0  0  0  0  0  2  0  0  0  0
   -4.2868    1.1822    0.0000 C   0  0  0  0  0  0  0  2  0  0  0  0
   -3.5724   -0.0553    0.0000 C   0  0  0  0  0  0  0  2  0  0  0  0
   -2.8579   -0.4678    0.0000 C   0  0  0  0  0  0  0  2  0  0  0  0
   -2.1434   -0.0553    0.0000 C   0  0  0  0  0  0  0  2  0  0  0  0
   -1.4289   -0.4678    0.0000 S   0  0  0  0  0  0  0  2  0  0  0  0
   -1.8414   -1.1822    0.0000 O   0  0  0  0  0  0  0  2  0  0  0  0
   -1.0164    0.2467    0.0000 O   0  0  0  0  0  0  0  2  0  0  0  0
   -0.7145   -0.8803    0.0000 N   0  0  0  0  0  0  0  2  0  0  0  0
    0.0000   -0.4678    0.0000 C   0  0  0  0  0  0  0  2  0  0  0  0
    0.0000    0.3572    0.0000 C   0  0  0  0  0  0  0  2  0  0  0  0
    0.7145    0.7697    0.0000 O   0  0  0  0  0  0  0  2  0  0  0  0
   -0.7145    0.7697    0.0000 C   0  0  0  0  0  0  0  2  0  0  0  0
   -0.7145    1.5947    0.0000 Cl  0  0  0  0  0  0  0  2  0  0  0  0
    0.7145   -0.8803    0.0000 C   0  0  0  0  0  0  0  2  0  0  0  0
    1.4289   -0.4678    0.0000 C   0  0  0  0  0  0  0  2  0  0  0  0
    2.1434   -0.8803    0.0000 C   0  0  0  0  0  0  0  2  0  0  0  0
    2.8579   -0.4678    0.0000 C   0  0  0  0  0  0  0  2  0  0  0  0
    3.5724   -0.8803    0.0000 N   0  0  0  0  0  0  0  2  0  0  0  0
    3.9849   -1.5947    0.0000 H   0  0  0  0  0  0  0  2  0  0  0  0
    3.1599   -1.5947    0.0000 H   0  0  0  0  0  0  0  2  0  0  0  0
    4.2868   -0.4678    0.0000 Cl  0  0  0  0  0  0  0  2  0  0  0  0
  1  2  4  0        0
  2  3  4  0        0
  3  4  1  0        0
  3  5  4  0        0
  5  6  4  0        0
  6  7  4  0        0
  1  7  4  0        0
  7  8  1  0        0
  8  9  2  0        0
  8 10  2  0        0
  8 11  1  0        0
 11 12  1  0        0
 12 13  1  0        0
 13 14  2  0        0
 13 15  1  0        0
 15 16  1  0        0
 12 17  1  0        0
 17 18  1  0        0
 18 19  1  0        0
 19 20  1  0        0
 20 21  1  0        0
 21 22  1  0        0
 21 23  1  0        0
 21 24  1  0        0
M  END
$$$$

CDXL12

  8  7  0  0  0  0  0  0  0  0999 V2000
   -1.4289   -0.6188    0.0000 N   0  0  0  0  0  0  0  2  0  0  0  0
   -0.7145   -0.2063    0.0000 C   0  0  0  0  0  0  0  2  0  0  0  0
   -0.7145    0.6188    0.0000 O   0  0  0  0  0  0  0  2  0  0  0  0
    0.0000   -0.6188    0.0000 O   0  0  0  0  0  0  0  2  0  0  0  0
    0.7145   -0.2062    0.0000 C   0  0  0  0  0  0  0  2  0  0  0  0
    0.7145    0.6188    0.0000 C   0  0  0  0  0  0  0  2  0  0  0  0
    1.4289    0.2062    0.0000 C   0  0  0  0  0  0  0  2  0  0  0  0
    1.4289   -0.6188    0.0000 C   0  0  0  0  0  0  0  2  0  0  0  0
  1  2  1  0        0
  2  3  2  0        0
  2  4  1  0        0
  4  5  1  0        0
  5  6  1  0        0
  5  7  1  0        0
  5  8  1  0        0
M  END
$$$$

CDXL12

  8  7  0  0  0  0  0  0  0  0999 V2000
    1.7862   -0.2062    0.0000 C   0  0  0  0  0  0  0  2  0  0  0  0
    1.0717    0.2062    0.0000 C   0  0  0  0  0  0  0  2  0  0  0  0
    0.3572   -0.2062    0.0000 C   0  0  0  0  0  0  0  2  0  0  0  0
   -0.3572    0.2062    0.0000 C   0  0  0  0  0  0  0  2  0  0  0  0
   -1.0717   -0.2062    0.0000 C   0  0  0  0  0  0  0  2  0  0  0  0
   -1.7862    0.2062    0.0000 C   0  0  0  0  0  0  0  2  0  0  0  0
   -2.5006   -0.2062    0.0000 C   0  0  0  0  0  0  0  2  0  0  0  0
    2.5006    0.2062    0.0000 I   0  0  0  0  0  0  0  2  0  0  0  0
  1  2  1  0        0
  2  3  1  0        0
  3  4  1  0        0
  4  5  1  0        0
  5  6  1  0        0
  6  7  1  0        0
  1  8  1  0        0
M  END
$$$$

CDXL12

 19 20  0  0  0  0  0  0  0  0999 V2000
    1.0717   -0.2062    0.0000 O   0  0  0  0  0  0  0  2  0  0  0  0
    1.0717   -1.0312    0.0000 C   0  0  0  0  0  0  0  2  0  0  0  0
    0.3572   -1.4437    0.0000 C   0  0  0  0  0  0  0  2  0  0  0  0
   -0.3572   -1.0312    0.0000 C   0  0  0  0  0  0  0  2  0  0  0  0
   -0.3572   -0.2062    0.0000 C   0  0  0  0  0  0  0  2  0  0  0  0
   -1.0717    0.2063    0.0000 C   0  0  0  0  0  0  0  2  0  0  0  0
   -1.7862   -0.2062    0.0000 C   0  0  0  0  0  0  0  2  0  0  0  0
   -1.7862   -1.0312    0.0000 C   0  0  0  0  0  0  0  2  0  0  0  0
   -1.0717   -1.4437    0.0000 C   0  0  0  0  0  0  0  2  0  0  0  0
   -2.5006    0.2063    0.0000 C   0  0  0  0  0  0  0  2  0  0  0  0
   -2.5006    1.0313    0.0000 C   0  0  0  0  0  0  0  2  0  0  0  0
   -3.2151    1.4437    0.0000 C   0  0  0  0  0  0  0  2  0  0  0  0
   -3.9296    1.0313    0.0000 C   0  0  0  0  0  0  0  2  0  0  0  0
   -3.9296    0.2063    0.0000 C   0  0  0  0  0  0  0  2  0  0  0  0
   -3.2151   -0.2062    0.0000 C   0  0  0  0  0  0  0  2  0  0  0  0
    1.7862   -1.4437    0.0000 O   0  0  0  0  0  0  0  2  0  0  0  0
    2.5006   -1.0312    0.0000 C   0  0  0  0  0  0  0  2  0  0  0  0
    3.2151   -1.4437    0.0000 C   0  0  0  0  0  0  0  2  0  0  0  0
    3.9296   -1.0312    0.0000 F   0  0  0  0  0  0  0  2  0  0  0  0
  1  2  2  0        0
  2  3  1  0        0
  3  4  1  0        0
  4  5  4  0        0
  5  6  4  0        0
  6  7  4  0        0
  7  8  4  0        0
  8  9  4  0        0
  4  9  4  0        0
  7 10  1  0        0
 10 11  4  0        0
 11 12  4  0        0
 12 13  4  0        0
 13 14  4  0        0
 14 15  4  0        0
 10 15  4  0        0
  2 16  1  0        0
 16 17  1  0        0
 17 18  1  0        0
 18 19  1  0        0
M  END
$$$$

CDXL12

 23 24  0  0  0  0  0  0  0  0999 V2000
    0.7145   -2.6813    0.0000 C   0  0  0  0  0  0  0  2  0  0  0  0
    0.0000   -3.0937    0.0000 C   0  0  0  0  0  0  0  2  0  0  0  0
   -0.7145   -2.6813    0.0000 C   0  0  0  0  0  0  0  2  0  0  0  0
   -1.4289   -3.0937    0.0000 O   0  0  0  0  0  0  0  2  0  0  0  0
   -2.1434   -2.6813    0.0000 C   0  0  0  0  0  0  0  2  0  0  0  0
   -2.8579   -3.0937    0.0000 C   0  0  0  0  0  0  0  2  0  0  0  0
   -0.7145   -1.8563    0.0000 C   0  0  0  0  0  0  0  2  0  0  0  0
    0.0000   -1.4438    0.0000 C   0  0  0  0  0  0  0  2  0  0  0  0
    0.7145   -1.8563    0.0000 C   0  0  0  0  0  0  0  2  0  0  0  0
    1.4289   -1.4438    0.0000 C   0  0  0  0  0  0  0  2  0  0  0  0
    2.1434   -1.8563    0.0000 C   0  0  0  0  0  0  0  2  0  0  0  0
    2.8579   -1.4438    0.0000 Cl  0  0  0  0  0  0  0  2  0  0  0  0
    2.1434   -2.6813    0.0000 Cl  0  0  0  0  0  0  0  2  0  0  0  0
    2.8579   -2.2688    0.0000 Cl  0  0  0  0  0  0  0  2  0  0  0  0
    1.4289   -0.6188    0.0000 C   0  0  0  0  0  0  0  2  0  0  0  0
    0.7145   -0.2063    0.0000 C   0  0  0  0  0  0  0  2  0  0  0  0
    0.7145    0.6187    0.0000 C   0  0  0  0  0  0  0  2  0  0  0  0
    1.4289    1.0312    0.0000 C   0  0  0  0  0  0  0  2  0  0  0  0
    1.4289    1.8562    0.0000 O   0  0  0  0  0  0  0  2  0  0  0  0
    2.1434    2.2687    0.0000 C   0  0  0  0  0  0  0  2  0  0  0  0
    2.1434    3.0937    0.0000 C   0  0  0  0  0  0  0  2  0  0  0  0
    2.1434    0.6187    0.0000 C   0  0  0  0  0  0  0  2  0  0  0  0
    2.1434   -0.2063    0.0000 C   0  0  0  0  0  0  0  2  0  0  0  0
  1  2  4  0        0
  2  3  4  0        0
  3  4  1  0        0
  4  5  1  0        0
  5  6  1  0        0
  3  7  4  0        0
  7  8  4  0        0
  8  9  4  0        0
  1  9  4  0        0
  9 10  1  0        0
 10 11  1  0        0
 11 12  1  0        0
 11 13  1  0        0
 11 14  1  0        0
 10 15  1  0        0
 15 16  4  0        0
 16 17  4  0        0
 17 18  4  0        0
 18 19  1  0        0
 19 20  1  0        0
 20 21  1  0        0
 18 22  4  0        0
 22 23  4  0        0
 15 23  4  0        0
M  END
$$$$

CDXL12

 15 16  0  0  0  0  0  0  0  0999 V2000
    2.8579    1.4437    0.0000 Cl  0  0  0  0  0  0  0  2  0  0  0  0
    2.1434    1.0312    0.0000 C   0  0  0  0  0  0  0  2  0  0  0  0
    2.1434    0.2062    0.0000 C   0  0  0  0  0  0  0  2  0  0  0  0
    1.4289   -0.2062    0.0000 C   0  0  0  0  0  0  0  2  0  0  0  0
    0.7145    0.2062    0.0000 C   0  0  0  0  0  0  0  2  0  0  0  0
    0.0000   -0.2062    0.0000 N   0  0  0  0  0  0  0  2  0  0  0  0
   -0.7145    0.2062    0.0000 N   0  0  0  0  0  0  0  2  0  0  0  0
   -1.4289   -0.2062    0.0000 C   0  0  0  0  0  0  0  2  0  0  0  0
   -1.4289   -1.0312    0.0000 C   0  0  0  0  0  0  0  2  0  0  0  0
   -2.1434   -1.4437    0.0000 C   0  0  0  0  0  0  0  2  0  0  0  0
   -2.8579   -1.0312    0.0000 C   0  0  0  0  0  0  0  2  0  0  0  0
   -2.8579   -0.2062    0.0000 C   0  0  0  0  0  0  0  2  0  0  0  0
   -2.1434    0.2062    0.0000 C   0  0  0  0  0  0  0  2  0  0  0  0
    0.7145    1.0312    0.0000 C   0  0  0  0  0  0  0  2  0  0  0  0
    1.4289    1.4437    0.0000 C   0  0  0  0  0  0  0  2  0  0  0  0
  1  2  1  0        0
  2  3  4  0        0
  3  4  4  0        0
  4  5  4  0        0
  5  6  1  0        0
  6  7  2  0        0
  7  8  1  0        0
  8  9  4  0        0
  9 10  4  0        0
 10 11  4  0        0
 11 12  4  0        0
 12 13  4  0        0
  8 13  4  0        0
  5 14  4  0        0
 14 15  4  0        0
  2 15  4  0        0
M  END
$$$$

CDXL12

 20 20  0  0  0  0  0  0  0  0999 V2000
    3.5724   -0.4125    0.0000 C   0  0  0  0  0  0  0  2  0  0  0  0
    2.8579   -0.8250    0.0000 C   0  0  0  0  0  0  0  2  0  0  0  0
    2.1434   -0.4125    0.0000 C   0  0  0  0  0  0  0  2  0  0  0  0
    1.4289   -0.8250    0.0000 C   0  0  0  0  0  0  0  2  0  0  0  0
    0.7145   -0.4125    0.0000 C   0  0  0  0  0  0  0  2  0  0  0  0
    0.7145    0.4125    0.0000 C   0  0  0  0  0  0  0  2  0  0  0  0
    1.4289    0.8250    0.0000 C   0  0  0  0  0  0  0  2  0  0  0  0
   -0.0000   -0.8250    0.0000 C   0  0  0  0  0  0  0  2  0  0  0  0
   -0.7145   -0.4125    0.0000 O   0  0  0  0  0  0  0  2  0  0  0  0
   -1.4289   -0.8250    0.0000 C   0  0  0  0  0  0  0  2  0  0  0  0
   -1.4289   -1.6500    0.0000 O   0  0  0  0  0  0  0  2  0  0  0  0
   -2.1434   -0.4125    0.0000 C   0  0  0  0  0  0  0  2  0  0  0  0
   -2.8579   -0.8250    0.0000 C   0  0  0  0  0  0  0  2  0  0  0  0
   -3.5724   -0.4125    0.0000 C   0  0  0  0  0  0  0  2  0  0  0  0
   -3.5724    0.4125    0.0000 C   0  0  0  0  0  0  0  2  0  0  0  0
   -2.8579    0.8250    0.0000 C   0  0  0  0  0  0  0  2  0  0  0  0
   -2.1434    0.4125    0.0000 C   0  0  0  0  0  0  0  2  0  0  0  0
   -1.4289    0.8250    0.0000 C   0  0  0  0  0  0  0  2  0  0  0  0
   -0.7145    0.4125    0.0000 O   0  0  0  0  0  0  0  2  0  0  0  0
   -1.4289    1.6500    0.0000 O   0  0  0  0  0  0  0  2  0  0  0  0
  1  2  1  0        0
  2  3  1  0        0
  3  4  1  0        0
  4  5  1  0        0
  5  6  1  0        0
  6  7  1  0        0
  5  8  1  0        0
  8  9  1  0        0
  9 10  1  0        0
 10 11  2  0        0
 10 12  1  0        0
 12 13  4  0        0
 13 14  4  0        0
 14 15  4  0        0
 15 16  4  0        0
 16 17  4  0        0
 12 17  4  0        0
 17 18  1  0        0
 18 19  1  0        0
 18 20  2  0        0
M  END
$$$$

CDXL12

 19 20  0  0  0  0  0  0  0  0999 V2000
    0.0000   -1.2375    0.0000 C   0  0  0  0  0  0  0  2  0  0  0  0
    0.0000   -2.0625    0.0000 C   0  0  0  0  0  0  0  2  0  0  0  0
   -0.7145   -2.4750    0.0000 C   0  0  0  0  0  0  0  2  0  0  0  0
   -1.4289   -2.0625    0.0000 C   0  0  0  0  0  0  0  2  0  0  0  0
   -1.4289   -1.2375    0.0000 C   0  0  0  0  0  0  0  2  0  0  0  0
   -0.7145   -0.8250    0.0000 C   0  0  0  0  0  0  0  2  0  0  0  0
   -2.1434   -2.4750    0.0000 C   0  0  0  0  0  0  0  2  0  0  0  0
    0.7145   -0.8250    0.0000 C   0  0  0  0  0  0  0  2  0  0  0  0
    0.7145   -0.0000    0.0000 C   0  0  0  0  0  0  0  2  0  0  0  0
    0.0000    0.4125    0.0000 C   0  0  0  0  0  0  0  2  0  0  0  0
    0.0000    1.2375    0.0000 C   0  0  0  0  0  0  0  2  0  0  0  0
    0.7145    1.6500    0.0000 C   0  0  0  0  0  0  0  2  0  0  0  0
    1.4289    1.2375    0.0000 C   0  0  0  0  0  0  0  2  0  0  0  0
    1.4289    0.4125    0.0000 C   0  0  0  0  0  0  0  2  0  0  0  0
    0.7145    2.4750    0.0000 C   0  0  0  0  0  0  0  2  0  0  0  0
    1.4289   -1.2375    0.0000 C   0  0  0  0  0  0  0  2  0  0  0  0
    2.1434   -0.8250    0.0000 Cl  0  0  0  0  0  0  0  2  0  0  0  0
    1.4289   -2.0625    0.0000 Cl  0  0  0  0  0  0  0  2  0  0  0  0
    2.1434   -1.6500    0.0000 Cl  0  0  0  0  0  0  0  2  0  0  0  0
  1  2  4  0        0
  2  3  4  0        0
  3  4  4  0        0
  4  5  4  0        0
  5  6  4  0        0
  1  6  4  0        0
  4  7  1  0        0
  1  8  1  0        0
  8  9  1  0        0
  9 10  4  0        0
 10 11  4  0        0
 11 12  4  0        0
 12 13  4  0        0
 13 14  4  0        0
  9 14  4  0        0
 12 15  1  0        0
  8 16  1  0        0
 16 17  1  0        0
 16 18  1  0        0
 16 19  1  0        0
M  END
$$$$

CDXL12

 10  9  0  0  0  0  0  0  0  0999 V2000
   -1.7862    0.6187    0.0000 O   0  0  0  0  0  0  0  2  0  0  0  0
   -1.7862   -0.2062    0.0000 C   0  0  0  0  0  0  0  2  0  0  0  0
   -1.0717   -0.6187    0.0000 O   0  0  0  0  0  0  0  2  0  0  0  0
   -0.3572   -0.2062    0.0000 C   0  0  0  0  0  0  0  2  0  0  0  0
    0.3572   -0.6187    0.0000 C   0  0  0  0  0  0  0  2  0  0  0  0
    1.0717   -0.2062    0.0000 C   0  0  0  0  0  0  0  2  0  0  0  0
    1.7862   -0.6187    0.0000 O   0  0  0  0  0  0  0  2  0  0  0  0
    2.5006   -0.2062    0.0000 C   0  0  0  0  0  0  0  2  0  0  0  0
    1.0717    0.6187    0.0000 C   0  0  0  0  0  0  0  2  0  0  0  0
   -2.5006   -0.6187    0.0000 C   0  0  0  0  0  0  0  2  0  0  0  0
  1  2  2  0        0
  2  3  1  0        0
  3  4  1  0        0
  4  5  1  0        0
  5  6  1  0        0
  6  7  1  0        0
  7  8  1  0        0
  6  9  1  0        0
  2 10  1  0        0
M  END
$$$$

CDXL12

 24 26  0  0  0  0  0  0  0  0999 V2000
   -0.3572   -1.6500    0.0000 O   0  0  0  0  0  0  0  2  0  0  0  0
   -0.3572   -0.8250    0.0000 C   0  0  0  0  0  0  0  2  0  0  0  0
   -1.0717   -0.4125    0.0000 C   0  0  0  0  0  0  0  2  0  0  0  0
   -1.0717    0.4125    0.0000 C   0  0  0  0  0  0  0  2  0  0  0  0
   -0.3572    0.8250    0.0000 C   0  0  0  0  0  0  0  2  0  0  0  0
   -0.3572    1.6500    0.0000 O   0  0  0  0  0  0  0  2  0  0  0  0
    0.3572    0.4125    0.0000 C   0  0  0  0  0  0  0  2  0  0  0  0
    1.0717    0.8250    0.0000 C   0  0  0  0  0  0  0  2  0  0  0  0
    1.0717    1.6500    0.0000 N   0  0  0  0  0  0  0  2  0  0  0  0
    1.7862    2.0625    0.0000 C   0  0  0  0  0  0  0  2  0  0  0  0
    1.7862    2.8875    0.0000 C   0  0  0  0  0  0  0  2  0  0  0  0
    2.5006    3.3000    0.0000 O   0  0  0  0  0  0  0  2  0  0  0  0
    1.7862    0.4125    0.0000 C   0  0  0  0  0  0  0  2  0  0  0  0
    1.7862   -0.4125    0.0000 C   0  0  0  0  0  0  0  2  0  0  0  0
    1.0717   -0.8250    0.0000 C   0  0  0  0  0  0  0  2  0  0  0  0
    1.0717   -1.6500    0.0000 N   0  0  0  0  0  0  0  2  0  0  0  0
    1.7862   -2.0625    0.0000 C   0  0  0  0  0  0  0  2  0  0  0  0
    1.7862   -2.8875    0.0000 C   0  0  0  0  0  0  0  2  0  0  0  0
    2.5006   -3.3000    0.0000 O   0  0  0  0  0  0  0  2  0  0  0  0
    0.3572   -0.4125    0.0000 C   0  0  0  0  0  0  0  2  0  0  0  0
   -1.7862    0.8250    0.0000 C   0  0  0  0  0  0  0  2  0  0  0  0
   -2.5006    0.4125    0.0000 C   0  0  0  0  0  0  0  2  0  0  0  0
   -2.5006   -0.4125    0.0000 C   0  0  0  0  0  0  0  2  0  0  0  0
   -1.7862   -0.8250    0.0000 C   0  0  0  0  0  0  0  2  0  0  0  0
  1  2  2  0        0
  2  3  1  0        0
  3  4  4  0        0
  4  5  1  0        0
  5  6  2  0        0
  5  7  1  0        0
  7  8  4  0        0
  8  9  1  0        0
  9 10  1  0        0
 10 11  1  0        0
 11 12  1  0        0
  8 13  4  0        0
 13 14  4  0        0
 14 15  4  0        0
 15 16  1  0        0
 16 17  1  0        0
 17 18  1  0        0
 18 19  1  0        0
 15 20  4  0        0
  2 20  1  0        0
  7 20  4  0        0
  4 21  4  0        0
 21 22  4  0        0
 22 23  4  0        0
 23 24  4  0        0
  3 24  4  0        0
M  END
$$$$

CDXL12

  8  8  0  0  0  0  0  0  0  0999 V2000
    1.2083    0.6989    0.0000 C   0  0  0  0  0  0  0  2  0  0  0  0
    0.6563    0.0858    0.0000 C   0  0  0  0  0  0  0  2  0  0  0  0
    1.4632   -0.0858    0.0000 C   0  0  0  0  0  0  0  2  0  0  0  0
   -0.0112    0.5707    0.0000 C   0  0  0  0  0  0  0  2  0  0  0  0
   -0.6786    0.0858    0.0000 C   0  0  0  0  0  0  0  2  0  0  0  0
   -1.4632    0.3407    0.0000 C   0  0  0  0  0  0  0  2  0  0  0  0
   -0.4237   -0.6989    0.0000 C   0  0  0  0  0  0  0  2  0  0  0  0
    0.4013   -0.6989    0.0000 C   0  0  0  0  0  0  0  2  0  0  0  0
  1  2  1  0        0
  2  3  1  0        0
  2  4  1  0        0
  4  5  1  0        0
  5  6  1  0        0
  5  7  1  0        0
  7  8  1  0        0
  2  8  1  0        0
M  END
$$$$

CDXL12

  6  5  0  0  0  0  0  0  0  0999 V2000
    0.0000    0.6188    0.0000 C   0  0  0  0  0  0  0  2  0  0  0  0
    0.0000   -0.2062    0.0000 N   0  0  0  0  0  0  0  2  0  0  0  0
    0.7145   -0.6188    0.0000 C   0  0  0  0  0  0  0  2  0  0  0  0
    1.4289   -0.2062    0.0000 C   0  0  0  0  0  0  0  2  0  0  0  0
   -0.7145   -0.6187    0.0000 N   0  0  0  0  0  0  0  2  0  0  0  0
   -1.4289   -0.2062    0.0000 O   0  0  0  0  0  0  0  2  0  0  0  0
  1  2  1  0        0
  2  3  1  0        0
  3  4  2  0        0
  2  5  1  0        0
  5  6  2  0        0
M  END
$$$$

CDXL12

 55 62  0  0  0  0  0  0  0  0999 V2000
   -7.6760   -2.1272    0.0000 C   0  0  0  0  0  0  0  2  0  0  0  0
   -6.9616   -1.7147    0.0000 C   0  0  0  0  0  0  0  2  0  0  0  0
   -6.2471   -2.1272    0.0000 O   0  0  0  0  0  0  0  2  0  0  0  0
   -5.5326   -1.7147    0.0000 C   0  0  0  0  0  0  0  2  0  0  0  0
   -5.5326   -0.8897    0.0000 C   0  0  0  0  0  0  0  2  0  0  0  0
   -6.2471   -0.4772    0.0000 C   0  0  0  0  0  0  0  2  0  0  0  0
   -6.2471    0.3478    0.0000 O   0  0  0  0  0  0  0  2  0  0  0  0
   -6.9616   -0.8897    0.0000 C   0  0  0  0  0  0  0  2  0  0  0  0
   -7.6760   -0.4772    0.0000 O   0  0  0  0  0  0  0  2  0  0  0  0
   -4.8182   -2.1272    0.0000 O   0  0  0  0  0  0  0  2  0  0  0  0
   -4.1037   -1.7147    0.0000 C   0  0  0  0  0  0  0  2  0  0  0  0
   -3.3892   -2.1272    0.0000 C   0  0  0  0  0  0  0  2  0  0  0  0
   -3.3892   -2.9522    0.0000 C   0  0  0  0  0  0  0  2  0  0  0  0
   -2.6748   -1.7147    0.0000 O   0  0  0  0  0  0  0  2  0  0  0  0
   -2.6748   -0.8897    0.0000 C   0  0  0  0  0  0  0  2  0  0  0  0
   -3.3892   -0.4772    0.0000 C   0  0  0  0  0  0  0  2  0  0  0  0
   -4.1037   -0.8897    0.0000 C   0  0  0  0  0  0  0  2  0  0  0  0
   -4.8182   -0.4772    0.0000 O   0  0  0  0  0  0  0  2  0  0  0  0
   -1.9603   -0.4772    0.0000 O   0  0  0  0  0  0  0  2  0  0  0  0
   -1.2458   -0.8897    0.0000 C   0  0  0  0  0  0  0  2  0  0  0  0
   -1.2458   -1.7147    0.0000 C   0  0  0  0  0  0  0  2  0  0  0  0
   -1.9603   -2.1272    0.0000 C   0  0  0  0  0  0  0  2  0  0  0  0
   -0.5313   -2.1272    0.0000 O   0  0  0  0  0  0  0  2  0  0  0  0
    0.1831   -1.7147    0.0000 C   0  0  0  0  0  0  0  2  0  0  0  0
    0.1831   -0.8897    0.0000 C   0  0  0  0  0  0  0  2  0  0  0  0
   -0.5313   -0.4772    0.0000 C   0  0  0  0  0  0  0  2  0  0  0  0
   -0.5313    0.3478    0.0000 O   0  0  0  0  0  0  0  2  0  0  0  0
    0.8976   -2.1272    0.0000 O   0  0  0  0  0  0  0  2  0  0  0  0
    1.6121   -1.7147    0.0000 C   0  0  0  0  0  0  0  2  0  0  0  0
    1.6121   -0.8897    0.0000 C   0  0  0  0  0  0  0  2  0  0  0  0
    2.3265   -0.4772    0.0000 C   0  0  0  0  0  0  0  2  0  0  0  0
    3.0410   -0.8897    0.0000 C   0  0  0  0  0  0  0  2  0  0  0  0
    3.0410   -0.0647    0.0000 C   0  0  0  0  0  0  0  2  0  0  0  0
    3.0410   -1.7147    0.0000 C   0  0  0  0  0  0  0  2  0  0  0  0
    3.7555   -2.1272    0.0000 C   0  0  0  0  0  0  0  2  0  0  0  0
    4.4700   -1.7147    0.0000 C   0  0  0  0  0  0  0  2  0  0  0  0
    4.4700   -0.8897    0.0000 C   0  0  0  0  0  0  0  2  0  0  0  0
    3.7555   -0.4772    0.0000 C   0  0  0  0  0  0  0  2  0  0  0  0
    3.7555    0.3478    0.0000 C   0  0  0  0  0  0  0  2  0  0  0  0
    4.4700    0.7603    0.0000 C   0  0  0  0  0  0  0  2  0  0  0  0
    5.1844    0.3478    0.0000 C   0  0  0  0  0  0  0  2  0  0  0  0
    5.2707    1.1683    0.0000 C   0  0  0  0  0  0  0  2  0  0  0  0
    5.9690    0.6027    0.0000 C   0  0  0  0  0  0  0  2  0  0  0  0
    6.4540   -0.0647    0.0000 C   0  0  0  0  0  0  0  2  0  0  0  0
    7.2790   -0.0647    0.0000 O   0  0  0  0  0  0  0  2  0  0  0  0
    5.9690   -0.7322    0.0000 C   0  0  0  0  0  0  0  2  0  0  0  0
    5.1844   -0.4772    0.0000 C   0  0  0  0  0  0  0  2  0  0  0  0
    5.2707   -1.2977    0.0000 O   0  0  0  0  0  0  0  2  0  0  0  0
    6.2240    1.3873    0.0000 C   0  0  0  0  0  0  0  2  0  0  0  0
    7.0086    1.6423    0.0000 C   0  0  0  0  0  0  0  2  0  0  0  0
    7.0086    2.4673    0.0000 C   0  0  0  0  0  0  0  2  0  0  0  0
    7.6760    2.9522    0.0000 O   0  0  0  0  0  0  0  2  0  0  0  0
    6.2240    2.7222    0.0000 O   0  0  0  0  0  0  0  2  0  0  0  0
    5.7391    2.0548    0.0000 C   0  0  0  0  0  0  0  2  0  0  0  0
    2.3265   -2.1272    0.0000 C   0  0  0  0  0  0  0  2  0  0  0  0
  1  2  1  0        0
  2  3  1  0        0
  3  4  1  0        0
  4  5  1  0        0
  5  6  1  0        0
  6  7  1  0        0
  6  8  1  0        0
  2  8  1  0        0
  8  9  1  0        0
  4 10  1  0        0
 10 11  1  0        0
 11 12  1  0        0
 12 13  1  0        0
 12 14  1  0        0
 14 15  1  0        0
 15 16  1  0        0
 16 17  1  0        0
 11 17  1  0        0
 17 18  1  0        0
 15 19  1  0        0
 19 20  1  0        0
 20 21  1  0        0
 21 22  1  0        0
 21 23  1  0        0
 23 24  1  0        0
 24 25  1  0        0
 25 26  1  0        0
 20 26  1  0        0
 26 27  1  0        0
 24 28  1  0        0
 28 29  1  0        0
 29 30  1  0        0
 30 31  1  0        0
 31 32  1  0        0
 32 33  1  0        0
 32 34  1  0        0
 34 35  1  0        0
 35 36  1  0        0
 36 37  1  0        0
 37 38  1  0        0
 32 38  1  0        0
 38 39  1  0        0
 39 40  1  0        0
 40 41  1  0        0
 41 42  1  0        0
 41 43  1  0        0
 43 44  1  0        0
 44 45  1  0        0
 44 46  1  0        0
 46 47  1  0        0
 37 47  1  0        0
 41 47  1  0        0
 47 48  1  0        0
 43 49  1  0        0
 49 50  2  0        0
 50 51  1  0        0
 51 52  2  0        0
 51 53  1  0        0
 53 54  1  0        0
 49 54  1  0        0
 34 55  1  0        0
 29 55  1  0        0
M  END
$$$$

CDXL12

 16 17  0  0  0  0  0  0  0  0999 V2000
    2.6112    1.0313    0.0000 C   0  0  0  0  0  0  0  2  0  0  0  0
    1.7862    1.0313    0.0000 N   0  0  0  0  0  0  0  2  0  0  0  0
    2.1987    1.7457    0.0000 Cl  0  0  0  0  0  0  0  2  0  0  0  0
    1.7862    0.2062    0.0000 C   0  0  0  0  0  0  0  2  0  0  0  0
    1.0717   -0.2062    0.0000 C   0  0  0  0  0  0  0  2  0  0  0  0
    0.3572    0.2062    0.0000 C   0  0  0  0  0  0  0  2  0  0  0  0
    0.3572    1.0313    0.0000 C   0  0  0  0  0  0  0  2  0  0  0  0
    1.0717    1.4438    0.0000 C   0  0  0  0  0  0  0  2  0  0  0  0
   -0.3572   -0.2062    0.0000 C   0  0  0  0  0  0  0  2  0  0  0  0
   -0.3572   -1.0312    0.0000 C   0  0  0  0  0  0  0  2  0  0  0  0
   -1.0717   -1.4437    0.0000 C   0  0  0  0  0  0  0  2  0  0  0  0
   -1.7862   -1.0312    0.0000 N   0  0  0  0  0  0  0  2  0  0  0  0
   -2.6112   -1.0312    0.0000 Cl  0  0  0  0  0  0  0  2  0  0  0  0
   -2.1987   -1.7457    0.0000 C   0  0  0  0  0  0  0  2  0  0  0  0
   -1.7862   -0.2062    0.0000 C   0  0  0  0  0  0  0  2  0  0  0  0
   -1.0717    0.2062    0.0000 C   0  0  0  0  0  0  0  2  0  0  0  0
  1  2  1  0        0
  2  3  1  0        0
  2  4  1  0        0
  4  5  1  0        0
  5  6  1  0        0
  6  7  1  0        0
  7  8  1  0        0
  2  8  1  0        0
  6  9  1  0        0
  9 10  1  0        0
 10 11  1  0        0
 11 12  1  0        0
 12 13  1  0        0
 12 14  1  0        0
 12 15  1  0        0
 15 16  1  0        0
  9 16  1  0        0
M  END
$$$$

CDXL12

 29 32  0  0  0  0  0  0  0  0999 V2000
    1.7063    0.5785    0.0000 O   0  0  0  0  0  0  0  2  0  0  0  0
    1.3820   -0.1801    0.0000 C   0  0  0  0  0  0  0  2  0  0  0  0
    1.1985   -0.9844    0.0000 C   0  0  0  0  0  0  0  2  0  0  0  0
    1.9067   -1.4076    0.0000 C   0  0  0  0  0  0  0  2  0  0  0  0
    2.5280   -0.8648    0.0000 C   0  0  0  0  0  0  0  2  0  0  0  0
    2.2037   -0.1062    0.0000 C   0  0  0  0  0  0  0  2  0  0  0  0
    2.2037    0.7188    0.0000 C   0  0  0  0  0  0  0  2  0  0  0  0
    2.9182    0.3063    0.0000 C   0  0  0  0  0  0  0  2  0  0  0  0
    3.3323   -1.0483    0.0000 O   0  0  0  0  0  0  0  2  0  0  0  0
    0.4552   -1.3424    0.0000 C   0  0  0  0  0  0  0  2  0  0  0  0
    0.8677   -2.0568    0.0000 O   0  0  0  0  0  0  0  2  0  0  0  0
    0.0427   -2.0568    0.0000 C   0  0  0  0  0  0  0  2  0  0  0  0
   -0.2881   -0.9844    0.0000 C   0  0  0  0  0  0  0  2  0  0  0  0
   -0.8025   -1.6294    0.0000 C   0  0  0  0  0  0  0  2  0  0  0  0
   -1.6275   -1.6294    0.0000 C   0  0  0  0  0  0  0  2  0  0  0  0
   -2.1419   -0.9844    0.0000 C   0  0  0  0  0  0  0  2  0  0  0  0
   -1.5381   -0.1021    0.0000 C   0  0  0  0  0  0  0  2  0  0  0  0
   -0.4717   -0.1801    0.0000 C   0  0  0  0  0  0  0  2  0  0  0  0
    0.0427    0.4649    0.0000 C   0  0  0  0  0  0  0  2  0  0  0  0
    0.8677    0.4649    0.0000 C   0  0  0  0  0  0  0  2  0  0  0  0
    1.2802    1.1794    0.0000 O   0  0  0  0  0  0  0  2  0  0  0  0
   -1.2150    0.1778    0.0000 C   0  0  0  0  0  0  0  2  0  0  0  0
   -1.9583   -0.1801    0.0000 C   0  0  0  0  0  0  0  2  0  0  0  0
   -2.7741   -0.0571    0.0000 O   0  0  0  0  0  0  0  2  0  0  0  0
   -2.2597    0.5879    0.0000 C   0  0  0  0  0  0  0  2  0  0  0  0
   -1.9895    1.1383    0.0000 O   0  0  0  0  0  0  0  2  0  0  0  0
   -2.8020    1.2816    0.0000 C   0  0  0  0  0  0  0  2  0  0  0  0
   -3.0842    2.0568    0.0000 C   0  0  0  0  0  0  0  2  0  0  0  0
   -3.3323    0.6496    0.0000 O   0  0  0  0  0  0  0  2  0  0  0  0
  1  2  1  0        0
  2  3  1  0        0
  3  4  1  0        0
  4  5  1  0        0
  5  6  1  0        0
  2  6  1  0        0
  6  7  1  0        0
  6  8  1  0        0
  5  9  1  0        0
  3 10  1  0        0
 10 11  1  0        0
 10 12  1  0        0
 10 13  1  0        0
 13 14  1  0        0
 14 15  1  0        0
 15 16  1  0        0
 16 17  1  0        0
 17 18  1  0        0
 13 18  1  0        0
 18 19  1  0        0
 19 20  1  0        0
  2 20  1  0        0
 20 21  1  0        0
 18 22  1  0        0
 22 23  1  0        0
 16 23  1  0        0
 23 24  1  0        0
 23 25  1  0        0
 17 26  1  0        0
 26 27  1  0        0
 27 28  1  0        0
 27 29  2  0        0
M  END
$$$$

CDXL12

 23 23  0  0  0  0  0  0  0  0999 V2000
    1.4289    2.8875    0.0000 C   0  0  0  0  0  0  0  2  0  0  0  0
    0.7145    2.4750    0.0000 C   0  0  0  0  0  0  0  2  0  0  0  0
    0.7145    1.6500    0.0000 C   0  0  0  0  0  0  0  2  0  0  0  0
    0.0000    1.2375    0.0000 N   0  0  0  0  0  0  0  2  0  0  0  0
   -0.7145    1.6500    0.0000 C   0  0  0  0  0  0  0  2  0  0  0  0
   -0.7145    2.4750    0.0000 C   0  0  0  0  0  0  0  2  0  0  0  0
   -1.4289    2.8875    0.0000 C   0  0  0  0  0  0  0  2  0  0  0  0
    0.0000    0.4125    0.0000 C   0  0  0  0  0  0  0  2  0  0  0  0
    0.7145    0.0000    0.0000 C   0  0  0  0  0  0  0  2  0  0  0  0
    0.7145   -0.8250    0.0000 C   0  0  0  0  0  0  0  2  0  0  0  0
    0.0000   -1.2375    0.0000 C   0  0  0  0  0  0  0  2  0  0  0  0
   -0.7145   -0.8250    0.0000 C   0  0  0  0  0  0  0  2  0  0  0  0
   -0.7145    0.0000    0.0000 C   0  0  0  0  0  0  0  2  0  0  0  0
   -1.4289    0.4125    0.0000 N   0  0  0  0  0  0  0  2  0  0  0  0
   -1.4289    1.2375    0.0000 O   0  0  0  0  0  0  0  2  0  0  0  0
   -2.1434    0.0000    0.0000 O   0  0  0  0  0  0  0  2  0  0  0  0
    0.0000   -2.0625    0.0000 S   0  0  0  0  0  0  0  2  0  0  0  0
    0.0000   -2.8875    0.0000 C   0  0  0  0  0  0  0  2  0  0  0  0
   -0.8250   -2.0625    0.0000 O   0  0  0  0  0  0  0  2  0  0  0  0
    0.8250   -2.0625    0.0000 O   0  0  0  0  0  0  0  2  0  0  0  0
    1.4289    0.4125    0.0000 N   0  0  0  0  0  0  0  2  0  0  0  0
    1.4289    1.2375    0.0000 O   0  0  0  0  0  0  0  2  0  0  0  0
    2.1434    0.0000    0.0000 O   0  0  0  0  0  0  0  2  0  0  0  0
  1  2  1  0        0
  2  3  1  0        0
  3  4  1  0        0
  4  5  1  0        0
  5  6  1  0        0
  6  7  1  0        0
  4  8  1  0        0
  8  9  4  0        0
  9 10  4  0        0
 10 11  4  0        0
 11 12  4  0        0
 12 13  4  0        0
  8 13  4  0        0
 13 14  1  0        0
 14 15  2  0        0
 14 16  2  0        0
 11 17  1  0        0
 17 18  1  0        0
 17 19  2  0        0
 17 20  2  0        0
  9 21  1  0        0
 21 22  2  0        0
 21 23  2  0        0
M  END
$$$$

CDXL12

 12 13  0  0  0  0  0  0  0  0999 V2000
    1.4289   -0.2063    0.0000 C   0  0  0  0  0  0  0  2  0  0  0  0
    1.4289   -1.0312    0.0000 C   0  0  0  0  0  0  0  2  0  0  0  0
    0.7145   -1.4437    0.0000 C   0  0  0  0  0  0  0  2  0  0  0  0
    0.0000   -1.0312    0.0000 C   0  0  0  0  0  0  0  2  0  0  0  0
   -0.7145   -1.4437    0.0000 C   0  0  0  0  0  0  0  2  0  0  0  0
   -1.4289   -1.0312    0.0000 C   0  0  0  0  0  0  0  2  0  0  0  0
   -1.4289   -0.2062    0.0000 C   0  0  0  0  0  0  0  2  0  0  0  0
   -0.7145    0.2063    0.0000 C   0  0  0  0  0  0  0  2  0  0  0  0
    0.0000   -0.2062    0.0000 C   0  0  0  0  0  0  0  2  0  0  0  0
    0.7145    0.2062    0.0000 C   0  0  0  0  0  0  0  2  0  0  0  0
    0.7145    1.0312    0.0000 C   0  0  0  0  0  0  0  2  0  0  0  0
    1.4289    1.4437    0.0000 O   0  0  0  0  0  0  0  2  0  0  0  0
  1  2  4  0        0
  2  3  4  0        0
  3  4  4  0        0
  4  5  4  0        0
  5  6  4  0        0
  6  7  4  0        0
  7  8  4  0        0
  8  9  4  0        0
  4  9  4  0        0
  9 10  4  0        0
  1 10  4  0        0
 10 11  1  0        0
 11 12  1  0        0
M  END
$$$$

CDXL12

  7  6  0  0  0  0  0  0  0  0999 V2000
    0.3572    0.6187    0.0000 O   0  0  0  0  0  0  0  2  0  0  0  0
    0.3572   -0.2062    0.0000 C   0  0  0  0  0  0  0  2  0  0  0  0
    1.0717   -0.6187    0.0000 C   0  0  0  0  0  0  0  2  0  0  0  0
    1.7862   -0.2062    0.0000 C   0  0  0  0  0  0  0  2  0  0  0  0
   -0.3572   -0.6187    0.0000 C   0  0  0  0  0  0  0  2  0  0  0  0
   -1.0717   -0.2062    0.0000 C   0  0  0  0  0  0  0  2  0  0  0  0
   -1.7862   -0.6187    0.0000 C   0  0  0  0  0  0  0  2  0  0  0  0
  1  2  1  0        0
  2  3  1  0        0
  3  4  2  0        0
  2  5  1  0        0
  5  6  1  0        0
  6  7  1  0        0
M  END
$$$$

CDXL12

  7  6  0  0  0  0  0  0  0  0999 V2000
   -1.4289   -0.2062    0.0000 C   0  0  0  0  0  0  0  2  0  0  0  0
   -0.7145    0.2062    0.0000 C   0  0  0  0  0  0  0  2  0  0  0  0
    0.0000   -0.2062    0.0000 C   0  0  0  0  0  0  0  2  0  0  0  0
    0.0000   -1.0313    0.0000 O   0  0  0  0  0  0  0  2  0  0  0  0
    0.7145    0.2062    0.0000 C   0  0  0  0  0  0  0  2  0  0  0  0
    0.7145    1.0313    0.0000 C   0  0  0  0  0  0  0  2  0  0  0  0
    1.4289   -0.2062    0.0000 C   0  0  0  0  0  0  0  2  0  0  0  0
  1  2  2  0        0
  2  3  1  0        0
  3  4  1  0        0
  3  5  1  0        0
  5  6  1  0        0
  5  7  1  0        0
M  END
$$$$

CDXL12

  7  6  0  0  0  0  0  0  0  0999 V2000
    1.7862   -0.2062    0.0000 C   0  0  0  0  0  0  0  2  0  0  0  0
    1.0717   -0.6187    0.0000 C   0  0  0  0  0  0  0  2  0  0  0  0
    0.3572   -0.2062    0.0000 C   0  0  0  0  0  0  0  2  0  0  0  0
    0.3572    0.6187    0.0000 O   0  0  0  0  0  0  0  2  0  0  0  0
   -0.3572   -0.6187    0.0000 C   0  0  0  0  0  0  0  2  0  0  0  0
   -1.0717   -0.2062    0.0000 C   0  0  0  0  0  0  0  2  0  0  0  0
   -1.7862   -0.6187    0.0000 C   0  0  0  0  0  0  0  2  0  0  0  0
  1  2  1  0        0
  2  3  1  0        0
  3  4  1  0        0
  3  5  1  0        0
  5  6  2  0        0
  6  7  1  0        0
M  END
$$$$

CDXL12

 20 20  0  0  0  0  0  0  0  0999 V2000
    3.2151   -1.2375    0.0000 C   0  0  0  0  0  0  0  2  0  0  0  0
    3.2151   -0.4125    0.0000 N   0  0  0  0  0  0  0  2  0  0  0  0
    3.9296   -0.0000    0.0000 C   0  0  0  0  0  0  0  2  0  0  0  0
    2.5006   -0.0000    0.0000 C   0  0  0  0  0  0  0  2  0  0  0  0
    2.5006    0.8250    0.0000 O   0  0  0  0  0  0  0  2  0  0  0  0
    1.7862   -0.4125    0.0000 N   0  0  0  0  0  0  0  2  0  0  0  0
    1.0717   -0.0000    0.0000 C   0  0  0  0  0  0  0  2  0  0  0  0
    1.0717    0.8250    0.0000 C   0  0  0  0  0  0  0  2  0  0  0  0
    0.3572    1.2375    0.0000 C   0  0  0  0  0  0  0  2  0  0  0  0
   -0.3572    0.8250    0.0000 C   0  0  0  0  0  0  0  2  0  0  0  0
   -0.3572   -0.0000    0.0000 C   0  0  0  0  0  0  0  2  0  0  0  0
   -1.0717   -0.4125    0.0000 O   0  0  0  0  0  0  0  2  0  0  0  0
   -1.7862   -0.0000    0.0000 C   0  0  0  0  0  0  0  2  0  0  0  0
   -1.7862    0.8250    0.0000 O   0  0  0  0  0  0  0  2  0  0  0  0
   -2.5006   -0.4125    0.0000 N   0  0  0  0  0  0  0  2  0  0  0  0
   -3.2151   -0.0000    0.0000 C   0  0  0  0  0  0  0  2  0  0  0  0
   -3.9296   -0.4125    0.0000 C   0  0  0  0  0  0  0  2  0  0  0  0
   -3.9296    0.4125    0.0000 C   0  0  0  0  0  0  0  2  0  0  0  0
   -3.2151    0.8250    0.0000 C   0  0  0  0  0  0  0  2  0  0  0  0
    0.3572   -0.4125    0.0000 C   0  0  0  0  0  0  0  2  0  0  0  0
  1  2  1  0        0
  2  3  1  0        0
  2  4  1  0        0
  4  5  2  0        0
  4  6  1  0        0
  6  7  1  0        0
  7  8  4  0        0
  8  9  4  0        0
  9 10  4  0        0
 10 11  4  0        0
 11 12  1  0        0
 12 13  1  0        0
 13 14  2  0        0
 13 15  1  0        0
 15 16  1  0        0
 16 17  1  0        0
 16 18  1  0        0
 16 19  1  0        0
 11 20  4  0        0
  7 20  4  0        0
M  END
$$$$

CDXL12

 10 10  0  0  0  0  0  0  0  0999 V2000
    1.7862   -0.4125    0.0000 O   0  0  0  0  0  0  0  2  0  0  0  0
    1.0717    0.0000    0.0000 N   0  0  0  0  0  0  0  2  0  0  0  0
    0.3572   -0.4125    0.0000 N   0  0  0  0  0  0  0  2  0  0  0  0
   -0.3572   -0.0000    0.0000 C   0  0  0  0  0  0  0  2  0  0  0  0
   -1.0717   -0.4125    0.0000 C   0  0  0  0  0  0  0  2  0  0  0  0
   -1.7862    0.0000    0.0000 C   0  0  0  0  0  0  0  2  0  0  0  0
   -1.7862    0.8250    0.0000 C   0  0  0  0  0  0  0  2  0  0  0  0
   -1.0717    1.2375    0.0000 C   0  0  0  0  0  0  0  2  0  0  0  0
   -0.3572    0.8250    0.0000 C   0  0  0  0  0  0  0  2  0  0  0  0
    0.3572   -1.2375    0.0000 O   0  0  0  0  0  0  0  2  0  0  0  0
  1  2  2  0        0
  2  3  1  0        0
  3  4  1  0        0
  4  5  1  0        0
  5  6  1  0        0
  6  7  1  0        0
  7  8  1  0        0
  8  9  1  0        0
  4  9  1  0        0
  3 10  1  0        0
M  END
$$$$

CDXL12

  8  7  0  0  0  0  0  0  0  0999 V2000
    0.7145    1.0313    0.0000 C   0  0  0  0  0  0  0  2  0  0  0  0
    0.7145    0.2062    0.0000 C   0  0  0  0  0  0  0  2  0  0  0  0
    1.4289    0.6188    0.0000 O   0  0  0  0  0  0  0  2  0  0  0  0
    1.4289   -0.2062    0.0000 C   0  0  0  0  0  0  0  2  0  0  0  0
    0.0000   -0.2062    0.0000 C   0  0  0  0  0  0  0  2  0  0  0  0
    0.0000   -1.0313    0.0000 C   0  0  0  0  0  0  0  2  0  0  0  0
   -0.7145    0.2062    0.0000 C   0  0  0  0  0  0  0  2  0  0  0  0
   -1.4289   -0.2062    0.0000 C   0  0  0  0  0  0  0  2  0  0  0  0
  1  2  1  0        0
  2  3  1  0        0
  2  4  1  0        0
  2  5  1  0        0
  5  6  1  0        0
  5  7  1  0        0
  7  8  1  0        0
M  END
$$$$

CDXL12

 11 11  0  0  0  0  0  0  0  0999 V2000
    0.7145   -1.2375    0.0000 C   0  0  0  0  0  0  0  2  0  0  0  0
    0.0000   -0.8250    0.0000 C   0  0  0  0  0  0  0  2  0  0  0  0
   -0.7145   -1.2375    0.0000 C   0  0  0  0  0  0  0  2  0  0  0  0
    0.0000    0.0000    0.0000 C   0  0  0  0  0  0  0  2  0  0  0  0
   -0.7145    0.4125    0.0000 N   0  0  0  0  0  0  0  2  0  0  0  0
   -0.7145    1.2375    0.0000 O   0  0  0  0  0  0  0  2  0  0  0  0
   -1.4289    0.0000    0.0000 O   0  0  0  0  0  0  0  2  0  0  0  0
    0.7145    0.4125    0.0000 C   0  0  0  0  0  0  0  2  0  0  0  0
    0.7145    1.2375    0.0000 O   0  0  0  0  0  0  0  2  0  0  0  0
    1.4289   -0.0000    0.0000 C   0  0  0  0  0  0  0  2  0  0  0  0
    1.4289   -0.8250    0.0000 C   0  0  0  0  0  0  0  2  0  0  0  0
  1  2  4  0        0
  2  3  1  0        0
  2  4  4  0        0
  4  5  1  0        0
  5  6  2  0        0
  5  7  2  0        0
  4  8  4  0        0
  8  9  1  0        0
  8 10  4  0        0
 10 11  4  0        0
  1 11  4  0        0
M  END
$$$$

CDXL12

 18 20  0  0  0  0  0  0  0  0999 V2000
    2.1190    0.0000    0.0000 Cl  0  0  0  0  0  0  0  2  0  0  0  0
    1.2940    0.0000    0.0000 C   0  0  0  0  0  0  0  2  0  0  0  0
    0.8091   -0.6674    0.0000 C   0  0  0  0  0  0  0  2  0  0  0  0
    0.0244   -0.4125    0.0000 C   0  0  0  0  0  0  0  2  0  0  0  0
    0.0244    0.4125    0.0000 C   0  0  0  0  0  0  0  2  0  0  0  0
    0.8091    0.6674    0.0000 C   0  0  0  0  0  0  0  2  0  0  0  0
    1.0640    1.4521    0.0000 Cl  0  0  0  0  0  0  0  2  0  0  0  0
   -0.6900    0.8250    0.0000 C   0  0  0  0  0  0  0  2  0  0  0  0
   -0.6900    1.6500    0.0000 Cl  0  0  0  0  0  0  0  2  0  0  0  0
   -1.4045    0.4125    0.0000 C   0  0  0  0  0  0  0  2  0  0  0  0
   -1.4045   -0.4125    0.0000 C   0  0  0  0  0  0  0  2  0  0  0  0
   -2.1190   -0.8250    0.0000 Cl  0  0  0  0  0  0  0  2  0  0  0  0
   -0.6900   -0.8250    0.0000 C   0  0  0  0  0  0  0  2  0  0  0  0
   -0.6900   -1.6500    0.0000 Cl  0  0  0  0  0  0  0  2  0  0  0  0
   -1.0266    0.0000    0.0000 C   0  0  0  0  0  0  0  2  0  0  0  0
   -1.7410    0.4125    0.0000 Cl  0  0  0  0  0  0  0  2  0  0  0  0
   -1.7410   -0.4125    0.0000 Cl  0  0  0  0  0  0  0  2  0  0  0  0
   -2.1190    0.8250    0.0000 Cl  0  0  0  0  0  0  0  2  0  0  0  0
  1  2  1  0        0
  2  3  1  0        0
  3  4  1  0        0
  4  5  1  0        0
  5  6  1  0        0
  2  6  1  0        0
  6  7  1  0        0
  5  8  1  0        0
  8  9  1  0        0
  8 10  1  0        0
 10 11  2  0        0
 11 12  1  0        0
 11 13  1  0        0
  4 13  1  0        0
 13 14  1  0        0
 13 15  1  0        0
  8 15  1  0        0
 15 16  1  0        0
 15 17  1  0        0
 10 18  1  0        0
M  END
$$$$

CDXL12

 18 20  0  0  0  0  0  0  0  0999 V2000
    2.1190    0.0000    0.0000 Cl  0  0  0  0  0  0  0  2  0  0  0  0
    1.2940    0.0000    0.0000 C   0  0  0  0  0  0  0  2  0  0  0  0
    0.8091   -0.6674    0.0000 C   0  0  0  0  0  0  0  2  0  0  0  0
    0.0244   -0.4125    0.0000 C   0  0  0  0  0  0  0  2  0  0  0  0
    0.0244    0.4125    0.0000 C   0  0  0  0  0  0  0  2  0  0  0  0
    0.8091    0.6674    0.0000 C   0  0  0  0  0  0  0  2  0  0  0  0
    1.0640    1.4521    0.0000 Cl  0  0  0  0  0  0  0  2  0  0  0  0
   -0.6900    0.8250    0.0000 C   0  0  0  0  0  0  0  2  0  0  0  0
   -0.6900    1.6500    0.0000 Cl  0  0  0  0  0  0  0  2  0  0  0  0
   -1.4045    0.4125    0.0000 C   0  0  0  0  0  0  0  2  0  0  0  0
   -1.4045   -0.4125    0.0000 C   0  0  0  0  0  0  0  2  0  0  0  0
   -2.1190   -0.8250    0.0000 Cl  0  0  0  0  0  0  0  2  0  0  0  0
   -0.6900   -0.8250    0.0000 C   0  0  0  0  0  0  0  2  0  0  0  0
   -0.6900   -1.6500    0.0000 Cl  0  0  0  0  0  0  0  2  0  0  0  0
   -1.0266    0.0000    0.0000 C   0  0  0  0  0  0  0  2  0  0  0  0
   -1.7410    0.4125    0.0000 Cl  0  0  0  0  0  0  0  2  0  0  0  0
   -1.7410   -0.4125    0.0000 Cl  0  0  0  0  0  0  0  2  0  0  0  0
   -2.1190    0.8250    0.0000 Cl  0  0  0  0  0  0  0  2  0  0  0  0
  1  2  1  0        0
  2  3  1  0        0
  3  4  1  0        0
  4  5  1  0        0
  5  6  1  0        0
  2  6  1  0        0
  6  7  1  0        0
  5  8  1  0        0
  8  9  1  0        0
  8 10  1  0        0
 10 11  2  0        0
 11 12  1  0        0
 11 13  1  0        0
  4 13  1  0        0
 13 14  1  0        0
 13 15  1  0        0
  8 15  1  0        0
 15 16  1  0        0
 15 17  1  0        0
 10 18  1  0        0
M  END
$$$$

CDXL12

 19 20  0  0  0  0  0  0  0  0999 V2000
    2.1434   -0.9367    0.0000 C   0  0  0  0  0  0  0  2  0  0  0  0
    1.4289   -1.3492    0.0000 C   0  0  0  0  0  0  0  2  0  0  0  0
    0.7145   -0.9367    0.0000 O   0  0  0  0  0  0  0  2  0  0  0  0
    0.0000   -1.3492    0.0000 P   0  0  0  0  0  0  0  2  0  0  0  0
    0.0000   -2.1742    0.0000 S   0  0  0  0  0  0  0  2  0  0  0  0
   -0.7145   -0.9367    0.0000 O   0  0  0  0  0  0  0  2  0  0  0  0
   -1.4289   -1.3492    0.0000 C   0  0  0  0  0  0  0  2  0  0  0  0
   -2.1434   -0.9367    0.0000 C   0  0  0  0  0  0  0  2  0  0  0  0
    0.0000   -0.5242    0.0000 N   0  0  0  0  0  0  0  2  0  0  0  0
   -0.6674   -0.0393    0.0000 C   0  0  0  0  0  0  0  2  0  0  0  0
   -1.4521   -0.2943    0.0000 O   0  0  0  0  0  0  0  2  0  0  0  0
   -0.4125    0.7453    0.0000 C   0  0  0  0  0  0  0  2  0  0  0  0
   -0.8250    1.4598    0.0000 C   0  0  0  0  0  0  0  2  0  0  0  0
   -0.4125    2.1742    0.0000 C   0  0  0  0  0  0  0  2  0  0  0  0
    0.4125    2.1742    0.0000 C   0  0  0  0  0  0  0  2  0  0  0  0
    0.8250    1.4598    0.0000 C   0  0  0  0  0  0  0  2  0  0  0  0
    0.4125    0.7453    0.0000 C   0  0  0  0  0  0  0  2  0  0  0  0
    0.6674   -0.0393    0.0000 C   0  0  0  0  0  0  0  2  0  0  0  0
    1.4521   -0.2943    0.0000 O   0  0  0  0  0  0  0  2  0  0  0  0
  1  2  1  0        0
  2  3  1  0        0
  3  4  1  0        0
  4  5  2  0        0
  4  6  1  0        0
  6  7  1  0        0
  7  8  1  0        0
  4  9  1  0        0
  9 10  1  0        0
 10 11  2  0        0
 10 12  1  0        0
 12 13  4  0        0
 13 14  4  0        0
 14 15  4  0        0
 15 16  4  0        0
 16 17  4  0        0
 12 17  4  0        0
 17 18  1  0        0
  9 18  1  0        0
 18 19  2  0        0
M  END
$$$$

CDXL12

  5  4  0  0  0  0  0  0  0  0999 V2000
   -1.4289   -0.2062    0.0000 Br  0  0  0  0  0  0  0  2  0  0  0  0
   -0.7145    0.2062    0.0000 C   0  0  0  0  0  0  0  2  0  0  0  0
    0.0000   -0.2062    0.0000 C   0  0  0  0  0  0  0  2  0  0  0  0
    0.7145    0.2062    0.0000 C   0  0  0  0  0  0  0  2  0  0  0  0
    1.4289   -0.2062    0.0000 C   0  0  0  0  0  0  0  2  0  0  0  0
  1  2  1  0        0
  2  3  1  0        0
  3  4  1  0        0
  4  5  2  0        0
M  END
$$$$

CDXL12

 15 15  0  0  0  0  0  0  0  0999 V2000
    0.7145   -1.6500    0.0000 C   0  0  0  0  0  0  0  2  0  0  0  0
    0.7145   -0.8250    0.0000 C   0  0  0  0  0  0  0  2  0  0  0  0
   -0.0000   -0.4125    0.0000 C   0  0  0  0  0  0  0  2  0  0  0  0
   -0.7145   -0.8250    0.0000 C   0  0  0  0  0  0  0  2  0  0  0  0
   -1.4289   -0.4125    0.0000 C   0  0  0  0  0  0  0  2  0  0  0  0
   -2.1434   -0.8250    0.0000 C   0  0  0  0  0  0  0  2  0  0  0  0
   -2.8579   -0.4125    0.0000 C   0  0  0  0  0  0  0  2  0  0  0  0
   -0.0000    0.4125    0.0000 C   0  0  0  0  0  0  0  2  0  0  0  0
   -0.7145    0.8250    0.0000 O   0  0  0  0  0  0  0  2  0  0  0  0
    0.7145    0.8250    0.0000 N   0  0  0  0  0  0  0  2  0  0  0  0
    1.4289    0.4125    0.0000 C   0  0  0  0  0  0  0  2  0  0  0  0
    2.1434    0.8250    0.0000 N   0  0  0  0  0  0  0  2  0  0  0  0
    2.1434    1.6500    0.0000 C   0  0  0  0  0  0  0  2  0  0  0  0
    2.8579    0.4125    0.0000 C   0  0  0  0  0  0  0  2  0  0  0  0
    1.4289   -0.4125    0.0000 N   0  0  0  0  0  0  0  2  0  0  0  0
  1  2  1  0        0
  2  3  4  0        0
  3  4  1  0        0
  4  5  1  0        0
  5  6  1  0        0
  6  7  1  0        0
  3  8  4  0        0
  8  9  1  0        0
  8 10  4  0        0
 10 11  4  0        0
 11 12  1  0        0
 12 13  1  0        0
 12 14  1  0        0
 11 15  4  0        0
  2 15  4  0        0
M  END
$$$$

CDXL12

 16 17  0  0  0  0  0  0  0  0999 V2000
   -0.3572   -1.4437    0.0000 C   0  0  0  0  0  0  0  2  0  0  0  0
   -1.0717   -1.0313    0.0000 C   0  0  0  0  0  0  0  2  0  0  0  0
   -1.0717   -0.2063    0.0000 C   0  0  0  0  0  0  0  2  0  0  0  0
   -1.7862    0.2062    0.0000 S   0  0  0  0  0  0  0  2  0  0  0  0
   -2.5006   -0.2063    0.0000 C   0  0  0  0  0  0  0  2  0  0  0  0
   -2.5006   -1.0313    0.0000 C   0  0  0  0  0  0  0  2  0  0  0  0
   -1.7862   -1.4437    0.0000 O   0  0  0  0  0  0  0  2  0  0  0  0
   -0.3572    0.2062    0.0000 C   0  0  0  0  0  0  0  2  0  0  0  0
   -0.3572    1.0312    0.0000 O   0  0  0  0  0  0  0  2  0  0  0  0
    0.3572   -0.2063    0.0000 N   0  0  0  0  0  0  0  2  0  0  0  0
    1.0717    0.2062    0.0000 C   0  0  0  0  0  0  0  2  0  0  0  0
    1.0717    1.0312    0.0000 C   0  0  0  0  0  0  0  2  0  0  0  0
    1.7862    1.4437    0.0000 C   0  0  0  0  0  0  0  2  0  0  0  0
    2.5006    1.0312    0.0000 C   0  0  0  0  0  0  0  2  0  0  0  0
    2.5006    0.2062    0.0000 C   0  0  0  0  0  0  0  2  0  0  0  0
    1.7862   -0.2063    0.0000 C   0  0  0  0  0  0  0  2  0  0  0  0
  1  2  1  0        0
  2  3  2  0        0
  3  4  1  0        0
  4  5  1  0        0
  5  6  1  0        0
  6  7  1  0        0
  2  7  1  0        0
  3  8  1  0        0
  8  9  2  0        0
  8 10  1  0        0
 10 11  1  0        0
 11 12  4  0        0
 12 13  4  0        0
 13 14  4  0        0
 14 15  4  0        0
 15 16  4  0        0
 11 16  4  0        0
M  END
$$$$

CDXL12

 18 19  0  0  0  0  0  0  0  0999 V2000
    1.0717    1.1822    0.0000 C   0  0  0  0  0  0  0  2  0  0  0  0
    1.7862    1.5947    0.0000 C   0  0  0  0  0  0  0  2  0  0  0  0
    2.5006    1.1822    0.0000 C   0  0  0  0  0  0  0  2  0  0  0  0
    2.5006    0.3572    0.0000 C   0  0  0  0  0  0  0  2  0  0  0  0
    1.7862   -0.0553    0.0000 C   0  0  0  0  0  0  0  2  0  0  0  0
    1.0717    0.3572    0.0000 C   0  0  0  0  0  0  0  2  0  0  0  0
    0.3572   -0.0553    0.0000 N   0  0  0  0  0  0  0  2  0  0  0  0
   -0.3572    0.3572    0.0000 C   0  0  0  0  0  0  0  2  0  0  0  0
   -0.3572    1.1822    0.0000 O   0  0  0  0  0  0  0  2  0  0  0  0
   -1.0717   -0.0553    0.0000 C   0  0  0  0  0  0  0  2  0  0  0  0
   -1.7862    0.3572    0.0000 C   0  0  0  0  0  0  0  2  0  0  0  0
   -1.7862    1.1822    0.0000 C   0  0  0  0  0  0  0  2  0  0  0  0
   -2.5006   -0.0553    0.0000 O   0  0  0  0  0  0  0  2  0  0  0  0
   -2.5006   -0.8803    0.0000 C   0  0  0  0  0  0  0  2  0  0  0  0
   -1.7862   -1.2928    0.0000 C   0  0  0  0  0  0  0  2  0  0  0  0
   -1.0717   -0.8803    0.0000 S   0  0  0  0  0  0  0  2  0  0  0  0
   -0.6592   -1.5947    0.0000 O   0  0  0  0  0  0  0  2  0  0  0  0
   -0.2467   -0.8803    0.0000 O   0  0  0  0  0  0  0  2  0  0  0  0
  1  2  4  0        0
  2  3  4  0        0
  3  4  4  0        0
  4  5  4  0        0
  5  6  4  0        0
  1  6  4  0        0
  6  7  1  0        0
  7  8  1  0        0
  8  9  2  0        0
  8 10  1  0        0
 10 11  2  0        0
 11 12  1  0        0
 11 13  1  0        0
 13 14  1  0        0
 14 15  1  0        0
 15 16  1  0        0
 10 16  1  0        0
 16 17  2  0        0
 16 18  2  0        0
M  END
$$$$

CDXL12

 10 10  0  0  0  0  0  0  0  0999 V2000
    1.0717    0.4125    0.0000 O   0  0  0  0  0  0  0  2  0  0  0  0
    1.0717   -0.4125    0.0000 C   0  0  0  0  0  0  0  2  0  0  0  0
    1.7862   -0.8250    0.0000 O   0  0  0  0  0  0  0  2  0  0  0  0
    0.3572   -0.8250    0.0000 C   0  0  0  0  0  0  0  2  0  0  0  0
   -0.3572   -0.4125    0.0000 C   0  0  0  0  0  0  0  2  0  0  0  0
   -1.0717   -0.8250    0.0000 C   0  0  0  0  0  0  0  2  0  0  0  0
   -1.7862   -0.4125    0.0000 C   0  0  0  0  0  0  0  2  0  0  0  0
   -1.7862    0.4125    0.0000 C   0  0  0  0  0  0  0  2  0  0  0  0
   -1.0717    0.8250    0.0000 C   0  0  0  0  0  0  0  2  0  0  0  0
   -0.3572    0.4125    0.0000 C   0  0  0  0  0  0  0  2  0  0  0  0
  1  2  2  0        0
  2  3  1  0        0
  2  4  1  0        0
  4  5  1  0        0
  5  6  1  0        0
  6  7  1  0        0
  7  8  1  0        0
  8  9  1  0        0
  9 10  1  0        0
  5 10  1  0        0
M  END
$$$$

CDXL12

  6  5  0  0  0  0  0  0  0  0999 V2000
    1.0717    0.2062    0.0000 C   0  0  0  0  0  0  0  2  0  0  0  0
    0.3572   -0.2062    0.0000 C   0  0  0  0  0  0  0  2  0  0  0  0
    0.3572   -1.0313    0.0000 O   0  0  0  0  0  0  0  2  0  0  0  0
   -0.3572    0.2062    0.0000 C   0  0  0  0  0  0  0  2  0  0  0  0
   -0.3572    1.0313    0.0000 O   0  0  0  0  0  0  0  2  0  0  0  0
   -1.0717   -0.2062    0.0000 C   0  0  0  0  0  0  0  2  0  0  0  0
  1  2  1  0        0
  2  3  1  0        0
  2  4  1  0        0
  4  5  1  0        0
  4  6  1  0        0
M  END
$$$$

CDXL12

 11 10  0  0  0  0  0  0  0  0999 V2000
   -2.8579   -0.6187    0.0000 O   0  0  0  0  0  0  0  2  0  0  0  0
   -2.1434   -0.2062    0.0000 C   0  0  0  0  0  0  0  2  0  0  0  0
   -1.4289   -0.6187    0.0000 C   0  0  0  0  0  0  0  2  0  0  0  0
   -0.7145   -0.2062    0.0000 C   0  0  0  0  0  0  0  2  0  0  0  0
    0.0000   -0.6187    0.0000 C   0  0  0  0  0  0  0  2  0  0  0  0
    0.7145   -0.2062    0.0000 C   0  0  0  0  0  0  0  2  0  0  0  0
    1.4289   -0.6187    0.0000 C   0  0  0  0  0  0  0  2  0  0  0  0
    2.1434   -0.2062    0.0000 C   0  0  0  0  0  0  0  2  0  0  0  0
    2.1434    0.6187    0.0000 C   0  0  0  0  0  0  0  2  0  0  0  0
    2.8579   -0.6187    0.0000 C   0  0  0  0  0  0  0  2  0  0  0  0
   -0.7145    0.6187    0.0000 C   0  0  0  0  0  0  0  2  0  0  0  0
  1  2  2  0        0
  2  3  1  0        0
  3  4  2  0        0
  4  5  1  0        0
  5  6  1  0        0
  6  7  1  0        0
  7  8  2  0        0
  8  9  1  0        0
  8 10  1  0        0
  4 11  1  0        0
M  END
$$$$

CDXL12

 14 14  0  0  0  0  0  0  0  0999 V2000
   -0.7590    0.6942    0.0000 C   0  0  0  0  0  0  0  2  0  0  0  0
   -0.1459    0.1422    0.0000 C   0  0  0  0  0  0  0  2  0  0  0  0
    0.0256    0.9492    0.0000 C   0  0  0  0  0  0  0  2  0  0  0  0
    0.6387   -0.1127    0.0000 C   0  0  0  0  0  0  0  2  0  0  0  0
    0.6387   -0.9377    0.0000 C   0  0  0  0  0  0  0  2  0  0  0  0
   -0.1459   -1.1927    0.0000 C   0  0  0  0  0  0  0  2  0  0  0  0
   -0.6309   -0.5252    0.0000 C   0  0  0  0  0  0  0  2  0  0  0  0
   -1.3453   -0.9377    0.0000 C   0  0  0  0  0  0  0  2  0  0  0  0
   -1.3453   -0.1127    0.0000 C   0  0  0  0  0  0  0  2  0  0  0  0
   -2.0598   -0.5252    0.0000 O   0  0  0  0  0  0  0  2  0  0  0  0
   -1.3453    0.7123    0.0000 O   0  0  0  0  0  0  0  2  0  0  0  0
    1.3061    0.3722    0.0000 C   0  0  0  0  0  0  0  2  0  0  0  0
    2.0598    0.0366    0.0000 O   0  0  0  0  0  0  0  2  0  0  0  0
    1.2199    1.1927    0.0000 O   0  0  0  0  0  0  0  2  0  0  0  0
  1  2  1  0        0
  2  3  1  0        0
  2  4  1  0        0
  4  5  1  0        0
  5  6  1  0        0
  6  7  1  0        0
  2  7  1  0        0
  7  8  1  0        0
  7  9  1  0        0
  9 10  1  0        0
  9 11  2  0        0
  4 12  1  0        0
 12 13  1  0        0
 12 14  2  0        0
M  END
$$$$

CDXL12

 15 17  0  0  0  0  0  0  0  0999 V2000
   -2.4299   -0.0493    0.0000 Cl  0  0  0  0  0  0  0  2  0  0  0  0
   -1.6230   -0.2208    0.0000 C   0  0  0  0  0  0  0  2  0  0  0  0
   -1.3680   -1.0054    0.0000 C   0  0  0  0  0  0  0  2  0  0  0  0
   -0.5610   -1.1769    0.0000 C   0  0  0  0  0  0  0  2  0  0  0  0
   -0.0090   -0.5638    0.0000 C   0  0  0  0  0  0  0  2  0  0  0  0
   -0.2640    0.2208    0.0000 C   0  0  0  0  0  0  0  2  0  0  0  0
   -1.0709    0.3923    0.0000 C   0  0  0  0  0  0  0  2  0  0  0  0
    0.4035    0.7057    0.0000 O   0  0  0  0  0  0  0  2  0  0  0  0
    1.0709    0.2208    0.0000 C   0  0  0  0  0  0  0  2  0  0  0  0
    1.8779    0.3923    0.0000 C   0  0  0  0  0  0  0  2  0  0  0  0
    2.1328    1.1769    0.0000 Cl  0  0  0  0  0  0  0  2  0  0  0  0
    2.4299   -0.2208    0.0000 C   0  0  0  0  0  0  0  2  0  0  0  0
    2.1750   -1.0054    0.0000 C   0  0  0  0  0  0  0  2  0  0  0  0
    1.3680   -1.1769    0.0000 C   0  0  0  0  0  0  0  2  0  0  0  0
    0.8160   -0.5638    0.0000 C   0  0  0  0  0  0  0  2  0  0  0  0
  1  2  1  0        0
  2  3  4  0        0
  3  4  4  0        0
  4  5  4  0        0
  5  6  4  0        0
  6  7  4  0        0
  2  7  4  0        0
  6  8  4  0        0
  8  9  4  0        0
  9 10  4  0        0
 10 11  1  0        0
 10 12  4  0        0
 12 13  4  0        0
 13 14  4  0        0
 14 15  4  0        0
  5 15  4  0        0
  9 15  4  0        0
M  END
$$$$

CDXL12

 11 11  0  0  0  0  0  0  0  0999 V2000
   -1.0717    1.2375    0.0000 O   0  0  0  0  0  0  0  2  0  0  0  0
   -1.0717    0.4125    0.0000 N   0  0  0  0  0  0  0  2  0  0  0  0
   -1.7862   -0.0000    0.0000 O   0  0  0  0  0  0  0  2  0  0  0  0
   -0.3572   -0.0000    0.0000 C   0  0  0  0  0  0  0  2  0  0  0  0
   -0.3572   -0.8250    0.0000 C   0  0  0  0  0  0  0  2  0  0  0  0
    0.3572   -1.2375    0.0000 C   0  0  0  0  0  0  0  2  0  0  0  0
    1.0717   -0.8250    0.0000 C   0  0  0  0  0  0  0  2  0  0  0  0
    1.0717    0.0000    0.0000 C   0  0  0  0  0  0  0  2  0  0  0  0
    1.7862    0.4125    0.0000 O   0  0  0  0  0  0  0  2  0  0  0  0
    0.3572    0.4125    0.0000 C   0  0  0  0  0  0  0  2  0  0  0  0
    1.7862   -1.2375    0.0000 C   0  0  0  0  0  0  0  2  0  0  0  0
  1  2  2  0        0
  2  3  2  0        0
  2  4  1  0        0
  4  5  4  0        0
  5  6  4  0        0
  6  7  4  0        0
  7  8  4  0        0
  8  9  1  0        0
  8 10  4  0        0
  4 10  4  0        0
  7 11  1  0        0
M  END
$$$$

CDXL12

 15 15  0  0  0  0  0  0  0  0999 V2000
    2.8579   -0.4125    0.0000 C   0  0  0  0  0  0  0  2  0  0  0  0
    2.1434    0.0000    0.0000 C   0  0  0  0  0  0  0  2  0  0  0  0
    1.4289   -0.4125    0.0000 C   0  0  0  0  0  0  0  2  0  0  0  0
    1.4289   -1.2375    0.0000 C   0  0  0  0  0  0  0  2  0  0  0  0
    0.7145   -0.0000    0.0000 C   0  0  0  0  0  0  0  2  0  0  0  0
    0.7145    0.8250    0.0000 C   0  0  0  0  0  0  0  2  0  0  0  0
    0.0000    1.2375    0.0000 C   0  0  0  0  0  0  0  2  0  0  0  0
   -0.7145    0.8250    0.0000 C   0  0  0  0  0  0  0  2  0  0  0  0
   -0.7145   -0.0000    0.0000 C   0  0  0  0  0  0  0  2  0  0  0  0
   -1.4289   -0.4125    0.0000 C   0  0  0  0  0  0  0  2  0  0  0  0
   -1.4289   -1.2375    0.0000 C   0  0  0  0  0  0  0  2  0  0  0  0
   -2.1434   -0.0000    0.0000 C   0  0  0  0  0  0  0  2  0  0  0  0
   -2.8579   -0.4125    0.0000 C   0  0  0  0  0  0  0  2  0  0  0  0
    0.0000   -0.4125    0.0000 C   0  0  0  0  0  0  0  2  0  0  0  0
    0.0000   -1.2375    0.0000 O   0  0  0  0  0  0  0  2  0  0  0  0
  1  2  1  0        0
  2  3  1  0        0
  3  4  1  0        0
  3  5  1  0        0
  5  6  4  0        0
  6  7  4  0        0
  7  8  4  0        0
  8  9  4  0        0
  9 10  1  0        0
 10 11  1  0        0
 10 12  1  0        0
 12 13  1  0        0
  9 14  4  0        0
  5 14  4  0        0
 14 15  1  0        0
M  END
$$$$

CDXL12

  8  7  0  0  0  0  0  0  0  0999 V2000
   -2.1434   -0.6187    0.0000 Cl  0  0  0  0  0  0  0  2  0  0  0  0
   -1.4289   -0.2062    0.0000 C   0  0  0  0  0  0  0  2  0  0  0  0
   -0.7145   -0.6187    0.0000 C   0  0  0  0  0  0  0  2  0  0  0  0
    0.0000   -0.2062    0.0000 S   0  0  0  0  0  0  0  2  0  0  0  0
    0.0000    0.6188    0.0000 O   0  0  0  0  0  0  0  2  0  0  0  0
    0.7145   -0.6188    0.0000 C   0  0  0  0  0  0  0  2  0  0  0  0
    1.4289   -0.2062    0.0000 C   0  0  0  0  0  0  0  2  0  0  0  0
    2.1434   -0.6188    0.0000 Cl  0  0  0  0  0  0  0  2  0  0  0  0
  1  2  1  0        0
  2  3  1  0        0
  3  4  1  0        0
  4  5  2  0        0
  4  6  1  0        0
  6  7  1  0        0
  7  8  1  0        0
M  END
$$$$

CDXL12

 14 14  0  0  0  0  0  0  0  0999 V2000
    1.4289    1.2375    0.0000 O   0  0  0  0  0  0  0  2  0  0  0  0
    1.4289    0.4125    0.0000 C   0  0  0  0  0  0  0  2  0  0  0  0
    2.1434   -0.0000    0.0000 O   0  0  0  0  0  0  0  2  0  0  0  0
    2.8579    0.4125    0.0000 Na  0  0  0  0  0  0  0  2  0  0  0  0
    0.7145   -0.0000    0.0000 C   0  0  0  0  0  0  0  2  0  0  0  0
    0.0000    0.4125    0.0000 O   0  0  0  0  0  0  0  2  0  0  0  0
   -0.7145   -0.0000    0.0000 C   0  0  0  0  0  0  0  2  0  0  0  0
   -0.7145   -0.8250    0.0000 C   0  0  0  0  0  0  0  2  0  0  0  0
   -1.4289   -1.2375    0.0000 C   0  0  0  0  0  0  0  2  0  0  0  0
   -2.1434   -0.8250    0.0000 C   0  0  0  0  0  0  0  2  0  0  0  0
   -2.1434   -0.0000    0.0000 C   0  0  0  0  0  0  0  2  0  0  0  0
   -2.8579    0.4125    0.0000 Cl  0  0  0  0  0  0  0  2  0  0  0  0
   -1.4289    0.4125    0.0000 C   0  0  0  0  0  0  0  2  0  0  0  0
    0.7145   -0.8250    0.0000 C   0  0  0  0  0  0  0  2  0  0  0  0
  1  2  2  0        0
  2  3  1  0        0
  3  4  1  0        0
  2  5  1  0        0
  5  6  1  0        0
  6  7  1  0        0
  7  8  4  0        0
  8  9  4  0        0
  9 10  4  0        0
 10 11  4  0        0
 11 12  1  0        0
 11 13  4  0        0
  7 13  4  0        0
  5 14  1  0        0
M  END
$$$$

CDXL12

 16 15  0  0  0  0  0  0  0  0999 V2000
    2.8579   -0.2062    0.0000 C   0  0  0  0  0  0  0  2  0  0  0  0
    2.1434   -0.6188    0.0000 C   0  0  0  0  0  0  0  2  0  0  0  0
    1.4289   -0.2062    0.0000 S   0  0  0  0  0  0  0  2  0  0  0  0
    1.4289    0.6187    0.0000 O   0  0  0  0  0  0  0  2  0  0  0  0
    0.7145   -0.6188    0.0000 C   0  0  0  0  0  0  0  2  0  0  0  0
    0.0000   -0.2062    0.0000 S   0  0  0  0  0  0  0  2  0  0  0  0
   -0.7145   -0.6188    0.0000 P   0  0  0  0  0  0  0  2  0  0  0  0
   -0.7145   -1.4438    0.0000 S   0  0  0  0  0  0  0  2  0  0  0  0
   -1.4289   -0.2062    0.0000 O   0  0  0  0  0  0  0  2  0  0  0  0
   -2.1434   -0.6188    0.0000 C   0  0  0  0  0  0  0  2  0  0  0  0
   -2.1434   -1.4438    0.0000 C   0  0  0  0  0  0  0  2  0  0  0  0
   -2.8579   -0.2062    0.0000 C   0  0  0  0  0  0  0  2  0  0  0  0
   -0.7145    0.2062    0.0000 O   0  0  0  0  0  0  0  2  0  0  0  0
   -1.4289    0.6188    0.0000 C   0  0  0  0  0  0  0  2  0  0  0  0
   -2.1434    0.2062    0.0000 C   0  0  0  0  0  0  0  2  0  0  0  0
   -1.4289    1.4438    0.0000 C   0  0  0  0  0  0  0  2  0  0  0  0
  1  2  1  0        0
  2  3  1  0        0
  3  4  2  0        0
  3  5  1  0        0
  5  6  1  0        0
  6  7  1  0        0
  7  8  2  0        0
  7  9  1  0        0
  9 10  1  0        0
 10 11  1  0        0
 10 12  1  0        0
  7 13  1  0        0
 13 14  1  0        0
 14 15  1  0        0
 14 16  1  0        0
M  END
$$$$

CDXL12

 22 25  0  0  0  0  0  0  0  0999 V2000
   -0.3572   -0.4125    0.0000 O   0  0  0  0  0  0  0  2  0  0  0  0
   -0.3572    0.4125    0.0000 C   0  0  0  0  0  0  0  2  0  0  0  0
    0.3572    0.8250    0.0000 C   0  0  0  0  0  0  0  2  0  0  0  0
    1.0717    0.4125    0.0000 C   0  0  0  0  0  0  0  2  0  0  0  0
    1.7862    0.8250    0.0000 C   0  0  0  0  0  0  0  2  0  0  0  0
    2.5006    0.4125    0.0000 C   0  0  0  0  0  0  0  2  0  0  0  0
    2.5006   -0.4125    0.0000 C   0  0  0  0  0  0  0  2  0  0  0  0
    1.7862   -0.8250    0.0000 C   0  0  0  0  0  0  0  2  0  0  0  0
    1.7862   -1.6500    0.0000 C   0  0  0  0  0  0  0  2  0  0  0  0
    1.0717   -2.0625    0.0000 C   0  0  0  0  0  0  0  2  0  0  0  0
    0.3572   -1.6500    0.0000 C   0  0  0  0  0  0  0  2  0  0  0  0
    0.3572   -0.8250    0.0000 C   0  0  0  0  0  0  0  2  0  0  0  0
    1.0717   -0.4125    0.0000 C   0  0  0  0  0  0  0  2  0  0  0  0
    0.3572    1.6500    0.0000 C   0  0  0  0  0  0  0  2  0  0  0  0
    1.0717    2.0625    0.0000 O   0  0  0  0  0  0  0  2  0  0  0  0
   -0.3572    2.0625    0.0000 O   0  0  0  0  0  0  0  2  0  0  0  0
   -1.0717    1.6500    0.0000 C   0  0  0  0  0  0  0  2  0  0  0  0
   -1.7862    2.0625    0.0000 C   0  0  0  0  0  0  0  2  0  0  0  0
   -2.5006    1.6500    0.0000 C   0  0  0  0  0  0  0  2  0  0  0  0
   -2.5006    0.8250    0.0000 C   0  0  0  0  0  0  0  2  0  0  0  0
   -1.7862    0.4125    0.0000 C   0  0  0  0  0  0  0  2  0  0  0  0
   -1.0717    0.8250    0.0000 C   0  0  0  0  0  0  0  2  0  0  0  0
  1  2  1  0        0
  2  3  2  0        0
  3  4  1  0        0
  4  5  1  0        0
  5  6  1  0        0
  6  7  1  0        0
  7  8  1  0        0
  8  9  4  0        0
  9 10  4  0        0
 10 11  4  0        0
 11 12  4  0        0
 12 13  4  0        0
  4 13  1  0        0
  8 13  4  0        0
  3 14  1  0        0
 14 15  2  0        0
 14 16  1  0        0
 16 17  1  0        0
 17 18  4  0        0
 18 19  4  0        0
 19 20  4  0        0
 20 21  4  0        0
 21 22  4  0        0
  2 22  1  0        0
 17 22  4  0        0
M  END
$$$$

CDXL12

 14 14  0  0  0  0  0  0  0  0999 V2000
    1.7862    1.2375    0.0000 C   0  0  0  0  0  0  0  2  0  0  0  0
    1.0717    0.8250    0.0000 C   0  0  0  0  0  0  0  2  0  0  0  0
    1.0717   -0.0000    0.0000 C   0  0  0  0  0  0  0  2  0  0  0  0
    1.7862   -0.4125    0.0000 Cl  0  0  0  0  0  0  0  2  0  0  0  0
    0.3572   -0.4125    0.0000 C   0  0  0  0  0  0  0  2  0  0  0  0
    0.3572   -1.2375    0.0000 O   0  0  0  0  0  0  0  2  0  0  0  0
   -0.3572   -0.0000    0.0000 N   0  0  0  0  0  0  0  2  0  0  0  0
   -1.0717   -0.4125    0.0000 C   0  0  0  0  0  0  0  2  0  0  0  0
   -1.0717   -1.2375    0.0000 C   0  0  0  0  0  0  0  2  0  0  0  0
   -1.7862   -0.8250    0.0000 C   0  0  0  0  0  0  0  2  0  0  0  0
   -1.7862   -0.0000    0.0000 C   0  0  0  0  0  0  0  2  0  0  0  0
   -0.3572    0.8250    0.0000 C   0  0  0  0  0  0  0  2  0  0  0  0
   -1.0717    1.2375    0.0000 O   0  0  0  0  0  0  0  2  0  0  0  0
    0.3572    1.2375    0.0000 N   0  0  0  0  0  0  0  2  0  0  0  0
  1  2  1  0        0
  2  3  2  0        0
  3  4  1  0        0
  3  5  1  0        0
  5  6  2  0        0
  5  7  1  0        0
  7  8  1  0        0
  8  9  1  0        0
  8 10  1  0        0
  8 11  1  0        0
  7 12  1  0        0
 12 13  2  0        0
 12 14  1  0        0
  2 14  1  0        0
M  END
$$$$

CDXL12

 15 15  0  0  0  0  0  0  0  0999 V2000
   -0.7145   -0.0000    0.0000 N   0  0  0  0  0  0  0  2  0  0  0  0
   -0.7145   -0.8250    0.0000 C   0  0  0  0  0  0  0  2  0  0  0  0
    0.0000   -1.2375    0.0000 N   0  0  0  0  0  0  0  2  0  0  0  0
    0.7145   -0.8250    0.0000 C   0  0  0  0  0  0  0  2  0  0  0  0
    0.7145   -0.0000    0.0000 N   0  0  0  0  0  0  0  2  0  0  0  0
    0.0000    0.4125    0.0000 C   0  0  0  0  0  0  0  2  0  0  0  0
    0.0000    1.2375    0.0000 Cl  0  0  0  0  0  0  0  2  0  0  0  0
    1.4289   -1.2375    0.0000 N   0  0  0  0  0  0  0  2  0  0  0  0
    2.1434   -0.8250    0.0000 C   0  0  0  0  0  0  0  2  0  0  0  0
    2.1434    0.0000    0.0000 C   0  0  0  0  0  0  0  2  0  0  0  0
    2.8579   -0.4125    0.0000 C   0  0  0  0  0  0  0  2  0  0  0  0
    2.8579   -1.2375    0.0000 C   0  0  0  0  0  0  0  2  0  0  0  0
   -1.4289   -1.2375    0.0000 N   0  0  0  0  0  0  0  2  0  0  0  0
   -2.1434   -0.8250    0.0000 C   0  0  0  0  0  0  0  2  0  0  0  0
   -2.8579   -1.2375    0.0000 C   0  0  0  0  0  0  0  2  0  0  0  0
  1  2  4  0        0
  2  3  4  0        0
  3  4  4  0        0
  4  5  4  0        0
  5  6  4  0        0
  1  6  4  0        0
  6  7  1  0        0
  4  8  1  0        0
  8  9  1  0        0
  9 10  1  0        0
  9 11  1  0        0
  9 12  1  0        0
  2 13  1  0        0
 13 14  1  0        0
 14 15  1  0        0
M  END
$$$$

CDXL12

 10  9  0  0  0  0  0  0  0  0999 V2000
    0.7145    0.6187    0.0000 O   0  0  0  0  0  0  0  2  0  0  0  0
    0.7145   -0.2062    0.0000 C   0  0  0  0  0  0  0  2  0  0  0  0
   -0.0000   -0.6187    0.0000 C   0  0  0  0  0  0  0  2  0  0  0  0
   -0.7145   -0.2062    0.0000 C   0  0  0  0  0  0  0  2  0  0  0  0
   -1.4289   -0.6187    0.0000 C   0  0  0  0  0  0  0  2  0  0  0  0
   -2.1434   -0.2062    0.0000 C   0  0  0  0  0  0  0  2  0  0  0  0
   -2.8579   -0.6187    0.0000 C   0  0  0  0  0  0  0  2  0  0  0  0
    1.4289   -0.6187    0.0000 C   0  0  0  0  0  0  0  2  0  0  0  0
    2.1434   -0.2062    0.0000 C   0  0  0  0  0  0  0  2  0  0  0  0
    2.8579   -0.6187    0.0000 C   0  0  0  0  0  0  0  2  0  0  0  0
  1  2  1  0        0
  2  3  1  0        0
  3  4  1  0        0
  4  5  1  0        0
  5  6  1  0        0
  6  7  1  0        0
  2  8  1  0        0
  8  9  1  0        0
  9 10  1  0        0
M  END
$$$$

CDXL12

  6  5  0  0  0  0  0  0  0  0999 V2000
    0.7145    0.6187    0.0000 O   0  0  0  0  0  0  0  2  0  0  0  0
    0.7145   -0.2062    0.0000 C   0  0  0  0  0  0  0  2  0  0  0  0
    0.0000   -0.6187    0.0000 C   0  0  0  0  0  0  0  2  0  0  0  0
   -0.7145   -0.2062    0.0000 C   0  0  0  0  0  0  0  2  0  0  0  0
   -1.4289   -0.6187    0.0000 C   0  0  0  0  0  0  0  2  0  0  0  0
    1.4289   -0.6187    0.0000 C   0  0  0  0  0  0  0  2  0  0  0  0
  1  2  1  0        0
  2  3  1  0        0
  3  4  1  0        0
  4  5  1  0        0
  2  6  1  0        0
M  END
$$$$

CDXL12

 30 34  0  0  0  0  0  0  0  0999 V2000
    0.7562   -1.7551    0.0000 O   0  0  0  0  0  0  0  2  0  0  0  0
    0.2713   -1.0877    0.0000 C   0  0  0  0  0  0  0  2  0  0  0  0
    0.5262   -0.3030    0.0000 O   0  0  0  0  0  0  0  2  0  0  0  0
   -0.1412    0.1819    0.0000 C   0  0  0  0  0  0  0  2  0  0  0  0
   -0.8087   -0.3030    0.0000 C   0  0  0  0  0  0  0  2  0  0  0  0
   -0.5537   -1.0877    0.0000 C   0  0  0  0  0  0  0  2  0  0  0  0
   -1.1058   -1.7007    0.0000 C   0  0  0  0  0  0  0  2  0  0  0  0
   -0.8508   -2.4854    0.0000 O   0  0  0  0  0  0  0  2  0  0  0  0
   -0.0438   -2.6569    0.0000 C   0  0  0  0  0  0  0  2  0  0  0  0
   -1.9127   -1.5292    0.0000 C   0  0  0  0  0  0  0  2  0  0  0  0
   -2.4648   -2.1423    0.0000 O   0  0  0  0  0  0  0  2  0  0  0  0
   -3.2717   -1.9708    0.0000 C   0  0  0  0  0  0  0  2  0  0  0  0
   -2.1677   -0.7446    0.0000 C   0  0  0  0  0  0  0  2  0  0  0  0
   -1.6156   -0.1315    0.0000 C   0  0  0  0  0  0  0  2  0  0  0  0
   -0.1412    1.0069    0.0000 C   0  0  0  0  0  0  0  2  0  0  0  0
    0.5732    1.4194    0.0000 C   0  0  0  0  0  0  0  2  0  0  0  0
    1.2877    1.0069    0.0000 C   0  0  0  0  0  0  0  2  0  0  0  0
    1.2877    0.1819    0.0000 O   0  0  0  0  0  0  0  2  0  0  0  0
    2.0022   -0.2306    0.0000 C   0  0  0  0  0  0  0  2  0  0  0  0
    2.0022    1.4194    0.0000 C   0  0  0  0  0  0  0  2  0  0  0  0
    2.7868    1.1645    0.0000 O   0  0  0  0  0  0  0  2  0  0  0  0
    3.2717    1.8319    0.0000 C   0  0  0  0  0  0  0  2  0  0  0  0
    2.7868    2.4993    0.0000 O   0  0  0  0  0  0  0  2  0  0  0  0
    2.0022    2.2444    0.0000 C   0  0  0  0  0  0  0  2  0  0  0  0
    1.2877    2.6569    0.0000 C   0  0  0  0  0  0  0  2  0  0  0  0
    0.5732    2.2444    0.0000 C   0  0  0  0  0  0  0  2  0  0  0  0
   -0.1412    2.6569    0.0000 C   0  0  0  0  0  0  0  2  0  0  0  0
   -0.8557    2.2444    0.0000 C   0  0  0  0  0  0  0  2  0  0  0  0
   -0.8557    1.4194    0.0000 N   0  0  0  0  0  0  0  2  0  0  0  0
   -1.5702    1.0069    0.0000 C   0  0  0  0  0  0  0  2  0  0  0  0
  1  2  2  0        0
  2  3  1  0        0
  3  4  1  0        0
  4  5  1  0        0
  5  6  4  0        0
  2  6  1  0        0
  6  7  4  0        0
  7  8  1  0        0
  8  9  1  0        0
  7 10  4  0        0
 10 11  1  0        0
 11 12  1  0        0
 10 13  4  0        0
 13 14  4  0        0
  5 14  4  0        0
  4 15  1  0        0
 15 16  1  0        0
 16 17  4  0        0
 17 18  1  0        0
 18 19  1  0        0
 17 20  4  0        0
 20 21  1  0        0
 21 22  1  0        0
 22 23  1  0        0
 23 24  1  0        0
 20 24  4  0        0
 24 25  4  0        0
 25 26  4  0        0
 16 26  4  0        0
 26 27  1  0        0
 27 28  1  0        0
 28 29  1  0        0
 15 29  1  0        0
 29 30  1  0        0
M  END
$$$$

CDXL12

 16 17  0  0  0  0  0  0  0  0999 V2000
   -0.0553   -0.2062    0.0000 C   0  0  0  0  0  0  0  2  0  0  0  0
    0.6592    0.2062    0.0000 C   0  0  0  0  0  0  0  2  0  0  0  0
    0.6592    1.0313    0.0000 S   0  0  0  0  0  0  0  2  0  0  0  0
    1.4842    1.0313    0.0000 O   0  0  0  0  0  0  0  2  0  0  0  0
   -0.1658    1.0313    0.0000 O   0  0  0  0  0  0  0  2  0  0  0  0
    0.6592    1.8563    0.0000 O   0  0  0  0  0  0  0  2  0  0  0  0
    1.3737    2.2687    0.0000 Na  0  0  0  0  0  0  0  2  0  0  0  0
    1.3737   -0.2063    0.0000 C   0  0  0  0  0  0  0  2  0  0  0  0
    1.3737   -1.0313    0.0000 C   0  0  0  0  0  0  0  2  0  0  0  0
    0.6592   -1.4438    0.0000 C   0  0  0  0  0  0  0  2  0  0  0  0
    0.6592   -2.2687    0.0000 O   0  0  0  0  0  0  0  2  0  0  0  0
   -0.0553   -1.0313    0.0000 C   0  0  0  0  0  0  0  2  0  0  0  0
   -0.7697   -1.4438    0.0000 C   0  0  0  0  0  0  0  2  0  0  0  0
   -1.4842   -1.0312    0.0000 C   0  0  0  0  0  0  0  2  0  0  0  0
   -1.4842   -0.2062    0.0000 C   0  0  0  0  0  0  0  2  0  0  0  0
   -0.7697    0.2062    0.0000 C   0  0  0  0  0  0  0  2  0  0  0  0
  1  2  4  0        0
  2  3  1  0        0
  3  4  2  0        0
  3  5  2  0        0
  3  6  1  0        0
  6  7  1  0        0
  2  8  4  0        0
  8  9  4  0        0
  9 10  4  0        0
 10 11  1  0        0
 10 12  4  0        0
  1 12  4  0        0
 12 13  4  0        0
 13 14  4  0        0
 14 15  4  0        0
 15 16  4  0        0
  1 16  4  0        0
M  END
$$$$

CDXL12

  9  9  0  0  0  0  0  0  0  0999 V2000
    1.4289    1.2375    0.0000 O   0  0  0  0  0  0  0  2  0  0  0  0
    0.7145    0.8250    0.0000 C   0  0  0  0  0  0  0  2  0  0  0  0
    0.7145   -0.0000    0.0000 C   0  0  0  0  0  0  0  2  0  0  0  0
    0.0000   -0.4125    0.0000 C   0  0  0  0  0  0  0  2  0  0  0  0
    0.0000   -1.2375    0.0000 O   0  0  0  0  0  0  0  2  0  0  0  0
   -0.7145   -0.0000    0.0000 C   0  0  0  0  0  0  0  2  0  0  0  0
   -0.7145    0.8250    0.0000 C   0  0  0  0  0  0  0  2  0  0  0  0
   -1.4289    1.2375    0.0000 O   0  0  0  0  0  0  0  2  0  0  0  0
    0.0000    1.2375    0.0000 C   0  0  0  0  0  0  0  2  0  0  0  0
  1  2  1  0        0
  2  3  4  0        0
  3  4  4  0        0
  4  5  1  0        0
  4  6  4  0        0
  6  7  4  0        0
  7  8  1  0        0
  7  9  4  0        0
  2  9  4  0        0
M  END
$$$$

CDXL12

 23 25  0  0  0  0  0  0  0  0999 V2000
    4.6441    2.0625    0.0000 O   0  0  0  0  0  0  0  2  0  0  0  0
    3.9296    1.6500    0.0000 C   0  0  0  0  0  0  0  2  0  0  0  0
    3.9296    0.8250    0.0000 C   0  0  0  0  0  0  0  2  0  0  0  0
    3.2151    0.4125    0.0000 C   0  0  0  0  0  0  0  2  0  0  0  0
    2.5006    0.8250    0.0000 C   0  0  0  0  0  0  0  2  0  0  0  0
    1.7862    0.4125    0.0000 N   0  0  0  0  0  0  0  2  0  0  0  0
    1.0717    0.8250    0.0000 N   0  0  0  0  0  0  0  2  0  0  0  0
    0.3572    0.4125    0.0000 C   0  0  0  0  0  0  0  2  0  0  0  0
    0.3572   -0.4125    0.0000 C   0  0  0  0  0  0  0  2  0  0  0  0
   -0.3572   -0.8250    0.0000 C   0  0  0  0  0  0  0  2  0  0  0  0
   -1.0717   -0.4125    0.0000 C   0  0  0  0  0  0  0  2  0  0  0  0
   -1.7862   -0.8250    0.0000 N   0  0  0  0  0  0  0  2  0  0  0  0
   -2.5006   -0.4125    0.0000 N   0  0  0  0  0  0  0  2  0  0  0  0
   -3.2151   -0.8250    0.0000 C   0  0  0  0  0  0  0  2  0  0  0  0
   -3.2151   -1.6500    0.0000 C   0  0  0  0  0  0  0  2  0  0  0  0
   -3.9296   -2.0625    0.0000 C   0  0  0  0  0  0  0  2  0  0  0  0
   -4.6441   -1.6500    0.0000 C   0  0  0  0  0  0  0  2  0  0  0  0
   -4.6441   -0.8250    0.0000 C   0  0  0  0  0  0  0  2  0  0  0  0
   -3.9296   -0.4125    0.0000 C   0  0  0  0  0  0  0  2  0  0  0  0
   -1.0717    0.4125    0.0000 C   0  0  0  0  0  0  0  2  0  0  0  0
   -0.3572    0.8250    0.0000 C   0  0  0  0  0  0  0  2  0  0  0  0
    2.5006    1.6500    0.0000 C   0  0  0  0  0  0  0  2  0  0  0  0
    3.2151    2.0625    0.0000 C   0  0  0  0  0  0  0  2  0  0  0  0
  1  2  1  0        0
  2  3  4  0        0
  3  4  4  0        0
  4  5  4  0        0
  5  6  1  0        0
  6  7  2  0        0
  7  8  1  0        0
  8  9  4  0        0
  9 10  4  0        0
 10 11  4  0        0
 11 12  1  0        0
 12 13  2  0        0
 13 14  1  0        0
 14 15  4  0        0
 15 16  4  0        0
 16 17  4  0        0
 17 18  4  0        0
 18 19  4  0        0
 14 19  4  0        0
 11 20  4  0        0
 20 21  4  0        0
  8 21  4  0        0
  5 22  4  0        0
 22 23  4  0        0
  2 23  4  0        0
M  END
$$$$

CDXL12

  7  6  0  0  0  0  0  0  0  0999 V2000
    1.4289   -0.1510    0.0000 C   0  0  0  0  0  0  0  2  0  0  0  0
    0.7145   -0.5635    0.0000 C   0  0  0  0  0  0  0  2  0  0  0  0
    0.0000   -0.1510    0.0000 N   0  0  0  0  0  0  0  2  0  0  0  0
   -0.7145   -0.5635    0.0000 C   0  0  0  0  0  0  0  2  0  0  0  0
   -1.4289   -0.1510    0.0000 C   0  0  0  0  0  0  0  2  0  0  0  0
    0.4125    0.5635    0.0000 H   0  0  0  0  0  0  0  2  0  0  0  0
   -0.4125    0.5635    0.0000 Br  0  0  0  0  0  0  0  2  0  0  0  0
  1  2  1  0        0
  2  3  1  0        0
  3  4  1  0        0
  4  5  1  0        0
  3  6  1  0        0
  3  7  1  0        0
M  END
$$$$

CDXL12

  8  7  0  0  0  0  0  0  0  0999 V2000
    1.7862   -0.2062    0.0000 O   0  0  0  0  0  0  0  2  0  0  0  0
    1.0717   -0.6188    0.0000 C   0  0  0  0  0  0  0  2  0  0  0  0
    0.3572   -0.2062    0.0000 C   0  0  0  0  0  0  0  2  0  0  0  0
    0.3572    0.6187    0.0000 C   0  0  0  0  0  0  0  2  0  0  0  0
   -0.3572   -0.6188    0.0000 C   0  0  0  0  0  0  0  2  0  0  0  0
   -1.0717   -0.2062    0.0000 C   0  0  0  0  0  0  0  2  0  0  0  0
   -1.7862   -0.6187    0.0000 C   0  0  0  0  0  0  0  2  0  0  0  0
   -1.0717    0.6188    0.0000 C   0  0  0  0  0  0  0  2  0  0  0  0
  1  2  1  0        0
  2  3  1  0        0
  3  4  1  0        0
  3  5  1  0        0
  5  6  1  0        0
  6  7  1  0        0
  6  8  1  0        0
M  END
$$$$

CDXL12

 20 20  0  0  0  0  0  0  0  0999 V2000
   -2.1434    1.6500    0.0000 C   0  0  0  0  0  0  0  2  0  0  0  0
   -1.4289    1.2375    0.0000 N   0  0  0  0  0  0  0  2  0  0  0  0
   -0.7145    1.6500    0.0000 C   0  0  0  0  0  0  0  2  0  0  0  0
   -0.7145    2.4750    0.0000 O   0  0  0  0  0  0  0  2  0  0  0  0
    0.0000    1.2375    0.0000 O   0  0  0  0  0  0  0  2  0  0  0  0
    0.0000    0.4125    0.0000 C   0  0  0  0  0  0  0  2  0  0  0  0
    0.7145    0.0000    0.0000 C   0  0  0  0  0  0  0  2  0  0  0  0
    0.7145   -0.8250    0.0000 C   0  0  0  0  0  0  0  2  0  0  0  0
    1.4289   -1.2375    0.0000 C   0  0  0  0  0  0  0  2  0  0  0  0
    0.0000   -1.2375    0.0000 C   0  0  0  0  0  0  0  2  0  0  0  0
    0.0000   -2.0625    0.0000 N   0  0  0  0  0  0  0  2  0  0  0  0
   -0.7145   -2.4750    0.0000 C   0  0  0  0  0  0  0  2  0  0  0  0
   -1.4289   -2.0625    0.0000 C   0  0  0  0  0  0  0  2  0  0  0  0
   -2.1434   -2.4750    0.0000 C   0  0  0  0  0  0  0  2  0  0  0  0
    0.7145   -2.4750    0.0000 C   0  0  0  0  0  0  0  2  0  0  0  0
    1.4289   -2.0625    0.0000 C   0  0  0  0  0  0  0  2  0  0  0  0
    2.1434   -2.4750    0.0000 C   0  0  0  0  0  0  0  2  0  0  0  0
   -0.7145   -0.8250    0.0000 C   0  0  0  0  0  0  0  2  0  0  0  0
   -1.4289   -1.2375    0.0000 C   0  0  0  0  0  0  0  2  0  0  0  0
   -0.7145    0.0000    0.0000 C   0  0  0  0  0  0  0  2  0  0  0  0
  1  2  1  0        0
  2  3  1  0        0
  3  4  2  0        0
  3  5  1  0        0
  5  6  1  0        0
  6  7  4  0        0
  7  8  4  0        0
  8  9  1  0        0
  8 10  4  0        0
 10 11  1  0        0
 11 12  1  0        0
 12 13  1  0        0
 13 14  2  0        0
 11 15  1  0        0
 15 16  1  0        0
 16 17  2  0        0
 10 18  4  0        0
 18 19  1  0        0
 18 20  4  0        0
  6 20  4  0        0
M  END
$$$$

CDXL12

 12 13  0  0  0  0  0  0  0  0999 V2000
    0.0156    0.4013    0.0000 C   0  0  0  0  0  0  0  2  0  0  0  0
    0.8002    0.6563    0.0000 S   0  0  0  0  0  0  0  2  0  0  0  0
    1.4133    1.2083    0.0000 O   0  0  0  0  0  0  0  2  0  0  0  0
    0.6287    1.4632    0.0000 O   0  0  0  0  0  0  0  2  0  0  0  0
    1.2852   -0.0112    0.0000 C   0  0  0  0  0  0  0  2  0  0  0  0
    0.8002   -0.6786    0.0000 C   0  0  0  0  0  0  0  2  0  0  0  0
    1.0552   -1.4632    0.0000 C   0  0  0  0  0  0  0  2  0  0  0  0
    0.0156   -0.4237    0.0000 C   0  0  0  0  0  0  0  2  0  0  0  0
   -0.6989   -0.8362    0.0000 C   0  0  0  0  0  0  0  2  0  0  0  0
   -1.4133   -0.4237    0.0000 C   0  0  0  0  0  0  0  2  0  0  0  0
   -1.4133    0.4013    0.0000 C   0  0  0  0  0  0  0  2  0  0  0  0
   -0.6989    0.8138    0.0000 C   0  0  0  0  0  0  0  2  0  0  0  0
  1  2  1  0        0
  2  3  2  0        0
  2  4  2  0        0
  2  5  1  0        0
  5  6  2  0        0
  6  7  1  0        0
  6  8  1  0        0
  1  8  4  0        0
  8  9  4  0        0
  9 10  4  0        0
 10 11  4  0        0
 11 12  4  0        0
  1 12  4  0        0
M  END
$$$$

CDXL12

 34 38  0  0  0  0  0  0  0  0999 V2000
    0.7145   -1.2375    0.0000 C   0  0  0  0  0  0  0  2  0  0  0  0
    0.7145   -2.0625    0.0000 C   0  0  0  0  0  0  0  2  0  0  0  0
    1.4289   -2.4750    0.0000 C   0  0  0  0  0  0  0  2  0  0  0  0
    2.1434   -2.0625    0.0000 C   0  0  0  0  0  0  0  2  0  0  0  0
    2.1434   -1.2375    0.0000 C   0  0  0  0  0  0  0  2  0  0  0  0
    2.8579   -0.8250    0.0000 H   0  0  0  0  0  0  0  2  0  0  0  0
    1.4289   -0.8250    0.0000 C   0  0  0  0  0  0  0  2  0  0  0  0
    1.4289    0.0000    0.0000 O   0  0  0  0  0  0  0  2  0  0  0  0
    0.7145    0.4125    0.0000 C   0  0  0  0  0  0  0  2  0  0  0  0
    0.7145    1.2375    0.0000 C   0  0  0  0  0  0  0  2  0  0  0  0
    1.4289    1.6500    0.0000 O   0  0  0  0  0  0  0  2  0  0  0  0
    2.1434    1.2375    0.0000 C   0  0  0  0  0  0  0  2  0  0  0  0
    2.8579    1.6500    0.0000 C   0  0  0  0  0  0  0  2  0  0  0  0
    2.8579    2.4750    0.0000 H   0  0  0  0  0  0  0  2  0  0  0  0
    3.5724    1.2375    0.0000 C   0  0  0  0  0  0  0  2  0  0  0  0
    3.5724    0.4125    0.0000 C   0  0  0  0  0  0  0  2  0  0  0  0
    2.8579    0.0000    0.0000 C   0  0  0  0  0  0  0  2  0  0  0  0
    2.1434    0.4125    0.0000 C   0  0  0  0  0  0  0  2  0  0  0  0
   -0.0000    1.6500    0.0000 C   0  0  0  0  0  0  0  2  0  0  0  0
   -0.0000    2.4750    0.0000 N   0  0  0  0  0  0  0  2  0  0  0  0
   -0.7145    1.2375    0.0000 C   0  0  0  0  0  0  0  2  0  0  0  0
   -0.7145    0.4125    0.0000 C   0  0  0  0  0  0  0  2  0  0  0  0
   -0.0000    0.0000    0.0000 C   0  0  0  0  0  0  0  2  0  0  0  0
   -0.0000   -0.8250    0.0000 N   0  0  0  0  0  0  0  2  0  0  0  0
   -1.4289    0.0000    0.0000 C   0  0  0  0  0  0  0  2  0  0  0  0
   -1.4289   -0.8250    0.0000 O   0  0  0  0  0  0  0  2  0  0  0  0
   -2.1434    0.4125    0.0000 C   0  0  0  0  0  0  0  2  0  0  0  0
   -2.8579    0.0000    0.0000 C   0  0  0  0  0  0  0  2  0  0  0  0
   -3.5724    0.4125    0.0000 C   0  0  0  0  0  0  0  2  0  0  0  0
   -3.5724    1.2375    0.0000 C   0  0  0  0  0  0  0  2  0  0  0  0
   -2.8579    1.6500    0.0000 C   0  0  0  0  0  0  0  2  0  0  0  0
   -2.1434    1.2375    0.0000 C   0  0  0  0  0  0  0  2  0  0  0  0
   -1.4289    1.6500    0.0000 C   0  0  0  0  0  0  0  2  0  0  0  0
   -1.4289    2.4750    0.0000 O   0  0  0  0  0  0  0  2  0  0  0  0
  1  2  4  0        0
  2  3  4  0        0
  3  4  4  0        0
  4  5  4  0        0
  5  6  1  0        0
  5  7  4  0        0
  1  7  4  0        0
  7  8  1  0        0
  8  9  1  0        0
  9 10  4  0        0
 10 11  1  0        0
 11 12  1  0        0
 12 13  4  0        0
 13 14  1  0        0
 13 15  4  0        0
 15 16  4  0        0
 16 17  4  0        0
 17 18  4  0        0
 12 18  4  0        0
 10 19  4  0        0
 19 20  1  0        0
 19 21  4  0        0
 21 22  4  0        0
 22 23  4  0        0
  9 23  4  0        0
 23 24  1  0        0
 22 25  1  0        0
 25 26  2  0        0
 25 27  1  0        0
 27 28  4  0        0
 28 29  4  0        0
 29 30  4  0        0
 30 31  4  0        0
 31 32  4  0        0
 27 32  4  0        0
 32 33  1  0        0
 21 33  1  0        0
 33 34  2  0        0
M  END
$$$$

CDXL12

 12 11  0  0  0  0  0  0  0  0999 V2000
    0.7145    0.6187    0.0000 C   0  0  0  0  0  0  0  2  0  0  0  0
    0.7145   -0.2062    0.0000 C   0  0  0  0  0  0  0  2  0  0  0  0
    1.4289   -0.6188    0.0000 O   0  0  0  0  0  0  0  2  0  0  0  0
    2.1434   -0.2062    0.0000 N   0  0  0  0  0  0  0  2  0  0  0  0
    2.1434    0.6187    0.0000 O   0  0  0  0  0  0  0  2  0  0  0  0
    2.8579   -0.6188    0.0000 O   0  0  0  0  0  0  0  2  0  0  0  0
   -0.0000   -0.6188    0.0000 C   0  0  0  0  0  0  0  2  0  0  0  0
   -0.7145   -0.2062    0.0000 C   0  0  0  0  0  0  0  2  0  0  0  0
   -1.4289   -0.6188    0.0000 O   0  0  0  0  0  0  0  2  0  0  0  0
   -2.1434   -0.2062    0.0000 N   0  0  0  0  0  0  0  2  0  0  0  0
   -2.8579   -0.6187    0.0000 O   0  0  0  0  0  0  0  2  0  0  0  0
   -2.1434    0.6188    0.0000 O   0  0  0  0  0  0  0  2  0  0  0  0
  1  2  1  0        0
  2  3  1  0        0
  3  4  1  0        0
  4  5  2  0        0
  4  6  2  0        0
  2  7  1  0        0
  7  8  1  0        0
  8  9  1  0        0
  9 10  1  0        0
 10 11  2  0        0
 10 12  2  0        0
M  END
$$$$

CDXL12

 12 11  0  0  0  0  0  0  0  0999 V2000
   -1.7862   -1.0313    0.0000 O   0  0  0  0  0  0  0  2  0  0  0  0
   -1.7862   -0.2062    0.0000 N   0  0  0  0  0  0  0  2  0  0  0  0
   -2.5006    0.2062    0.0000 O   0  0  0  0  0  0  0  2  0  0  0  0
   -1.0717    0.2062    0.0000 O   0  0  0  0  0  0  0  2  0  0  0  0
   -0.3572   -0.2062    0.0000 C   0  0  0  0  0  0  0  2  0  0  0  0
   -0.3572   -1.0313    0.0000 C   0  0  0  0  0  0  0  2  0  0  0  0
    0.3572    0.2062    0.0000 C   0  0  0  0  0  0  0  2  0  0  0  0
    1.0717   -0.2062    0.0000 O   0  0  0  0  0  0  0  2  0  0  0  0
    1.7862    0.2062    0.0000 N   0  0  0  0  0  0  0  2  0  0  0  0
    1.7862    1.0312    0.0000 O   0  0  0  0  0  0  0  2  0  0  0  0
    2.5006   -0.2062    0.0000 O   0  0  0  0  0  0  0  2  0  0  0  0
    0.3572    1.0313    0.0000 C   0  0  0  0  0  0  0  2  0  0  0  0
  1  2  2  0        0
  2  3  2  0        0
  2  4  1  0        0
  4  5  1  0        0
  5  6  1  0        0
  5  7  1  0        0
  7  8  1  0        0
  8  9  1  0        0
  9 10  2  0        0
  9 11  2  0        0
  7 12  1  0        0
M  END
$$$$

CDXL12

 21 21  0  0  0  0  0  0  0  0999 V2000
   -0.2615   -0.9355    0.0000 O   0  0  0  0  0  0  0  2  0  0  0  0
   -0.9760   -0.5230    0.0000 O   0  0  0  0  0  0  0  2  0  0  0  0
   -1.6905   -0.9355    0.0000 C   0  0  0  0  0  0  0  2  0  0  0  0
   -1.6905   -1.7605    0.0000 C   0  0  0  0  0  0  0  2  0  0  0  0
   -2.4049   -1.3480    0.0000 C   0  0  0  0  0  0  0  2  0  0  0  0
   -2.4049   -0.5230    0.0000 C   0  0  0  0  0  0  0  2  0  0  0  0
    0.4530   -0.5230    0.0000 C   0  0  0  0  0  0  0  2  0  0  0  0
   -0.2615   -0.1105    0.0000 O   0  0  0  0  0  0  0  2  0  0  0  0
   -0.2615    0.7145    0.0000 O   0  0  0  0  0  0  0  2  0  0  0  0
   -0.9760    1.1270    0.0000 C   0  0  0  0  0  0  0  2  0  0  0  0
   -1.6905    0.7145    0.0000 C   0  0  0  0  0  0  0  2  0  0  0  0
   -1.6905    1.5395    0.0000 C   0  0  0  0  0  0  0  2  0  0  0  0
   -0.9760    1.9520    0.0000 C   0  0  0  0  0  0  0  2  0  0  0  0
    0.8655   -1.2375    0.0000 C   0  0  0  0  0  0  0  2  0  0  0  0
    1.6905   -1.2375    0.0000 C   0  0  0  0  0  0  0  2  0  0  0  0
    2.1030   -0.5230    0.0000 C   0  0  0  0  0  0  0  2  0  0  0  0
    1.6905    0.1914    0.0000 C   0  0  0  0  0  0  0  2  0  0  0  0
    1.6905    1.0164    0.0000 C   0  0  0  0  0  0  0  2  0  0  0  0
    2.4049    0.6039    0.0000 C   0  0  0  0  0  0  0  2  0  0  0  0
    0.8655    0.1914    0.0000 C   0  0  0  0  0  0  0  2  0  0  0  0
    2.1030   -1.9520    0.0000 C   0  0  0  0  0  0  0  2  0  0  0  0
  1  2  1  0        0
  2  3  1  0        0
  3  4  1  0        0
  3  5  1  0        0
  3  6  1  0        0
  1  7  1  0        0
  7  8  1  0        0
  8  9  1  0        0
  9 10  1  0        0
 10 11  1  0        0
 10 12  1  0        0
 10 13  1  0        0
  7 14  1  0        0
 14 15  1  0        0
 15 16  1  0        0
 16 17  1  0        0
 17 18  1  0        0
 17 19  1  0        0
 17 20  1  0        0
  7 20  1  0        0
 15 21  1  0        0
M  END
$$$$

CDXL12

  8  8  0  0  0  0  0  0  0  0999 V2000
    1.0717   -0.8250    0.0000 C   0  0  0  0  0  0  0  2  0  0  0  0
    0.3572   -0.4125    0.0000 C   0  0  0  0  0  0  0  2  0  0  0  0
   -0.3572   -0.8250    0.0000 C   0  0  0  0  0  0  0  2  0  0  0  0
   -1.0717   -0.4125    0.0000 C   0  0  0  0  0  0  0  2  0  0  0  0
   -1.0717    0.4125    0.0000 C   0  0  0  0  0  0  0  2  0  0  0  0
   -0.3572    0.8250    0.0000 C   0  0  0  0  0  0  0  2  0  0  0  0
    0.3572    0.4125    0.0000 C   0  0  0  0  0  0  0  2  0  0  0  0
    1.0717    0.8250    0.0000 C   0  0  0  0  0  0  0  2  0  0  0  0
  1  2  1  0        0
  2  3  1  0        0
  3  4  1  0        0
  4  5  1  0        0
  5  6  1  0        0
  6  7  1  0        0
  2  7  1  0        0
  7  8  1  0        0
M  END
$$$$

CDXL12

 23 24  0  0  0  0  0  0  0  0999 V2000
    2.5006   -0.4125    0.0000 N   0  0  0  0  0  0  0  2  0  0  0  0
    2.5006    0.4125    0.0000 C   0  0  0  0  0  0  0  2  0  0  0  0
    1.7862    0.8250    0.0000 C   0  0  0  0  0  0  0  2  0  0  0  0
    1.0717    0.4125    0.0000 C   0  0  0  0  0  0  0  2  0  0  0  0
    0.3572    0.8250    0.0000 C   0  0  0  0  0  0  0  2  0  0  0  0
   -0.3572    0.4125    0.0000 C   0  0  0  0  0  0  0  2  0  0  0  0
   -1.0717    0.8250    0.0000 I   0  0  0  0  0  0  0  2  0  0  0  0
   -0.3572   -0.4125    0.0000 C   0  0  0  0  0  0  0  2  0  0  0  0
   -1.0717   -0.8250    0.0000 O   0  0  0  0  0  0  0  2  0  0  0  0
   -1.7862   -0.4125    0.0000 C   0  0  0  0  0  0  0  2  0  0  0  0
   -1.7862    0.4125    0.0000 C   0  0  0  0  0  0  0  2  0  0  0  0
   -2.5006    0.8250    0.0000 C   0  0  0  0  0  0  0  2  0  0  0  0
   -3.2151    0.4125    0.0000 C   0  0  0  0  0  0  0  2  0  0  0  0
   -3.9296    0.8250    0.0000 O   0  0  0  0  0  0  0  2  0  0  0  0
   -3.2151   -0.4125    0.0000 C   0  0  0  0  0  0  0  2  0  0  0  0
   -3.9296   -0.8250    0.0000 I   0  0  0  0  0  0  0  2  0  0  0  0
   -2.5006   -0.8250    0.0000 C   0  0  0  0  0  0  0  2  0  0  0  0
    0.3572   -0.8250    0.0000 C   0  0  0  0  0  0  0  2  0  0  0  0
    0.3572   -1.6500    0.0000 I   0  0  0  0  0  0  0  2  0  0  0  0
    1.0717   -0.4125    0.0000 C   0  0  0  0  0  0  0  2  0  0  0  0
    3.2151    0.8250    0.0000 C   0  0  0  0  0  0  0  2  0  0  0  0
    3.9296    0.4125    0.0000 O   0  0  0  0  0  0  0  2  0  0  0  0
    3.2151    1.6500    0.0000 O   0  0  0  0  0  0  0  2  0  0  0  0
  1  2  1  0        0
  2  3  1  0        0
  3  4  1  0        0
  4  5  4  0        0
  5  6  4  0        0
  6  7  1  0        0
  6  8  4  0        0
  8  9  1  0        0
  9 10  1  0        0
 10 11  4  0        0
 11 12  4  0        0
 12 13  4  0        0
 13 14  1  0        0
 13 15  4  0        0
 15 16  1  0        0
 15 17  4  0        0
 10 17  4  0        0
  8 18  4  0        0
 18 19  1  0        0
 18 20  4  0        0
  4 20  4  0        0
  2 21  1  0        0
 21 22  1  0        0
 21 23  2  0        0
M  END
$$$$

CDXL12

 14 13  0  0  0  0  0  0  0  0999 V2000
    2.8579    0.2062    0.0000 C   0  0  0  0  0  0  0  2  0  0  0  0
    2.1434   -0.2062    0.0000 N   0  0  0  0  0  0  0  2  0  0  0  0
    1.4289    0.2062    0.0000 C   0  0  0  0  0  0  0  2  0  0  0  0
    1.4289    1.0312    0.0000 O   0  0  0  0  0  0  0  2  0  0  0  0
    0.7145   -0.2062    0.0000 C   0  0  0  0  0  0  0  2  0  0  0  0
   -0.0000    0.2062    0.0000 C   0  0  0  0  0  0  0  2  0  0  0  0
   -0.0000    1.0313    0.0000 C   0  0  0  0  0  0  0  2  0  0  0  0
   -0.7145   -0.2062    0.0000 O   0  0  0  0  0  0  0  2  0  0  0  0
   -1.4289    0.2062    0.0000 P   0  0  0  0  0  0  0  2  0  0  0  0
   -1.4289    1.0313    0.0000 O   0  0  0  0  0  0  0  2  0  0  0  0
   -2.1434   -0.2062    0.0000 O   0  0  0  0  0  0  0  2  0  0  0  0
   -2.8579    0.2062    0.0000 C   0  0  0  0  0  0  0  2  0  0  0  0
   -1.4289   -0.6188    0.0000 O   0  0  0  0  0  0  0  2  0  0  0  0
   -2.1434   -1.0313    0.0000 C   0  0  0  0  0  0  0  2  0  0  0  0
  1  2  1  0        0
  2  3  1  0        0
  3  4  2  0        0
  3  5  1  0        0
  5  6  2  0        0
  6  7  1  0        0
  6  8  1  0        0
  8  9  1  0        0
  9 10  2  0        0
  9 11  1  0        0
 11 12  1  0        0
  9 13  1  0        0
 13 14  1  0        0
M  END
$$$$

CDXL12

 26 27  0  0  0  0  0  0  0  0999 V2000
   -0.3572   -0.4125    0.0000 O   0  0  0  0  0  0  0  2  0  0  0  0
    0.3572   -0.8250    0.0000 C   0  0  0  0  0  0  0  2  0  0  0  0
    1.0717   -0.4125    0.0000 C   0  0  0  0  0  0  0  2  0  0  0  0
    0.3572   -1.6500    0.0000 C   0  0  0  0  0  0  0  2  0  0  0  0
    1.0717   -2.0625    0.0000 N   0  0  0  0  0  0  0  2  0  0  0  0
    1.7862   -1.6500    0.0000 C   0  0  0  0  0  0  0  2  0  0  0  0
    1.7862   -0.8250    0.0000 N   0  0  0  0  0  0  0  2  0  0  0  0
    2.5006   -2.0625    0.0000 C   0  0  0  0  0  0  0  2  0  0  0  0
    2.5006   -2.8875    0.0000 O   0  0  0  0  0  0  0  2  0  0  0  0
    3.2151   -1.6500    0.0000 O   0  0  0  0  0  0  0  2  0  0  0  0
   -0.3572   -2.0625    0.0000 C   0  0  0  0  0  0  0  2  0  0  0  0
   -1.0717   -1.6500    0.0000 C   0  0  0  0  0  0  0  2  0  0  0  0
   -1.7862   -2.0625    0.0000 N   0  0  0  0  0  0  0  2  0  0  0  0
   -1.0717   -0.8250    0.0000 C   0  0  0  0  0  0  0  2  0  0  0  0
   -1.7862   -0.4125    0.0000 O   0  0  0  0  0  0  0  2  0  0  0  0
   -1.7862    0.4125    0.0000 C   0  0  0  0  0  0  0  2  0  0  0  0
   -2.5006    0.8250    0.0000 C   0  0  0  0  0  0  0  2  0  0  0  0
   -3.2151    0.4125    0.0000 O   0  0  0  0  0  0  0  2  0  0  0  0
   -2.5006    1.6500    0.0000 C   0  0  0  0  0  0  0  2  0  0  0  0
   -3.2151    2.0625    0.0000 O   0  0  0  0  0  0  0  2  0  0  0  0
   -1.7862    2.0625    0.0000 C   0  0  0  0  0  0  0  2  0  0  0  0
   -1.7862    2.8875    0.0000 O   0  0  0  0  0  0  0  2  0  0  0  0
   -1.0717    1.6500    0.0000 C   0  0  0  0  0  0  0  2  0  0  0  0
   -0.3572    2.0625    0.0000 O   0  0  0  0  0  0  0  2  0  0  0  0
   -1.0717    0.8250    0.0000 C   0  0  0  0  0  0  0  2  0  0  0  0
   -0.3572    0.4125    0.0000 O   0  0  0  0  0  0  0  2  0  0  0  0
  1  2  1  0        0
  2  3  1  0        0
  2  4  1  0        0
  4  5  1  0        0
  5  6  1  0        0
  6  7  2  0        0
  6  8  1  0        0
  8  9  2  0        0
  8 10  1  0        0
  4 11  1  0        0
 11 12  1  0        0
 12 13  1  0        0
 12 14  1  0        0
  1 14  1  0        0
 14 15  1  0        0
 15 16  1  0        0
 16 17  1  0        0
 17 18  1  0        0
 17 19  1  0        0
 19 20  1  0        0
 19 21  1  0        0
 21 22  1  0        0
 21 23  1  0        0
 23 24  1  0        0
 23 25  1  0        0
 16 25  1  0        0
 25 26  1  0        0
M  END
$$$$

CDXL12

 16 17  0  0  0  0  0  0  0  0999 V2000
   -2.1434   -0.6348    0.0000 C   0  0  0  0  0  0  0  2  0  0  0  0
   -1.4289   -0.2223    0.0000 N   0  0  0  0  0  0  0  2  0  0  0  0
   -0.7145   -0.6348    0.0000 C   0  0  0  0  0  0  0  2  0  0  0  0
   -0.7145   -1.4598    0.0000 O   0  0  0  0  0  0  0  2  0  0  0  0
    0.0000   -0.2223    0.0000 O   0  0  0  0  0  0  0  2  0  0  0  0
    0.7145   -0.6348    0.0000 C   0  0  0  0  0  0  0  2  0  0  0  0
    0.7145   -1.4598    0.0000 C   0  0  0  0  0  0  0  2  0  0  0  0
    1.4289   -1.8723    0.0000 C   0  0  0  0  0  0  0  2  0  0  0  0
    2.1434   -1.4598    0.0000 C   0  0  0  0  0  0  0  2  0  0  0  0
    2.1434   -0.6348    0.0000 C   0  0  0  0  0  0  0  2  0  0  0  0
    1.4289   -0.2223    0.0000 C   0  0  0  0  0  0  0  2  0  0  0  0
    1.4289    0.6027    0.0000 C   0  0  0  0  0  0  0  2  0  0  0  0
    2.0964    1.0877    0.0000 O   0  0  0  0  0  0  0  2  0  0  0  0
    1.8414    1.8723    0.0000 C   0  0  0  0  0  0  0  2  0  0  0  0
    1.0164    1.8723    0.0000 C   0  0  0  0  0  0  0  2  0  0  0  0
    0.7615    1.0877    0.0000 O   0  0  0  0  0  0  0  2  0  0  0  0
  1  2  1  0        0
  2  3  1  0        0
  3  4  2  0        0
  3  5  1  0        0
  5  6  1  0        0
  6  7  4  0        0
  7  8  4  0        0
  8  9  4  0        0
  9 10  4  0        0
 10 11  4  0        0
  6 11  4  0        0
 11 12  1  0        0
 12 13  1  0        0
 13 14  1  0        0
 14 15  1  0        0
 15 16  1  0        0
 12 16  1  0        0
M  END
$$$$

CDXL12

 14 15  0  0  0  0  0  0  0  0999 V2000
    0.3572    0.8250    0.0000 O   0  0  0  0  0  0  0  2  0  0  0  0
   -0.3572    0.4125    0.0000 C   0  0  0  0  0  0  0  2  0  0  0  0
   -0.3572   -0.4125    0.0000 C   0  0  0  0  0  0  0  2  0  0  0  0
   -1.0717   -0.8250    0.0000 C   0  0  0  0  0  0  0  2  0  0  0  0
   -1.7862   -0.4125    0.0000 C   0  0  0  0  0  0  0  2  0  0  0  0
   -1.7862    0.4125    0.0000 C   0  0  0  0  0  0  0  2  0  0  0  0
   -1.0717    0.8250    0.0000 C   0  0  0  0  0  0  0  2  0  0  0  0
   -2.5006   -0.8250    0.0000 Cl  0  0  0  0  0  0  0  2  0  0  0  0
    1.0717    0.4125    0.0000 C   0  0  0  0  0  0  0  2  0  0  0  0
    1.7862    0.8250    0.0000 C   0  0  0  0  0  0  0  2  0  0  0  0
    2.5006    0.4125    0.0000 C   0  0  0  0  0  0  0  2  0  0  0  0
    2.5006   -0.4125    0.0000 C   0  0  0  0  0  0  0  2  0  0  0  0
    1.7862   -0.8250    0.0000 C   0  0  0  0  0  0  0  2  0  0  0  0
    1.0717   -0.4125    0.0000 C   0  0  0  0  0  0  0  2  0  0  0  0
  1  2  1  0        0
  2  3  4  0        0
  3  4  4  0        0
  4  5  4  0        0
  5  6  4  0        0
  6  7  4  0        0
  2  7  4  0        0
  5  8  1  0        0
  1  9  1  0        0
  9 10  4  0        0
 10 11  4  0        0
 11 12  4  0        0
 12 13  4  0        0
 13 14  4  0        0
  9 14  4  0        0
M  END
$$$$

CDXL12

 15 16  0  0  0  0  0  0  0  0999 V2000
    0.3572   -1.4438    0.0000 Cl  0  0  0  0  0  0  0  2  0  0  0  0
   -0.3572   -1.0313    0.0000 C   0  0  0  0  0  0  0  2  0  0  0  0
   -1.0717   -1.4437    0.0000 C   0  0  0  0  0  0  0  2  0  0  0  0
   -1.7862   -1.0313    0.0000 C   0  0  0  0  0  0  0  2  0  0  0  0
   -2.5006   -1.4437    0.0000 Cl  0  0  0  0  0  0  0  2  0  0  0  0
   -1.7862   -0.2062    0.0000 C   0  0  0  0  0  0  0  2  0  0  0  0
   -1.0717    0.2062    0.0000 C   0  0  0  0  0  0  0  2  0  0  0  0
   -0.3572   -0.2062    0.0000 C   0  0  0  0  0  0  0  2  0  0  0  0
    0.3572    0.2062    0.0000 C   0  0  0  0  0  0  0  2  0  0  0  0
    0.3572    1.0313    0.0000 C   0  0  0  0  0  0  0  2  0  0  0  0
    1.0717    1.4438    0.0000 C   0  0  0  0  0  0  0  2  0  0  0  0
    1.7862    1.0313    0.0000 C   0  0  0  0  0  0  0  2  0  0  0  0
    2.5006    1.4438    0.0000 Cl  0  0  0  0  0  0  0  2  0  0  0  0
    1.7862    0.2062    0.0000 C   0  0  0  0  0  0  0  2  0  0  0  0
    1.0717   -0.2062    0.0000 C   0  0  0  0  0  0  0  2  0  0  0  0
  1  2  1  0        0
  2  3  4  0        0
  3  4  4  0        0
  4  5  1  0        0
  4  6  4  0        0
  6  7  4  0        0
  7  8  4  0        0
  2  8  4  0        0
  8  9  1  0        0
  9 10  4  0        0
 10 11  4  0        0
 11 12  4  0        0
 12 13  1  0        0
 12 14  4  0        0
 14 15  4  0        0
  9 15  4  0        0
M  END
$$$$

CDXL12

 12 12  0  0  0  0  0  0  0  0999 V2000
   -1.0717    1.2375    0.0000 O   0  0  0  0  0  0  0  2  0  0  0  0
   -1.0717    0.4125    0.0000 N   0  0  0  0  0  0  0  2  0  0  0  0
   -1.7862   -0.0000    0.0000 O   0  0  0  0  0  0  0  2  0  0  0  0
   -0.3572   -0.0000    0.0000 C   0  0  0  0  0  0  0  2  0  0  0  0
   -0.3572   -0.8250    0.0000 C   0  0  0  0  0  0  0  2  0  0  0  0
   -1.0717   -1.2375    0.0000 O   0  0  0  0  0  0  0  2  0  0  0  0
    0.3572   -1.2375    0.0000 C   0  0  0  0  0  0  0  2  0  0  0  0
    1.0717   -0.8250    0.0000 C   0  0  0  0  0  0  0  2  0  0  0  0
    1.0717    0.0000    0.0000 C   0  0  0  0  0  0  0  2  0  0  0  0
    1.7862    0.4125    0.0000 Cl  0  0  0  0  0  0  0  2  0  0  0  0
    0.3572    0.4125    0.0000 C   0  0  0  0  0  0  0  2  0  0  0  0
    1.7862   -1.2375    0.0000 C   0  0  0  0  0  0  0  2  0  0  0  0
  1  2  2  0        0
  2  3  2  0        0
  2  4  1  0        0
  4  5  4  0        0
  5  6  1  0        0
  5  7  4  0        0
  7  8  4  0        0
  8  9  4  0        0
  9 10  1  0        0
  9 11  4  0        0
  4 11  4  0        0
  8 12  1  0        0
M  END
$$$$

CDXL12

 13 13  0  0  0  0  0  0  0  0999 V2000
    0.0000   -0.8250    0.0000 C   0  0  0  0  0  0  0  2  0  0  0  0
    0.7145   -0.4125    0.0000 C   0  0  0  0  0  0  0  2  0  0  0  0
    1.4289   -0.8250    0.0000 O   0  0  0  0  0  0  0  2  0  0  0  0
    2.1434   -0.4125    0.0000 C   0  0  0  0  0  0  0  2  0  0  0  0
    0.7145    0.4125    0.0000 N   0  0  0  0  0  0  0  2  0  0  0  0
    0.0000    0.8250    0.0000 C   0  0  0  0  0  0  0  2  0  0  0  0
    0.0000    1.6500    0.0000 Cl  0  0  0  0  0  0  0  2  0  0  0  0
   -0.7145    0.4125    0.0000 C   0  0  0  0  0  0  0  2  0  0  0  0
   -0.7145   -0.4125    0.0000 C   0  0  0  0  0  0  0  2  0  0  0  0
   -1.4289   -0.8250    0.0000 C   0  0  0  0  0  0  0  2  0  0  0  0
   -2.1434   -1.2375    0.0000 Cl  0  0  0  0  0  0  0  2  0  0  0  0
   -1.4289   -1.6500    0.0000 Cl  0  0  0  0  0  0  0  2  0  0  0  0
   -2.1434   -0.4125    0.0000 Cl  0  0  0  0  0  0  0  2  0  0  0  0
  1  2  4  0        0
  2  3  1  0        0
  3  4  1  0        0
  2  5  4  0        0
  5  6  4  0        0
  6  7  1  0        0
  6  8  4  0        0
  8  9  4  0        0
  1  9  4  0        0
  9 10  1  0        0
 10 11  1  0        0
 10 12  1  0        0
 10 13  1  0        0
M  END
$$$$

CDXL12

 17 19  0  0  0  0  0  0  0  0999 V2000
    0.7145    0.6188    0.0000 C   0  0  0  0  0  0  0  2  0  0  0  0
    1.4289    0.2063    0.0000 C   0  0  0  0  0  0  0  2  0  0  0  0
    1.4289   -0.6187    0.0000 C   0  0  0  0  0  0  0  2  0  0  0  0
    0.7145   -1.0312    0.0000 C   0  0  0  0  0  0  0  2  0  0  0  0
    0.7145   -1.8562    0.0000 Cl  0  0  0  0  0  0  0  2  0  0  0  0
   -0.0000   -0.6187    0.0000 C   0  0  0  0  0  0  0  2  0  0  0  0
   -0.0000    0.2063    0.0000 C   0  0  0  0  0  0  0  2  0  0  0  0
   -0.7145    0.6188    0.0000 C   0  0  0  0  0  0  0  2  0  0  0  0
   -1.4289    0.2062    0.0000 C   0  0  0  0  0  0  0  2  0  0  0  0
   -1.4289   -0.6187    0.0000 C   0  0  0  0  0  0  0  2  0  0  0  0
   -0.7145   -1.0312    0.0000 C   0  0  0  0  0  0  0  2  0  0  0  0
   -0.7145   -1.8562    0.0000 Cl  0  0  0  0  0  0  0  2  0  0  0  0
   -0.7145    1.4437    0.0000 C   0  0  0  0  0  0  0  2  0  0  0  0
   -1.4289    1.8562    0.0000 O   0  0  0  0  0  0  0  2  0  0  0  0
    0.0000    1.8562    0.0000 O   0  0  0  0  0  0  0  2  0  0  0  0
    0.7145    1.4437    0.0000 C   0  0  0  0  0  0  0  2  0  0  0  0
    1.4289    1.8562    0.0000 O   0  0  0  0  0  0  0  2  0  0  0  0
  1  2  4  0        0
  2  3  4  0        0
  3  4  4  0        0
  4  5  1  0        0
  4  6  4  0        0
  6  7  4  0        0
  1  7  4  0        0
  7  8  4  0        0
  8  9  4  0        0
  9 10  4  0        0
 10 11  4  0        0
  6 11  4  0        0
 11 12  1  0        0
  8 13  1  0        0
 13 14  2  0        0
 13 15  1  0        0
 15 16  1  0        0
  1 16  1  0        0
 16 17  2  0        0
M  END
$$$$

CDXL12

 31 35  0  0  0  0  0  0  0  0999 V2000
   -3.1354   -1.7573    0.0000 C   0  0  0  0  0  0  0  2  0  0  0  0
   -3.8499   -2.1698    0.0000 C   0  0  0  0  0  0  0  2  0  0  0  0
   -4.5644   -1.7573    0.0000 N   0  0  0  0  0  0  0  2  0  0  0  0
   -4.5644   -0.9323    0.0000 C   0  0  0  0  0  0  0  2  0  0  0  0
   -3.8499   -0.5198    0.0000 C   0  0  0  0  0  0  0  2  0  0  0  0
   -3.1354   -0.9323    0.0000 N   0  0  0  0  0  0  0  2  0  0  0  0
   -3.1354   -0.1073    0.0000 H   0  0  0  0  0  0  0  2  0  0  0  0
   -2.4209   -0.5198    0.0000 O   0  0  0  0  0  0  0  2  0  0  0  0
   -1.7065   -0.9323    0.0000 S   0  0  0  0  0  0  0  2  0  0  0  0
   -1.2940   -0.2178    0.0000 O   0  0  0  0  0  0  0  2  0  0  0  0
   -2.1190   -1.6468    0.0000 O   0  0  0  0  0  0  0  2  0  0  0  0
   -0.9920   -1.3448    0.0000 O   0  0  0  0  0  0  0  2  0  0  0  0
   -0.2775   -0.9323    0.0000 C   0  0  0  0  0  0  0  2  0  0  0  0
   -0.2775   -0.1073    0.0000 C   0  0  0  0  0  0  0  2  0  0  0  0
    0.4369    0.3052    0.0000 C   0  0  0  0  0  0  0  2  0  0  0  0
    1.1514   -0.1073    0.0000 C   0  0  0  0  0  0  0  2  0  0  0  0
    1.8659    0.3052    0.0000 C   0  0  0  0  0  0  0  2  0  0  0  0
    1.8659    1.1302    0.0000 C   0  0  0  0  0  0  0  2  0  0  0  0
    2.5803    1.5427    0.0000 C   0  0  0  0  0  0  0  2  0  0  0  0
    3.2948    1.1302    0.0000 C   0  0  0  0  0  0  0  2  0  0  0  0
    3.3811    1.9507    0.0000 C   0  0  0  0  0  0  0  2  0  0  0  0
    4.0794    1.3852    0.0000 C   0  0  0  0  0  0  0  2  0  0  0  0
    4.3344    2.1698    0.0000 O   0  0  0  0  0  0  0  2  0  0  0  0
    4.5644    0.7177    0.0000 C   0  0  0  0  0  0  0  2  0  0  0  0
    4.0794    0.0503    0.0000 C   0  0  0  0  0  0  0  2  0  0  0  0
    3.2948    0.3052    0.0000 C   0  0  0  0  0  0  0  2  0  0  0  0
    2.5803   -0.1073    0.0000 C   0  0  0  0  0  0  0  2  0  0  0  0
    2.5803   -0.9323    0.0000 C   0  0  0  0  0  0  0  2  0  0  0  0
    1.8659   -1.3448    0.0000 C   0  0  0  0  0  0  0  2  0  0  0  0
    1.1514   -0.9323    0.0000 C   0  0  0  0  0  0  0  2  0  0  0  0
    0.4369   -1.3448    0.0000 C   0  0  0  0  0  0  0  2  0  0  0  0
  1  2  1  0        0
  2  3  1  0        0
  3  4  1  0        0
  4  5  1  0        0
  5  6  1  0        0
  1  6  1  0        0
  6  7  1  0        0
  6  8  1  0        0
  8  9  1  0        0
  9 10  2  0        0
  9 11  2  0        0
  9 12  1  0        0
 12 13  1  0        0
 13 14  4  0        0
 14 15  4  0        0
 15 16  4  0        0
 16 17  1  0        0
 17 18  1  0        0
 18 19  1  0        0
 19 20  1  0        0
 20 21  1  0        0
 20 22  1  0        0
 22 23  2  0        0
 22 24  1  0        0
 24 25  1  0        0
 25 26  1  0        0
 20 26  1  0        0
 26 27  1  0        0
 17 27  1  0        0
 27 28  1  0        0
 28 29  1  0        0
 29 30  1  0        0
 16 30  4  0        0
 30 31  4  0        0
 13 31  4  0        0
M  END
$$$$

CDXL12

 13 13  0  0  0  0  0  0  0  0999 V2000
    0.7145    1.6500    0.0000 O   0  0  0  0  0  0  0  2  0  0  0  0
    0.7145    0.8250    0.0000 C   0  0  0  0  0  0  0  2  0  0  0  0
    1.4289    0.4125    0.0000 O   0  0  0  0  0  0  0  2  0  0  0  0
    2.1434    0.8250    0.0000 C   0  0  0  0  0  0  0  2  0  0  0  0
    0.0000    0.4125    0.0000 C   0  0  0  0  0  0  0  2  0  0  0  0
    0.0000   -0.4125    0.0000 C   0  0  0  0  0  0  0  2  0  0  0  0
   -0.7145   -0.8250    0.0000 C   0  0  0  0  0  0  0  2  0  0  0  0
   -0.7145   -1.6500    0.0000 N   0  0  0  0  0  0  0  2  0  0  0  0
   -1.4289   -0.4125    0.0000 C   0  0  0  0  0  0  0  2  0  0  0  0
   -1.4289    0.4125    0.0000 C   0  0  0  0  0  0  0  2  0  0  0  0
   -2.1434    0.8250    0.0000 Cl  0  0  0  0  0  0  0  2  0  0  0  0
   -0.7145    0.8250    0.0000 C   0  0  0  0  0  0  0  2  0  0  0  0
    0.7145   -0.8250    0.0000 Cl  0  0  0  0  0  0  0  2  0  0  0  0
  1  2  2  0        0
  2  3  1  0        0
  3  4  1  0        0
  2  5  1  0        0
  5  6  4  0        0
  6  7  4  0        0
  7  8  1  0        0
  7  9  4  0        0
  9 10  4  0        0
 10 11  1  0        0
 10 12  4  0        0
  5 12  4  0        0
  6 13  1  0        0
M  END
$$$$

CDXL12

  9  8  0  0  0  0  0  0  0  0999 V2000
    0.7145    0.9760    0.0000 C   0  0  0  0  0  0  0  2  0  0  0  0
    0.7145    0.1510    0.0000 C   0  0  0  0  0  0  0  2  0  0  0  0
    1.4289    0.5635    0.0000 C   0  0  0  0  0  0  0  2  0  0  0  0
    1.4289   -0.2615    0.0000 C   0  0  0  0  0  0  0  2  0  0  0  0
    0.0000   -0.2615    0.0000 C   0  0  0  0  0  0  0  2  0  0  0  0
    0.4125   -0.9760    0.0000 O   0  0  0  0  0  0  0  2  0  0  0  0
   -0.4125   -0.9760    0.0000 C   0  0  0  0  0  0  0  2  0  0  0  0
   -0.7145    0.1510    0.0000 C   0  0  0  0  0  0  0  2  0  0  0  0
   -1.4289   -0.2615    0.0000 C   0  0  0  0  0  0  0  2  0  0  0  0
  1  2  1  0        0
  2  3  1  0        0
  2  4  1  0        0
  2  5  1  0        0
  5  6  1  0        0
  5  7  1  0        0
  5  8  1  0        0
  8  9  1  0        0
M  END
$$$$

CDXL12

  8  7  0  0  0  0  0  0  0  0999 V2000
   -1.7862   -0.4125    0.0000 Cl  0  0  0  0  0  0  0  2  0  0  0  0
   -1.0717   -0.0000    0.0000 C   0  0  0  0  0  0  0  2  0  0  0  0
   -0.3572   -0.4125    0.0000 C   0  0  0  0  0  0  0  2  0  0  0  0
    0.3572    0.0000    0.0000 S   0  0  0  0  0  0  0  2  0  0  0  0
    0.7697   -0.7145    0.0000 O   0  0  0  0  0  0  0  2  0  0  0  0
   -0.0553    0.7145    0.0000 O   0  0  0  0  0  0  0  2  0  0  0  0
    1.0717    0.4125    0.0000 C   0  0  0  0  0  0  0  2  0  0  0  0
    1.7862   -0.0000    0.0000 C   0  0  0  0  0  0  0  2  0  0  0  0
  1  2  1  0        0
  2  3  1  0        0
  3  4  1  0        0
  4  5  2  0        0
  4  6  2  0        0
  4  7  1  0        0
  7  8  2  0        0
M  END
$$$$

CDXL12

 33 35  0  0  0  0  0  0  0  0999 V2000
    5.6416    0.8486    0.0000 Na  0  0  0  0  0  0  0  2  0  0  0  0
    4.9272    0.4361    0.0000 O   0  0  0  0  0  0  0  2  0  0  0  0
    4.2127    0.8486    0.0000 P   0  0  0  0  0  0  0  2  0  0  0  0
    4.2127    0.0236    0.0000 O   0  0  0  0  0  0  0  2  0  0  0  0
    4.9272   -0.3889    0.0000 Na  0  0  0  0  0  0  0  2  0  0  0  0
    4.2127    1.6736    0.0000 O   0  0  0  0  0  0  0  2  0  0  0  0
    3.4982    0.4361    0.0000 C   0  0  0  0  0  0  0  2  0  0  0  0
    2.7837    0.8486    0.0000 P   0  0  0  0  0  0  0  2  0  0  0  0
    2.7837    1.6736    0.0000 O   0  0  0  0  0  0  0  2  0  0  0  0
    2.7837    0.0236    0.0000 O   0  0  0  0  0  0  0  2  0  0  0  0
    2.0693    0.4361    0.0000 O   0  0  0  0  0  0  0  2  0  0  0  0
    1.3548    0.8486    0.0000 P   0  0  0  0  0  0  0  2  0  0  0  0
    1.3548    1.6736    0.0000 O   0  0  0  0  0  0  0  2  0  0  0  0
    1.3548    0.0236    0.0000 O   0  0  0  0  0  0  0  2  0  0  0  0
    0.6403    0.4361    0.0000 O   0  0  0  0  0  0  0  2  0  0  0  0
   -0.0741    0.8486    0.0000 C   0  0  0  0  0  0  0  2  0  0  0  0
   -0.7886    0.4361    0.0000 C   0  0  0  0  0  0  0  2  0  0  0  0
   -0.8748   -0.3843    0.0000 C   0  0  0  0  0  0  0  2  0  0  0  0
   -0.2618   -0.9364    0.0000 O   0  0  0  0  0  0  0  2  0  0  0  0
   -1.6818   -0.5559    0.0000 C   0  0  0  0  0  0  0  2  0  0  0  0
   -2.0174   -1.3095    0.0000 O   0  0  0  0  0  0  0  2  0  0  0  0
   -2.0943    0.1586    0.0000 C   0  0  0  0  0  0  0  2  0  0  0  0
   -2.9148    0.2448    0.0000 N   0  0  0  0  0  0  0  2  0  0  0  0
   -3.3273    0.9593    0.0000 C   0  0  0  0  0  0  0  2  0  0  0  0
   -4.1343    0.7878    0.0000 N   0  0  0  0  0  0  0  2  0  0  0  0
   -4.2205   -0.0327    0.0000 C   0  0  0  0  0  0  0  2  0  0  0  0
   -4.8879   -0.5176    0.0000 C   0  0  0  0  0  0  0  2  0  0  0  0
   -5.6416   -0.1821    0.0000 N   0  0  0  0  0  0  0  2  0  0  0  0
   -4.8017   -1.3381    0.0000 N   0  0  0  0  0  0  0  2  0  0  0  0
   -4.0480   -1.6736    0.0000 C   0  0  0  0  0  0  0  2  0  0  0  0
   -3.3806   -1.1887    0.0000 N   0  0  0  0  0  0  0  2  0  0  0  0
   -3.4668   -0.3682    0.0000 C   0  0  0  0  0  0  0  2  0  0  0  0
   -1.5423    0.7717    0.0000 O   0  0  0  0  0  0  0  2  0  0  0  0
  1  2  1  0        0
  2  3  1  0        0
  3  4  1  0        0
  4  5  1  0        0
  3  6  2  0        0
  3  7  1  0        0
  7  8  1  0        0
  8  9  2  0        0
  8 10  1  0        0
  8 11  1  0        0
 11 12  1  0        0
 12 13  2  0        0
 12 14  1  0        0
 12 15  1  0        0
 15 16  1  0        0
 16 17  1  0        0
 17 18  1  0        0
 18 19  1  0        0
 18 20  1  0        0
 20 21  1  0        0
 20 22  1  0        0
 22 23  1  0        0
 23 24  4  0        0
 24 25  4  0        0
 25 26  4  0        0
 26 27  4  0        0
 27 28  1  0        0
 27 29  4  0        0
 29 30  4  0        0
 30 31  4  0        0
 31 32  4  0        0
 23 32  4  0        0
 26 32  4  0        0
 22 33  1  0        0
 17 33  1  0        0
M  END
$$$$

CDXL12

 22 22  0  0  0  0  0  0  0  0999 V2000
   -0.7145   -2.8875    0.0000 O   0  0  0  0  0  0  0  2  0  0  0  0
   -0.7145   -2.0625    0.0000 C   0  0  0  0  0  0  0  2  0  0  0  0
   -0.0000   -1.6500    0.0000 O   0  0  0  0  0  0  0  2  0  0  0  0
    0.7145   -2.0625    0.0000 C   0  0  0  0  0  0  0  2  0  0  0  0
    1.4289   -1.6500    0.0000 C   0  0  0  0  0  0  0  2  0  0  0  0
    1.4289   -0.8250    0.0000 Br  0  0  0  0  0  0  0  2  0  0  0  0
    2.1434   -2.0625    0.0000 C   0  0  0  0  0  0  0  2  0  0  0  0
    2.8579   -1.6500    0.0000 Br  0  0  0  0  0  0  0  2  0  0  0  0
   -1.4289   -1.6500    0.0000 C   0  0  0  0  0  0  0  2  0  0  0  0
   -1.4289   -0.8250    0.0000 C   0  0  0  0  0  0  0  2  0  0  0  0
   -2.1434   -0.4125    0.0000 C   0  0  0  0  0  0  0  2  0  0  0  0
   -2.8579   -0.8250    0.0000 C   0  0  0  0  0  0  0  2  0  0  0  0
   -2.8579   -1.6500    0.0000 C   0  0  0  0  0  0  0  2  0  0  0  0
   -2.1434   -2.0625    0.0000 C   0  0  0  0  0  0  0  2  0  0  0  0
   -0.7145   -0.4125    0.0000 C   0  0  0  0  0  0  0  2  0  0  0  0
   -0.0000   -0.8250    0.0000 O   0  0  0  0  0  0  0  2  0  0  0  0
   -0.7145    0.4125    0.0000 O   0  0  0  0  0  0  0  2  0  0  0  0
   -0.0000    0.8250    0.0000 C   0  0  0  0  0  0  0  2  0  0  0  0
   -0.0000    1.6500    0.0000 C   0  0  0  0  0  0  0  2  0  0  0  0
   -0.7145    2.0625    0.0000 Br  0  0  0  0  0  0  0  2  0  0  0  0
    0.7145    2.0625    0.0000 C   0  0  0  0  0  0  0  2  0  0  0  0
    0.7145    2.8875    0.0000 Br  0  0  0  0  0  0  0  2  0  0  0  0
  1  2  2  0        0
  2  3  1  0        0
  3  4  1  0        0
  4  5  1  0        0
  5  6  1  0        0
  5  7  1  0        0
  7  8  1  0        0
  2  9  1  0        0
  9 10  4  0        0
 10 11  4  0        0
 11 12  4  0        0
 12 13  4  0        0
 13 14  4  0        0
  9 14  4  0        0
 10 15  1  0        0
 15 16  2  0        0
 15 17  1  0        0
 17 18  1  0        0
 18 19  1  0        0
 19 20  1  0        0
 19 21  1  0        0
 21 22  1  0        0
M  END
$$$$

CDXL12

 19 23  0  0  0  0  0  0  0  0999 V2000
   -1.6930   -1.1270    0.0000 Cl  0  0  0  0  0  0  0  2  0  0  0  0
   -1.2805   -0.4125    0.0000 C   0  0  0  0  0  0  0  2  0  0  0  0
   -0.5660   -0.8250    0.0000 C   0  0  0  0  0  0  0  2  0  0  0  0
    0.1484   -0.4125    0.0000 C   0  0  0  0  0  0  0  2  0  0  0  0
    0.1484    0.4125    0.0000 C   0  0  0  0  0  0  0  2  0  0  0  0
    0.9331    0.6674    0.0000 C   0  0  0  0  0  0  0  2  0  0  0  0
    1.4180    0.0000    0.0000 C   0  0  0  0  0  0  0  2  0  0  0  0
    0.9331   -0.6674    0.0000 C   0  0  0  0  0  0  0  2  0  0  0  0
   -1.9950    0.0000    0.0000 C   0  0  0  0  0  0  0  2  0  0  0  0
   -1.2805    0.4125    0.0000 C   0  0  0  0  0  0  0  2  0  0  0  0
   -1.6930    1.1270    0.0000 Cl  0  0  0  0  0  0  0  2  0  0  0  0
   -0.5660    0.8250    0.0000 C   0  0  0  0  0  0  0  2  0  0  0  0
   -0.0707    0.0000    0.0000 C   0  0  0  0  0  0  0  2  0  0  0  0
    0.6438   -0.4125    0.0000 Cl  0  0  0  0  0  0  0  2  0  0  0  0
    0.6438    0.4125    0.0000 Cl  0  0  0  0  0  0  0  2  0  0  0  0
   -0.5660    1.6500    0.0000 Cl  0  0  0  0  0  0  0  2  0  0  0  0
    1.1880    1.4521    0.0000 C   0  0  0  0  0  0  0  2  0  0  0  0
    1.9950    1.6236    0.0000 O   0  0  0  0  0  0  0  2  0  0  0  0
   -0.5660   -1.6500    0.0000 Cl  0  0  0  0  0  0  0  2  0  0  0  0
  1  2  1  0        0
  2  3  1  0        0
  3  4  1  0        0
  4  5  1  0        0
  5  6  1  0        0
  6  7  1  0        0
  7  8  1  0        0
  4  8  1  0        0
  8  9  1  0        0
  2  9  1  0        0
  9 10  1  0        0
  2 10  1  0        0
 10 11  1  0        0
 10 12  1  0        0
  5 12  1  0        0
 12 13  1  0        0
  3 13  1  0        0
 13 14  1  0        0
 13 15  1  0        0
 12 16  1  0        0
  6 17  1  0        0
 17 18  2  0        0
  3 19  1  0        0
M  END
$$$$

CDXL12

  2  1  0  0  0  0  0  0  0  0999 V2000
   -0.4125    0.0000    0.0000 I   0  0  0  0  0  0  0  2  0  0  0  0
    0.4125    0.0000    0.0000 I   0  0  0  0  0  0  0  2  0  0  0  0
  1  2  1  0        0
M  END
$$$$

CDXL12

 10 10  0  0  0  0  0  0  0  0999 V2000
    0.3572   -1.2375    0.0000 O   0  0  0  0  0  0  0  2  0  0  0  0
    0.3572   -0.4125    0.0000 C   0  0  0  0  0  0  0  2  0  0  0  0
   -0.3572   -0.0000    0.0000 C   0  0  0  0  0  0  0  2  0  0  0  0
   -1.0717   -0.4125    0.0000 C   0  0  0  0  0  0  0  2  0  0  0  0
   -1.7862    0.0000    0.0000 C   0  0  0  0  0  0  0  2  0  0  0  0
   -1.7862    0.8250    0.0000 C   0  0  0  0  0  0  0  2  0  0  0  0
   -1.0717    1.2375    0.0000 C   0  0  0  0  0  0  0  2  0  0  0  0
   -0.3572    0.8250    0.0000 C   0  0  0  0  0  0  0  2  0  0  0  0
    1.0717    0.0000    0.0000 C   0  0  0  0  0  0  0  2  0  0  0  0
    1.7862   -0.4125    0.0000 N   0  0  0  0  0  0  0  2  0  0  0  0
  1  2  1  0        0
  2  3  1  0        0
  3  4  4  0        0
  4  5  4  0        0
  5  6  4  0        0
  6  7  4  0        0
  7  8  4  0        0
  3  8  4  0        0
  2  9  1  0        0
  9 10  1  0        0
M  END
$$$$

CDXL12

 22 25  0  0  0  0  0  0  0  0999 V2000
    1.4398   -1.1708    0.0000 O   0  0  0  0  0  0  0  2  0  0  0  0
    1.2682   -0.3638    0.0000 C   0  0  0  0  0  0  0  2  0  0  0  0
    1.8203    0.2493    0.0000 C   0  0  0  0  0  0  0  2  0  0  0  0
    1.4078    0.9638    0.0000 C   0  0  0  0  0  0  0  2  0  0  0  0
    0.6008    0.7922    0.0000 C   0  0  0  0  0  0  0  2  0  0  0  0
   -0.0123    1.3443    0.0000 O   0  0  0  0  0  0  0  2  0  0  0  0
    0.5146   -0.0282    0.0000 C   0  0  0  0  0  0  0  2  0  0  0  0
   -0.1999   -0.4407    0.0000 C   0  0  0  0  0  0  0  2  0  0  0  0
   -0.9144   -0.0282    0.0000 N   0  0  0  0  0  0  0  2  0  0  0  0
   -1.6288   -0.4407    0.0000 C   0  0  0  0  0  0  0  2  0  0  0  0
   -1.6288   -1.2657    0.0000 C   0  0  0  0  0  0  0  2  0  0  0  0
   -2.3433   -1.6782    0.0000 C   0  0  0  0  0  0  0  2  0  0  0  0
   -3.0578   -1.2657    0.0000 C   0  0  0  0  0  0  0  2  0  0  0  0
   -3.0578   -0.4407    0.0000 C   0  0  0  0  0  0  0  2  0  0  0  0
   -2.3433   -0.0282    0.0000 C   0  0  0  0  0  0  0  2  0  0  0  0
   -0.9144   -1.6782    0.0000 C   0  0  0  0  0  0  0  2  0  0  0  0
   -0.1999   -1.2657    0.0000 C   0  0  0  0  0  0  0  2  0  0  0  0
    0.5146   -1.6782    0.0000 O   0  0  0  0  0  0  0  2  0  0  0  0
    1.8203    1.6782    0.0000 C   0  0  0  0  0  0  0  2  0  0  0  0
    2.6453    1.6782    0.0000 C   0  0  0  0  0  0  0  2  0  0  0  0
    3.0578    0.9638    0.0000 C   0  0  0  0  0  0  0  2  0  0  0  0
    2.6453    0.2493    0.0000 C   0  0  0  0  0  0  0  2  0  0  0  0
  1  2  2  0        0
  2  3  1  0        0
  3  4  4  0        0
  4  5  1  0        0
  5  6  2  0        0
  5  7  1  0        0
  2  7  1  0        0
  7  8  1  0        0
  8  9  4  0        0
  9 10  4  0        0
 10 11  4  0        0
 11 12  4  0        0
 12 13  4  0        0
 13 14  4  0        0
 14 15  4  0        0
 10 15  4  0        0
 11 16  4  0        0
 16 17  4  0        0
  8 17  4  0        0
 17 18  1  0        0
  4 19  4  0        0
 19 20  4  0        0
 20 21  4  0        0
 21 22  4  0        0
  3 22  4  0        0
M  END
$$$$

CDXL12

  6  5  0  0  0  0  0  0  0  0999 V2000
   -0.3572   -0.2062    0.0000 C   0  0  0  0  0  0  0  2  0  0  0  0
    0.3572    0.2062    0.0000 C   0  0  0  0  0  0  0  2  0  0  0  0
    0.3572    1.0313    0.0000 Cl  0  0  0  0  0  0  0  2  0  0  0  0
    1.0717   -0.2062    0.0000 C   0  0  0  0  0  0  0  2  0  0  0  0
   -0.3572   -1.0313    0.0000 Cl  0  0  0  0  0  0  0  2  0  0  0  0
   -1.0717    0.2062    0.0000 C   0  0  0  0  0  0  0  2  0  0  0  0
  1  2  1  0        0
  2  3  1  0        0
  2  4  1  0        0
  1  5  1  0        0
  1  6  1  0        0
M  END
$$$$

CDXL12

  5  4  0  0  0  0  0  0  0  0999 V2000
    1.0717   -0.2062    0.0000 Na  0  0  0  0  0  0  0  2  0  0  0  0
    0.3572   -0.6187    0.0000 O   0  0  0  0  0  0  0  2  0  0  0  0
   -0.3572   -0.2062    0.0000 N   0  0  0  0  0  0  0  2  0  0  0  0
   -0.3572    0.6187    0.0000 O   0  0  0  0  0  0  0  2  0  0  0  0
   -1.0717   -0.6187    0.0000 O   0  0  0  0  0  0  0  2  0  0  0  0
  1  2  1  0        0
  2  3  1  0        0
  3  4  2  0        0
  3  5  2  0        0
M  END
$$$$

CDXL12

  2  1  0  0  0  0  0  0  0  0999 V2000
   -0.4125    0.0000    0.0000 Na  0  0  0  0  0  0  0  2  0  0  0  0
    0.4125    0.0000    0.0000 Cl  0  0  0  0  0  0  0  2  0  0  0  0
  1  2  1  0        0
M  END
$$$$

CDXL12

  2  1  0  0  0  0  0  0  0  0999 V2000
    0.4125    0.0000    0.0000 F   0  0  0  0  0  0  0  2  0  0  0  0
   -0.4125    0.0000    0.0000 Na  0  0  0  0  0  0  0  2  0  0  0  0
  1  2  1  0        0
M  END
$$$$

CDXL12

 47 50  0  0  0  0  0  0  0  0999 V2000
   -3.1142    2.6343    0.0000 O   0  0  0  0  0  0  0  2  0  0  0  0
   -3.3895    3.4120    0.0000 C   0  0  0  0  0  0  0  2  0  0  0  0
   -4.2006    3.5626    0.0000 C   0  0  0  0  0  0  0  2  0  0  0  0
   -2.8535    4.0392    0.0000 C   0  0  0  0  0  0  0  2  0  0  0  0
   -3.1287    4.8170    0.0000 O   0  0  0  0  0  0  0  2  0  0  0  0
   -2.0424    3.8887    0.0000 C   0  0  0  0  0  0  0  2  0  0  0  0
   -1.5064    4.5159    0.0000 N   0  0  0  0  0  0  0  2  0  0  0  0
   -1.7671    3.1110    0.0000 C   0  0  0  0  0  0  0  2  0  0  0  0
   -0.9560    2.9604    0.0000 O   0  0  0  0  0  0  0  2  0  0  0  0
   -2.3031    2.4838    0.0000 C   0  0  0  0  0  0  0  2  0  0  0  0
   -2.0279    1.7060    0.0000 O   0  0  0  0  0  0  0  2  0  0  0  0
   -1.2167    1.5555    0.0000 C   0  0  0  0  0  0  0  2  0  0  0  0
   -0.9415    0.7777    0.0000 C   0  0  0  0  0  0  0  2  0  0  0  0
   -1.4775    0.1505    0.0000 C   0  0  0  0  0  0  0  2  0  0  0  0
   -1.2022   -0.6272    0.0000 C   0  0  0  0  0  0  0  2  0  0  0  0
   -1.7382   -1.2544    0.0000 C   0  0  0  0  0  0  0  2  0  0  0  0
   -1.4630   -2.0322    0.0000 C   0  0  0  0  0  0  0  2  0  0  0  0
   -0.6518   -2.1827    0.0000 C   0  0  0  0  0  0  0  2  0  0  0  0
   -0.3766   -2.9604    0.0000 C   0  0  0  0  0  0  0  2  0  0  0  0
    0.4345   -3.1110    0.0000 C   0  0  0  0  0  0  0  2  0  0  0  0
    0.7098   -3.8887    0.0000 C   0  0  0  0  0  0  0  2  0  0  0  0
    1.5209   -4.0392    0.0000 C   0  0  0  0  0  0  0  2  0  0  0  0
    1.7961   -4.8170    0.0000 C   0  0  0  0  0  0  0  2  0  0  0  0
    2.0568   -3.4120    0.0000 O   0  0  0  0  0  0  0  2  0  0  0  0
    2.8680   -3.5626    0.0000 C   0  0  0  0  0  0  0  2  0  0  0  0
    3.1432   -4.3403    0.0000 O   0  0  0  0  0  0  0  2  0  0  0  0
    3.4039   -2.9354    0.0000 C   0  0  0  0  0  0  0  2  0  0  0  0
    3.1287   -2.1576    0.0000 C   0  0  0  0  0  0  0  2  0  0  0  0
    3.6647   -1.5304    0.0000 C   0  0  0  0  0  0  0  2  0  0  0  0
    4.2006   -0.9032    0.0000 O   0  0  0  0  0  0  0  2  0  0  0  0
    3.3895   -0.7527    0.0000 C   0  0  0  0  0  0  0  2  0  0  0  0
    2.5783   -0.6021    0.0000 C   0  0  0  0  0  0  0  2  0  0  0  0
    2.3031    0.1756    0.0000 C   0  0  0  0  0  0  0  2  0  0  0  0
    2.8390    0.8028    0.0000 O   0  0  0  0  0  0  0  2  0  0  0  0
    1.4919    0.3262    0.0000 C   0  0  0  0  0  0  0  2  0  0  0  0
    1.2167    1.1039    0.0000 C   0  0  0  0  0  0  0  2  0  0  0  0
    2.0279    0.9534    0.0000 O   0  0  0  0  0  0  0  2  0  0  0  0
    0.4056    1.2544    0.0000 O   0  0  0  0  0  0  0  2  0  0  0  0
    0.1304    2.0322    0.0000 C   0  0  0  0  0  0  0  2  0  0  0  0
    0.6663    2.6594    0.0000 C   0  0  0  0  0  0  0  2  0  0  0  0
    0.3911    3.4371    0.0000 C   0  0  0  0  0  0  0  2  0  0  0  0
    0.9270    4.0643    0.0000 O   0  0  0  0  0  0  0  2  0  0  0  0
   -0.4201    3.5877    0.0000 O   0  0  0  0  0  0  0  2  0  0  0  0
    1.4775    2.5088    0.0000 C   0  0  0  0  0  0  0  2  0  0  0  0
    2.0134    3.1361    0.0000 O   0  0  0  0  0  0  0  2  0  0  0  0
    1.7527    1.7311    0.0000 C   0  0  0  0  0  0  0  2  0  0  0  0
   -0.6808    2.1827    0.0000 C   0  0  0  0  0  0  0  2  0  0  0  0
  1  2  1  0        0
  2  3  1  0        0
  2  4  1  0        0
  4  5  1  0        0
  4  6  1  0        0
  6  7  1  0        0
  6  8  1  0        0
  8  9  1  0        0
  8 10  1  0        0
  1 10  1  0        0
 10 11  1  0        0
 11 12  1  0        0
 12 13  1  0        0
 13 14  2  0        0
 14 15  1  0        0
 15 16  2  0        0
 16 17  1  0        0
 17 18  2  0        0
 18 19  1  0        0
 19 20  2  0        0
 20 21  1  0        0
 21 22  1  0        0
 22 23  1  0        0
 22 24  1  0        0
 24 25  1  0        0
 25 26  2  0        0
 25 27  1  0        0
 27 28  2  0        0
 28 29  1  0        0
 29 30  1  0        0
 30 31  1  0        0
 29 31  1  0        0
 31 32  1  0        0
 32 33  1  0        0
 33 34  1  0        0
 33 35  1  0        0
 35 36  1  0        0
 36 37  1  0        0
 36 38  1  0        0
 38 39  1  0        0
 39 40  1  0        0
 40 41  1  0        0
 41 42  2  0        0
 41 43  1  0        0
 40 44  1  0        0
 44 45  1  0        0
 44 46  1  0        0
 36 46  1  0        0
 39 47  1  0        0
 12 47  1  0        0
M  END
$$$$

CDXL12

 24 26  0  0  0  0  0  0  0  0999 V2000
    3.9752    0.3135    0.0000 C   0  0  0  0  0  0  0  2  0  0  0  0
    3.1502    0.3135    0.0000 C   0  0  0  0  0  0  0  2  0  0  0  0
    2.7377   -0.4009    0.0000 C   0  0  0  0  0  0  0  2  0  0  0  0
    2.7377    1.0280    0.0000 C   0  0  0  0  0  0  0  2  0  0  0  0
    1.9127    1.0280    0.0000 C   0  0  0  0  0  0  0  2  0  0  0  0
    1.1983    1.4405    0.0000 C   0  0  0  0  0  0  0  2  0  0  0  0
    0.4838    1.8530    0.0000 C   0  0  0  0  0  0  0  2  0  0  0  0
    1.1983    2.2655    0.0000 C   0  0  0  0  0  0  0  2  0  0  0  0
    1.1983    0.6155    0.0000 C   0  0  0  0  0  0  0  2  0  0  0  0
    0.7858   -0.0990    0.0000 C   0  0  0  0  0  0  0  2  0  0  0  0
    1.1983   -0.8134    0.0000 O   0  0  0  0  0  0  0  2  0  0  0  0
   -0.0392   -0.0990    0.0000 O   0  0  0  0  0  0  0  2  0  0  0  0
   -0.4517   -0.8134    0.0000 C   0  0  0  0  0  0  0  2  0  0  0  0
   -1.2767   -0.8134    0.0000 N   0  0  0  0  0  0  0  2  0  0  0  0
   -1.7617   -0.1460    0.0000 C   0  0  0  0  0  0  0  2  0  0  0  0
   -1.5067    0.6386    0.0000 O   0  0  0  0  0  0  0  2  0  0  0  0
   -2.5463   -0.4009    0.0000 C   0  0  0  0  0  0  0  2  0  0  0  0
   -3.2608    0.0116    0.0000 C   0  0  0  0  0  0  0  2  0  0  0  0
   -3.9752   -0.4009    0.0000 C   0  0  0  0  0  0  0  2  0  0  0  0
   -3.9752   -1.2259    0.0000 C   0  0  0  0  0  0  0  2  0  0  0  0
   -3.2608   -1.6384    0.0000 C   0  0  0  0  0  0  0  2  0  0  0  0
   -2.5463   -1.2259    0.0000 C   0  0  0  0  0  0  0  2  0  0  0  0
   -1.7617   -1.4809    0.0000 C   0  0  0  0  0  0  0  2  0  0  0  0
   -1.5067   -2.2655    0.0000 O   0  0  0  0  0  0  0  2  0  0  0  0
  1  2  1  0        0
  2  3  1  0        0
  2  4  2  0        0
  4  5  1  0        0
  5  6  1  0        0
  6  7  1  0        0
  6  8  1  0        0
  6  9  1  0        0
  5  9  1  0        0
  9 10  1  0        0
 10 11  2  0        0
 10 12  1  0        0
 12 13  1  0        0
 13 14  1  0        0
 14 15  1  0        0
 15 16  2  0        0
 15 17  1  0        0
 17 18  1  0        0
 18 19  1  0        0
 19 20  1  0        0
 20 21  1  0        0
 21 22  1  0        0
 17 22  2  0        0
 22 23  1  0        0
 14 23  1  0        0
 23 24  2  0        0
M  END
$$$$

CDXL12

 21 21  0  0  0  0  0  0  0  0999 V2000
   -3.9296    0.4125    0.0000 C   0  0  0  0  0  0  0  2  0  0  0  0
   -3.2151    0.0000    0.0000 O   0  0  0  0  0  0  0  2  0  0  0  0
   -2.5006    0.4125    0.0000 P   0  0  0  0  0  0  0  2  0  0  0  0
   -2.5006    1.2375    0.0000 O   0  0  0  0  0  0  0  2  0  0  0  0
   -2.5006   -0.4125    0.0000 O   0  0  0  0  0  0  0  2  0  0  0  0
   -3.2151   -0.8250    0.0000 C   0  0  0  0  0  0  0  2  0  0  0  0
   -1.7862    0.0000    0.0000 O   0  0  0  0  0  0  0  2  0  0  0  0
   -1.0717    0.4125    0.0000 C   0  0  0  0  0  0  0  2  0  0  0  0
   -1.0717    1.2375    0.0000 C   0  0  0  0  0  0  0  2  0  0  0  0
   -0.3572    0.0000    0.0000 C   0  0  0  0  0  0  0  2  0  0  0  0
    0.3572    0.4125    0.0000 C   0  0  0  0  0  0  0  2  0  0  0  0
    0.3572    1.2375    0.0000 O   0  0  0  0  0  0  0  2  0  0  0  0
    1.0717    0.0000    0.0000 O   0  0  0  0  0  0  0  2  0  0  0  0
    1.7862    0.4125    0.0000 C   0  0  0  0  0  0  0  2  0  0  0  0
    1.7862    1.2375    0.0000 C   0  0  0  0  0  0  0  2  0  0  0  0
    2.5006    0.0000    0.0000 C   0  0  0  0  0  0  0  2  0  0  0  0
    2.5006   -0.8250    0.0000 C   0  0  0  0  0  0  0  2  0  0  0  0
    3.2151   -1.2375    0.0000 C   0  0  0  0  0  0  0  2  0  0  0  0
    3.9296   -0.8250    0.0000 C   0  0  0  0  0  0  0  2  0  0  0  0
    3.9296   -0.0000    0.0000 C   0  0  0  0  0  0  0  2  0  0  0  0
    3.2151    0.4125    0.0000 C   0  0  0  0  0  0  0  2  0  0  0  0
  1  2  1  0        0
  2  3  1  0        0
  3  4  2  0        0
  3  5  1  0        0
  5  6  1  0        0
  3  7  1  0        0
  7  8  1  0        0
  8  9  1  0        0
  8 10  2  0        0
 10 11  1  0        0
 11 12  2  0        0
 11 13  1  0        0
 13 14  1  0        0
 14 15  1  0        0
 14 16  1  0        0
 16 17  4  0        0
 17 18  4  0        0
 18 19  4  0        0
 19 20  4  0        0
 20 21  4  0        0
 16 21  4  0        0
M  END
$$$$

CDXL12

  6  5  0  0  0  0  0  0  0  0999 V2000
   -1.0717   -0.0000    0.0000 N   0  0  0  0  0  0  0  2  0  0  0  0
   -0.3572   -0.4125    0.0000 O   0  0  0  0  0  0  0  2  0  0  0  0
    0.3572    0.0000    0.0000 P   0  0  0  0  0  0  0  2  0  0  0  0
    0.3572    0.8250    0.0000 O   0  0  0  0  0  0  0  2  0  0  0  0
    0.3572   -0.8250    0.0000 O   0  0  0  0  0  0  0  2  0  0  0  0
    1.0717   -0.4125    0.0000 O   0  0  0  0  0  0  0  2  0  0  0  0
  1  2  1  0        0
  2  3  1  0        0
  3  4  2  0        0
  3  5  1  0        0
  3  6  1  0        0
M  END
$$$$

CDXL12

  2  1  0  0  0  0  0  0  0  0999 V2000
   -0.4125    0.0000    0.0000 O   0  0  0  0  0  0  0  2  0  0  0  0
    0.4125    0.0000    0.0000 O   0  0  0  0  0  0  0  2  0  0  0  0
  1  2  1  0        0
M  END
$$$$

CDXL12

 12 11  0  0  0  0  0  0  0  0999 V2000
   -1.7862   -1.0312    0.0000 C   0  0  0  0  0  0  0  2  0  0  0  0
   -1.7862   -0.2062    0.0000 C   0  0  0  0  0  0  0  2  0  0  0  0
   -2.5006   -0.6187    0.0000 C   0  0  0  0  0  0  0  2  0  0  0  0
   -2.5006    0.2062    0.0000 C   0  0  0  0  0  0  0  2  0  0  0  0
   -1.0717    0.2062    0.0000 C   0  0  0  0  0  0  0  2  0  0  0  0
   -0.3572   -0.2062    0.0000 C   0  0  0  0  0  0  0  2  0  0  0  0
   -0.3572   -1.0312    0.0000 C   0  0  0  0  0  0  0  2  0  0  0  0
    0.3572    0.2063    0.0000 C   0  0  0  0  0  0  0  2  0  0  0  0
    1.0717   -0.2062    0.0000 C   0  0  0  0  0  0  0  2  0  0  0  0
    1.7862    0.2062    0.0000 C   0  0  0  0  0  0  0  2  0  0  0  0
    1.7862    1.0312    0.0000 C   0  0  0  0  0  0  0  2  0  0  0  0
    2.5006   -0.2062    0.0000 C   0  0  0  0  0  0  0  2  0  0  0  0
  1  2  1  0        0
  2  3  1  0        0
  2  4  1  0        0
  2  5  1  0        0
  5  6  1  0        0
  6  7  2  0        0
  6  8  1  0        0
  8  9  1  0        0
  9 10  1  0        0
 10 11  1  0        0
 10 12  1  0        0
M  END
$$$$

CDXL12

  9  8  0  0  0  0  0  0  0  0999 V2000
   -1.4289    0.3572    0.0000 N   0  0  0  0  0  0  0  2  0  0  0  0
   -0.7145   -0.0553    0.0000 S   0  0  0  0  0  0  0  2  0  0  0  0
   -0.3020    0.6592    0.0000 O   0  0  0  0  0  0  0  2  0  0  0  0
   -1.1270   -0.7697    0.0000 O   0  0  0  0  0  0  0  2  0  0  0  0
    0.0000   -0.4678    0.0000 O   0  0  0  0  0  0  0  2  0  0  0  0
    0.7145   -0.0553    0.0000 N   0  0  0  0  0  0  0  2  0  0  0  0
    1.4289    0.3572    0.0000 H   0  0  0  0  0  0  0  2  0  0  0  0
    0.7145    0.7697    0.0000 H   0  0  0  0  0  0  0  2  0  0  0  0
    1.4289   -0.4678    0.0000 H   0  0  0  0  0  0  0  2  0  0  0  0
  1  2  1  0        0
  2  3  2  0        0
  2  4  2  0        0
  2  5  1  0        0
  5  6  1  0        0
  6  7  1  0        0
  6  8  1  0        0
  6  9  1  0        0
M  END
$$$$

CDXL12

 13 14  0  0  0  0  0  0  0  0999 V2000
   -2.5957   -0.0000    0.0000 Ca  0  0  0  0  0  0  0  2  0  0  0  0
   -2.0123   -0.5834    0.0000 O   0  0  0  0  0  0  0  2  0  0  0  0
   -1.4289   -0.0000    0.0000 As  0  0  0  0  0  0  0  2  0  0  0  0
   -0.7145   -0.4125    0.0000 O   0  0  0  0  0  0  0  2  0  0  0  0
   -2.0123    0.5834    0.0000 O   0  0  0  0  0  0  0  2  0  0  0  0
   -0.7145    0.4125    0.0000 O   0  0  0  0  0  0  0  2  0  0  0  0
    0.0000   -0.0000    0.0000 Ca  0  0  0  0  0  0  0  2  0  0  0  0
    0.7145    0.4125    0.0000 O   0  0  0  0  0  0  0  2  0  0  0  0
    1.4289   -0.0000    0.0000 As  0  0  0  0  0  0  0  2  0  0  0  0
    0.7145   -0.4125    0.0000 O   0  0  0  0  0  0  0  2  0  0  0  0
    2.0123    0.5834    0.0000 O   0  0  0  0  0  0  0  2  0  0  0  0
    2.5957   -0.0000    0.0000 Ca  0  0  0  0  0  0  0  2  0  0  0  0
    2.0123   -0.5834    0.0000 O   0  0  0  0  0  0  0  2  0  0  0  0
  1  2  1  0        0
  2  3  1  0        0
  3  4  2  0        0
  3  5  1  0        0
  1  5  1  0        0
  3  6  1  0        0
  6  7  1  0        0
  7  8  1  0        0
  8  9  1  0        0
  9 10  2  0        0
  9 11  1  0        0
 11 12  1  0        0
 12 13  1  0        0
  9 13  1  0        0
M  END
$$$$

CDXL12

 14 13  0  0  0  0  0  0  0  0999 V2000
    2.8579    0.2062    0.0000 C   0  0  0  0  0  0  0  2  0  0  0  0
    2.1434   -0.2062    0.0000 O   0  0  0  0  0  0  0  2  0  0  0  0
    1.4289    0.2062    0.0000 C   0  0  0  0  0  0  0  2  0  0  0  0
    1.4289    1.0312    0.0000 O   0  0  0  0  0  0  0  2  0  0  0  0
    0.7145   -0.2062    0.0000 C   0  0  0  0  0  0  0  2  0  0  0  0
   -0.0000    0.2062    0.0000 C   0  0  0  0  0  0  0  2  0  0  0  0
   -0.0000    1.0313    0.0000 C   0  0  0  0  0  0  0  2  0  0  0  0
   -0.7145   -0.2062    0.0000 O   0  0  0  0  0  0  0  2  0  0  0  0
   -1.4289    0.2062    0.0000 P   0  0  0  0  0  0  0  2  0  0  0  0
   -1.4289    1.0313    0.0000 O   0  0  0  0  0  0  0  2  0  0  0  0
   -2.1434   -0.2062    0.0000 O   0  0  0  0  0  0  0  2  0  0  0  0
   -2.8579    0.2062    0.0000 C   0  0  0  0  0  0  0  2  0  0  0  0
   -1.4289   -0.6188    0.0000 O   0  0  0  0  0  0  0  2  0  0  0  0
   -2.1434   -1.0313    0.0000 C   0  0  0  0  0  0  0  2  0  0  0  0
  1  2  1  0        0
  2  3  1  0        0
  3  4  2  0        0
  3  5  1  0        0
  5  6  2  0        0
  6  7  1  0        0
  6  8  1  0        0
  8  9  1  0        0
  9 10  2  0        0
  9 11  1  0        0
 11 12  1  0        0
  9 13  1  0        0
 13 14  1  0        0
M  END
$$$$

CDXL12

  2  1  0  0  0  0  0  0  0  0999 V2000
   -0.4125    0.0000    0.0000 Tl  0  0  0  0  0  0  0  2  0  0  0  0
    0.4125    0.0000    0.0000 Cl  0  0  0  0  0  0  0  2  0  0  0  0
  1  2  1  0        0
M  END
$$$$

CDXL12

 11 11  0  0  0  0  0  0  0  0999 V2000
    1.7862    0.8250    0.0000 O   0  0  0  0  0  0  0  2  0  0  0  0
    1.0717    0.4125    0.0000 C   0  0  0  0  0  0  0  2  0  0  0  0
    0.3572   -0.0000    0.0000 C   0  0  0  0  0  0  0  2  0  0  0  0
    0.3572   -0.8250    0.0000 C   0  0  0  0  0  0  0  2  0  0  0  0
   -0.3572   -1.2375    0.0000 C   0  0  0  0  0  0  0  2  0  0  0  0
   -1.0717   -0.8250    0.0000 C   0  0  0  0  0  0  0  2  0  0  0  0
   -1.0717   -0.0000    0.0000 C   0  0  0  0  0  0  0  2  0  0  0  0
   -0.3572    0.4125    0.0000 C   0  0  0  0  0  0  0  2  0  0  0  0
   -1.7862   -1.2375    0.0000 C   0  0  0  0  0  0  0  2  0  0  0  0
    1.0717    1.2375    0.0000 C   0  0  0  0  0  0  0  2  0  0  0  0
    1.7862   -0.0000    0.0000 C   0  0  0  0  0  0  0  2  0  0  0  0
  1  2  1  0        0
  2  3  1  0        0
  3  4  1  0        0
  4  5  1  0        0
  5  6  2  0        0
  6  7  1  0        0
  7  8  1  0        0
  3  8  1  0        0
  6  9  1  0        0
  2 10  1  0        0
  2 11  1  0        0
M  END
$$$$

CDXL12

 18 19  0  0  0  0  0  0  0  0999 V2000
   -0.9308    0.0759    0.0000 Cl  0  0  0  0  0  0  0  2  0  0  0  0
   -0.1556   -0.2063    0.0000 C   0  0  0  0  0  0  0  2  0  0  0  0
   -0.1556   -1.0313    0.0000 C   0  0  0  0  0  0  0  2  0  0  0  0
   -0.9308   -1.3134    0.0000 Cl  0  0  0  0  0  0  0  2  0  0  0  0
    0.5589   -1.4437    0.0000 C   0  0  0  0  0  0  0  2  0  0  0  0
    1.2734   -1.0313    0.0000 C   0  0  0  0  0  0  0  2  0  0  0  0
    1.2734   -0.2063    0.0000 C   0  0  0  0  0  0  0  2  0  0  0  0
    0.5589    0.2062    0.0000 C   0  0  0  0  0  0  0  2  0  0  0  0
    0.2224   -0.6187    0.0000 C   0  0  0  0  0  0  0  2  0  0  0  0
   -1.4226    0.1483    0.0000 C   0  0  0  0  0  0  0  2  0  0  0  0
   -1.4945    0.9702    0.0000 Cl  0  0  0  0  0  0  0  2  0  0  0  0
   -2.0984   -0.3249    0.0000 Cl  0  0  0  0  0  0  0  2  0  0  0  0
   -0.5253   -0.9674    0.0000 C   0  0  0  0  0  0  0  2  0  0  0  0
   -1.2011   -0.4942    0.0000 Cl  0  0  0  0  0  0  0  2  0  0  0  0
    0.5589    1.0312    0.0000 C   0  0  0  0  0  0  0  2  0  0  0  0
    1.2734    1.4437    0.0000 Cl  0  0  0  0  0  0  0  2  0  0  0  0
    2.0984   -0.2063    0.0000 Cl  0  0  0  0  0  0  0  2  0  0  0  0
    1.6859    0.5082    0.0000 Cl  0  0  0  0  0  0  0  2  0  0  0  0
  1  2  1  0        0
  2  3  1  0        0
  3  4  1  0        0
  3  5  1  0        0
  5  6  1  0        0
  6  7  1  0        0
  7  8  1  0        0
  2  8  1  0        0
  8  9  1  0        0
  5  9  1  0        0
  9 10  1  0        0
 10 11  1  0        0
 10 12  1  0        0
  9 13  1  0        0
 13 14  1  0        0
  8 15  1  0        0
 15 16  1  0        0
  7 17  1  0        0
  7 18  1  0        0
M  END
$$$$

CDXL12

 21 24  0  0  0  0  0  0  0  0999 V2000
   -3.0578   -1.2657    0.0000 C   0  0  0  0  0  0  0  2  0  0  0  0
   -3.0578   -0.4407    0.0000 C   0  0  0  0  0  0  0  2  0  0  0  0
   -2.3433   -0.0282    0.0000 C   0  0  0  0  0  0  0  2  0  0  0  0
   -1.6288   -0.4407    0.0000 C   0  0  0  0  0  0  0  2  0  0  0  0
   -0.9144   -0.0282    0.0000 N   0  0  0  0  0  0  0  2  0  0  0  0
   -0.1999   -0.4407    0.0000 C   0  0  0  0  0  0  0  2  0  0  0  0
    0.5146   -0.0282    0.0000 C   0  0  0  0  0  0  0  2  0  0  0  0
    0.6008    0.7922    0.0000 C   0  0  0  0  0  0  0  2  0  0  0  0
   -0.0123    1.3443    0.0000 O   0  0  0  0  0  0  0  2  0  0  0  0
    1.4078    0.9638    0.0000 C   0  0  0  0  0  0  0  2  0  0  0  0
    1.8203    1.6782    0.0000 C   0  0  0  0  0  0  0  2  0  0  0  0
    2.6453    1.6782    0.0000 C   0  0  0  0  0  0  0  2  0  0  0  0
    3.0578    0.9638    0.0000 C   0  0  0  0  0  0  0  2  0  0  0  0
    2.6453    0.2493    0.0000 C   0  0  0  0  0  0  0  2  0  0  0  0
    1.8203    0.2493    0.0000 C   0  0  0  0  0  0  0  2  0  0  0  0
    1.2682   -0.3638    0.0000 C   0  0  0  0  0  0  0  2  0  0  0  0
    1.4398   -1.1708    0.0000 O   0  0  0  0  0  0  0  2  0  0  0  0
   -0.1999   -1.2657    0.0000 C   0  0  0  0  0  0  0  2  0  0  0  0
   -0.9144   -1.6782    0.0000 C   0  0  0  0  0  0  0  2  0  0  0  0
   -1.6288   -1.2657    0.0000 C   0  0  0  0  0  0  0  2  0  0  0  0
   -2.3433   -1.6782    0.0000 C   0  0  0  0  0  0  0  2  0  0  0  0
  1  2  4  0        0
  2  3  4  0        0
  3  4  4  0        0
  4  5  4  0        0
  5  6  4  0        0
  6  7  1  0        0
  7  8  1  0        0
  8  9  2  0        0
  8 10  1  0        0
 10 11  4  0        0
 11 12  4  0        0
 12 13  4  0        0
 13 14  4  0        0
 14 15  4  0        0
 10 15  4  0        0
 15 16  1  0        0
  7 16  1  0        0
 16 17  2  0        0
  6 18  4  0        0
 18 19  4  0        0
 19 20  4  0        0
  4 20  4  0        0
 20 21  4  0        0
  1 21  4  0        0
M  END
$$$$

CDXL12

 14 13  0  0  0  0  0  0  0  0999 V2000
    1.0717   -1.4437    0.0000 S   0  0  0  0  0  0  0  2  0  0  0  0
    1.0717   -0.6187    0.0000 P   0  0  0  0  0  0  0  2  0  0  0  0
    1.7862   -0.2062    0.0000 O   0  0  0  0  0  0  0  2  0  0  0  0
    2.5006   -0.6187    0.0000 C   0  0  0  0  0  0  0  2  0  0  0  0
    3.2151   -0.2062    0.0000 C   0  0  0  0  0  0  0  2  0  0  0  0
    1.0717    0.2063    0.0000 O   0  0  0  0  0  0  0  2  0  0  0  0
    1.7862    0.6187    0.0000 C   0  0  0  0  0  0  0  2  0  0  0  0
    1.7862    1.4437    0.0000 C   0  0  0  0  0  0  0  2  0  0  0  0
    0.3572   -0.2062    0.0000 O   0  0  0  0  0  0  0  2  0  0  0  0
   -0.3572   -0.6187    0.0000 C   0  0  0  0  0  0  0  2  0  0  0  0
   -1.0717   -0.2062    0.0000 C   0  0  0  0  0  0  0  2  0  0  0  0
   -1.7862   -0.6187    0.0000 S   0  0  0  0  0  0  0  2  0  0  0  0
   -2.5006   -0.2062    0.0000 C   0  0  0  0  0  0  0  2  0  0  0  0
   -3.2151   -0.6187    0.0000 C   0  0  0  0  0  0  0  2  0  0  0  0
  1  2  2  0        0
  2  3  1  0        0
  3  4  1  0        0
  4  5  1  0        0
  2  6  1  0        0
  6  7  1  0        0
  7  8  1  0        0
  2  9  1  0        0
  9 10  1  0        0
 10 11  1  0        0
 11 12  1  0        0
 12 13  1  0        0
 13 14  1  0        0
M  END
$$$$

CDXL12

 10  9  0  0  0  0  0  0  0  0999 V2000
    2.1434   -0.0000    0.0000 C   0  0  0  0  0  0  0  2  0  0  0  0
    1.4289    0.4125    0.0000 C   0  0  0  0  0  0  0  2  0  0  0  0
    0.7145   -0.0000    0.0000 S   0  0  0  0  0  0  0  2  0  0  0  0
    0.0000    0.4125    0.0000 C   0  0  0  0  0  0  0  2  0  0  0  0
    0.0000    1.2375    0.0000 O   0  0  0  0  0  0  0  2  0  0  0  0
   -0.7145   -0.0000    0.0000 N   0  0  0  0  0  0  0  2  0  0  0  0
   -1.4289    0.4125    0.0000 C   0  0  0  0  0  0  0  2  0  0  0  0
   -2.1434   -0.0000    0.0000 C   0  0  0  0  0  0  0  2  0  0  0  0
   -0.7145   -0.8250    0.0000 C   0  0  0  0  0  0  0  2  0  0  0  0
   -1.4289   -1.2375    0.0000 C   0  0  0  0  0  0  0  2  0  0  0  0
  1  2  1  0        0
  2  3  1  0        0
  3  4  1  0        0
  4  5  2  0        0
  4  6  1  0        0
  6  7  1  0        0
  7  8  1  0        0
  6  9  1  0        0
  9 10  1  0        0
M  END
$$$$

CDXL12

 22 22  0  0  0  0  0  0  0  0999 V2000
    2.8579    0.8250    0.0000 S   0  0  0  0  0  0  0  2  0  0  0  0
    2.1434    0.4125    0.0000 C   0  0  0  0  0  0  0  2  0  0  0  0
    2.1434   -0.4125    0.0000 S   0  0  0  0  0  0  0  2  0  0  0  0
    1.4289   -0.8250    0.0000 Zn  0  0  0  0  0  0  0  2  0  0  0  0
    1.4289   -1.6500    0.0000 S   0  0  0  0  0  0  0  2  0  0  0  0
    0.7145   -2.0625    0.0000 C   0  0  0  0  0  0  0  2  0  0  0  0
    0.7145   -2.8875    0.0000 S   0  0  0  0  0  0  0  2  0  0  0  0
    0.0000   -1.6500    0.0000 N   0  0  0  0  0  0  0  2  0  0  0  0
   -0.7145   -2.0625    0.0000 C   0  0  0  0  0  0  0  2  0  0  0  0
   -1.4289   -1.6500    0.0000 C   0  0  0  0  0  0  0  2  0  0  0  0
   -1.4289   -0.8250    0.0000 N   0  0  0  0  0  0  0  2  0  0  0  0
   -2.1434   -0.4125    0.0000 C   0  0  0  0  0  0  0  2  0  0  0  0
   -2.8579   -0.8250    0.0000 S   0  0  0  0  0  0  0  2  0  0  0  0
   -2.1434    0.4125    0.0000 S   0  0  0  0  0  0  0  2  0  0  0  0
   -1.4289    0.8250    0.0000 Zn  0  0  0  0  0  0  0  2  0  0  0  0
   -1.4289    1.6500    0.0000 S   0  0  0  0  0  0  0  2  0  0  0  0
   -0.7145    2.0625    0.0000 C   0  0  0  0  0  0  0  2  0  0  0  0
   -0.7145    2.8875    0.0000 S   0  0  0  0  0  0  0  2  0  0  0  0
    0.0000    1.6500    0.0000 N   0  0  0  0  0  0  0  2  0  0  0  0
    0.7145    2.0625    0.0000 C   0  0  0  0  0  0  0  2  0  0  0  0
    1.4289    1.6500    0.0000 C   0  0  0  0  0  0  0  2  0  0  0  0
    1.4289    0.8250    0.0000 N   0  0  0  0  0  0  0  2  0  0  0  0
  1  2  2  0        0
  2  3  1  0        0
  3  4  1  0        0
  4  5  1  0        0
  5  6  1  0        0
  6  7  2  0        0
  6  8  1  0        0
  8  9  1  0        0
  9 10  1  0        0
 10 11  1  0        0
 11 12  1  0        0
 12 13  2  0        0
 12 14  1  0        0
 14 15  1  0        0
 15 16  1  0        0
 16 17  1  0        0
 17 18  2  0        0
 17 19  1  0        0
 19 20  1  0        0
 20 21  1  0        0
 21 22  1  0        0
  2 22  1  0        0
M  END
$$$$

CDXL12

  7  7  0  0  0  0  0  0  0  0999 V2000
   -1.4521    0.4048    0.0000 C   0  0  0  0  0  0  0  2  0  0  0  0
   -0.6674    0.1498    0.0000 C   0  0  0  0  0  0  0  2  0  0  0  0
   -0.0000    0.6348    0.0000 C   0  0  0  0  0  0  0  2  0  0  0  0
    0.6674    0.1498    0.0000 C   0  0  0  0  0  0  0  2  0  0  0  0
    1.4521    0.4048    0.0000 O   0  0  0  0  0  0  0  2  0  0  0  0
    0.4125   -0.6348    0.0000 N   0  0  0  0  0  0  0  2  0  0  0  0
   -0.4125   -0.6348    0.0000 O   0  0  0  0  0  0  0  2  0  0  0  0
  1  2  1  0        0
  2  3  4  0        0
  3  4  4  0        0
  4  5  1  0        0
  4  6  4  0        0
  6  7  4  0        0
  2  7  4  0        0
M  END
$$$$

CDXL12

  4  3  0  0  0  0  0  0  0  0999 V2000
   -0.7145   -0.6187    0.0000 O   0  0  0  0  0  0  0  2  0  0  0  0
    0.0000   -0.2062    0.0000 B   0  0  0  0  0  0  0  2  0  0  0  0
    0.7145   -0.6188    0.0000 O   0  0  0  0  0  0  0  2  0  0  0  0
    0.0000    0.6188    0.0000 O   0  0  0  0  0  0  0  2  0  0  0  0
  1  2  1  0        0
  2  3  1  0        0
  2  4  1  0        0
M  END
$$$$

CDXL12

 10 11  0  0  0  0  0  0  0  0999 V2000
   -1.7065   -0.8250    0.0000 Br  0  0  0  0  0  0  0  2  0  0  0  0
   -0.9920   -0.4125    0.0000 C   0  0  0  0  0  0  0  2  0  0  0  0
   -0.9920    0.4125    0.0000 C   0  0  0  0  0  0  0  2  0  0  0  0
   -0.2775    0.8250    0.0000 C   0  0  0  0  0  0  0  2  0  0  0  0
    0.4369    0.4125    0.0000 C   0  0  0  0  0  0  0  2  0  0  0  0
    1.2216    0.6674    0.0000 N   0  0  0  0  0  0  0  2  0  0  0  0
    1.7065   -0.0000    0.0000 C   0  0  0  0  0  0  0  2  0  0  0  0
    1.2216   -0.6674    0.0000 C   0  0  0  0  0  0  0  2  0  0  0  0
    0.4369   -0.4125    0.0000 C   0  0  0  0  0  0  0  2  0  0  0  0
   -0.2775   -0.8250    0.0000 C   0  0  0  0  0  0  0  2  0  0  0  0
  1  2  1  0        0
  2  3  4  0        0
  3  4  4  0        0
  4  5  4  0        0
  5  6  4  0        0
  6  7  4  0        0
  7  8  4  0        0
  8  9  4  0        0
  5  9  4  0        0
  9 10  4  0        0
  2 10  4  0        0
M  END
$$$$

CDXL12

  7  6  0  0  0  0  0  0  0  0999 V2000
    1.4289    0.0000    0.0000 C   0  0  0  0  0  0  0  2  0  0  0  0
    0.7145   -0.4125    0.0000 O   0  0  0  0  0  0  0  2  0  0  0  0
    0.0000   -0.0000    0.0000 P   0  0  0  0  0  0  0  2  0  0  0  0
    0.0000   -0.8250    0.0000 N   0  0  0  0  0  0  0  2  0  0  0  0
    0.0000    0.8250    0.0000 O   0  0  0  0  0  0  0  2  0  0  0  0
   -0.7145   -0.4125    0.0000 S   0  0  0  0  0  0  0  2  0  0  0  0
   -1.4289   -0.0000    0.0000 C   0  0  0  0  0  0  0  2  0  0  0  0
  1  2  1  0        0
  2  3  1  0        0
  3  4  1  0        0
  3  5  2  0        0
  3  6  1  0        0
  6  7  1  0        0
M  END
$$$$

CDXL12

 23 24  0  0  0  0  0  0  0  0999 V2000
    3.0025   -1.6782    0.0000 C   0  0  0  0  0  0  0  2  0  0  0  0
    3.4150   -0.9638    0.0000 C   0  0  0  0  0  0  0  2  0  0  0  0
    3.0025   -0.2493    0.0000 C   0  0  0  0  0  0  0  2  0  0  0  0
    2.1775   -0.2493    0.0000 C   0  0  0  0  0  0  0  2  0  0  0  0
    1.6255    0.3638    0.0000 C   0  0  0  0  0  0  0  2  0  0  0  0
    1.7970    1.1708    0.0000 O   0  0  0  0  0  0  0  2  0  0  0  0
    0.8718    0.0282    0.0000 N   0  0  0  0  0  0  0  2  0  0  0  0
    0.1573    0.4407    0.0000 C   0  0  0  0  0  0  0  2  0  0  0  0
    0.1573    1.2657    0.0000 C   0  0  0  0  0  0  0  2  0  0  0  0
    0.8718    1.6782    0.0000 Cl  0  0  0  0  0  0  0  2  0  0  0  0
   -0.5571    0.0282    0.0000 S   0  0  0  0  0  0  0  2  0  0  0  0
   -1.2716    0.4407    0.0000 P   0  0  0  0  0  0  0  2  0  0  0  0
   -1.2716    1.2657    0.0000 S   0  0  0  0  0  0  0  2  0  0  0  0
   -1.9861    0.0282    0.0000 O   0  0  0  0  0  0  0  2  0  0  0  0
   -2.7005    0.4407    0.0000 C   0  0  0  0  0  0  0  2  0  0  0  0
   -3.4150    0.0282    0.0000 C   0  0  0  0  0  0  0  2  0  0  0  0
   -1.2716   -0.3843    0.0000 O   0  0  0  0  0  0  0  2  0  0  0  0
   -1.9861   -0.7968    0.0000 C   0  0  0  0  0  0  0  2  0  0  0  0
   -1.9861   -1.6218    0.0000 C   0  0  0  0  0  0  0  2  0  0  0  0
    0.9580   -0.7922    0.0000 C   0  0  0  0  0  0  0  2  0  0  0  0
    0.3450   -1.3443    0.0000 O   0  0  0  0  0  0  0  2  0  0  0  0
    1.7650   -0.9638    0.0000 C   0  0  0  0  0  0  0  2  0  0  0  0
    2.1775   -1.6782    0.0000 C   0  0  0  0  0  0  0  2  0  0  0  0
  1  2  4  0        0
  2  3  4  0        0
  3  4  4  0        0
  4  5  1  0        0
  5  6  2  0        0
  5  7  1  0        0
  7  8  1  0        0
  8  9  1  0        0
  9 10  1  0        0
  8 11  1  0        0
 11 12  1  0        0
 12 13  2  0        0
 12 14  1  0        0
 14 15  1  0        0
 15 16  1  0        0
 12 17  1  0        0
 17 18  1  0        0
 18 19  1  0        0
  7 20  1  0        0
 20 21  2  0        0
 20 22  1  0        0
  4 22  4  0        0
 22 23  4  0        0
  1 23  4  0        0
M  END
$$$$

CDXL12

 10 10  0  0  0  0  0  0  0  0999 V2000
   -1.0717   -0.8250    0.0000 C   0  0  0  0  0  0  0  2  0  0  0  0
   -1.7862   -0.4125    0.0000 C   0  0  0  0  0  0  0  2  0  0  0  0
   -1.7862    0.4125    0.0000 O   0  0  0  0  0  0  0  2  0  0  0  0
   -1.0717    0.8250    0.0000 C   0  0  0  0  0  0  0  2  0  0  0  0
   -0.3572    0.4125    0.0000 C   0  0  0  0  0  0  0  2  0  0  0  0
   -0.3572   -0.4125    0.0000 N   0  0  0  0  0  0  0  2  0  0  0  0
    0.3572   -0.8250    0.0000 C   0  0  0  0  0  0  0  2  0  0  0  0
    1.0717   -0.4125    0.0000 C   0  0  0  0  0  0  0  2  0  0  0  0
    1.0717    0.4125    0.0000 C   0  0  0  0  0  0  0  2  0  0  0  0
    1.7862   -0.8250    0.0000 C   0  0  0  0  0  0  0  2  0  0  0  0
  1  2  1  0        0
  2  3  1  0        0
  3  4  1  0        0
  4  5  1  0        0
  5  6  1  0        0
  1  6  1  0        0
  6  7  1  0        0
  7  8  1  0        0
  8  9  1  0        0
  8 10  1  0        0
M  END
$$$$

CDXL12

 25 27  0  0  0  0  0  0  0  0999 V2000
   -4.8714    0.9337    0.0000 C   0  0  0  0  0  0  0  2  0  0  0  0
   -4.1569    0.5212    0.0000 C   0  0  0  0  0  0  0  2  0  0  0  0
   -4.1569   -0.3038    0.0000 C   0  0  0  0  0  0  0  2  0  0  0  0
   -3.4425    0.9337    0.0000 C   0  0  0  0  0  0  0  2  0  0  0  0
   -2.7280    0.5212    0.0000 C   0  0  0  0  0  0  0  2  0  0  0  0
   -1.9030    0.5212    0.0000 C   0  0  0  0  0  0  0  2  0  0  0  0
   -1.1885    0.9337    0.0000 C   0  0  0  0  0  0  0  2  0  0  0  0
   -1.1885    1.7587    0.0000 O   0  0  0  0  0  0  0  2  0  0  0  0
   -0.4741    0.5212    0.0000 O   0  0  0  0  0  0  0  2  0  0  0  0
    0.2404    0.9337    0.0000 C   0  0  0  0  0  0  0  2  0  0  0  0
    0.9549    0.5212    0.0000 C   0  0  0  0  0  0  0  2  0  0  0  0
    1.0411   -0.2993    0.0000 C   0  0  0  0  0  0  0  2  0  0  0  0
    1.8481   -0.4708    0.0000 O   0  0  0  0  0  0  0  2  0  0  0  0
    2.2606    0.2436    0.0000 C   0  0  0  0  0  0  0  2  0  0  0  0
    3.0811    0.3299    0.0000 C   0  0  0  0  0  0  0  2  0  0  0  0
    3.5660   -0.3376    0.0000 C   0  0  0  0  0  0  0  2  0  0  0  0
    4.3865   -0.2513    0.0000 C   0  0  0  0  0  0  0  2  0  0  0  0
    4.8714   -0.9188    0.0000 C   0  0  0  0  0  0  0  2  0  0  0  0
    4.5358   -1.6724    0.0000 C   0  0  0  0  0  0  0  2  0  0  0  0
    3.7154   -1.7587    0.0000 C   0  0  0  0  0  0  0  2  0  0  0  0
    3.2304   -1.0912    0.0000 C   0  0  0  0  0  0  0  2  0  0  0  0
    1.7086    0.8567    0.0000 C   0  0  0  0  0  0  0  2  0  0  0  0
   -2.3155   -0.1933    0.0000 C   0  0  0  0  0  0  0  2  0  0  0  0
   -1.9030   -0.9078    0.0000 C   0  0  0  0  0  0  0  2  0  0  0  0
   -2.7280   -0.9078    0.0000 C   0  0  0  0  0  0  0  2  0  0  0  0
  1  2  1  0        0
  2  3  1  0        0
  2  4  2  0        0
  4  5  1  0        0
  5  6  1  0        0
  6  7  1  0        0
  7  8  2  0        0
  7  9  1  0        0
  9 10  1  0        0
 10 11  1  0        0
 11 12  4  0        0
 12 13  4  0        0
 13 14  4  0        0
 14 15  1  0        0
 15 16  1  0        0
 16 17  4  0        0
 17 18  4  0        0
 18 19  4  0        0
 19 20  4  0        0
 20 21  4  0        0
 16 21  4  0        0
 14 22  4  0        0
 11 22  4  0        0
  6 23  1  0        0
  5 23  1  0        0
 23 24  1  0        0
 23 25  1  0        0
M  END
$$$$

CDXL12

 11 11  0  0  0  0  0  0  0  0999 V2000
    1.4289    1.2375    0.0000 O   0  0  0  0  0  0  0  2  0  0  0  0
    1.4289    0.4125    0.0000 C   0  0  0  0  0  0  0  2  0  0  0  0
    2.1434    0.0000    0.0000 O   0  0  0  0  0  0  0  2  0  0  0  0
    0.7145    0.0000    0.0000 C   0  0  0  0  0  0  0  2  0  0  0  0
    0.0000    0.4125    0.0000 C   0  0  0  0  0  0  0  2  0  0  0  0
   -0.7145    0.0000    0.0000 C   0  0  0  0  0  0  0  2  0  0  0  0
   -0.7145   -0.8250    0.0000 C   0  0  0  0  0  0  0  2  0  0  0  0
   -1.4289   -1.2375    0.0000 N   0  0  0  0  0  0  0  2  0  0  0  0
   -2.1434   -0.8250    0.0000 C   0  0  0  0  0  0  0  2  0  0  0  0
    0.0000   -1.2375    0.0000 C   0  0  0  0  0  0  0  2  0  0  0  0
    0.7145   -0.8250    0.0000 C   0  0  0  0  0  0  0  2  0  0  0  0
  1  2  2  0        0
  2  3  1  0        0
  2  4  1  0        0
  4  5  4  0        0
  5  6  4  0        0
  6  7  4  0        0
  7  8  1  0        0
  8  9  1  0        0
  7 10  4  0        0
 10 11  4  0        0
  4 11  4  0        0
M  END
$$$$

CDXL12

  6  5  0  0  0  0  0  0  0  0999 V2000
    1.4289   -0.2062    0.0000 C   0  0  0  0  0  0  0  2  0  0  0  0
    0.7145   -0.6188    0.0000 C   0  0  0  0  0  0  0  2  0  0  0  0
    0.0000   -0.2062    0.0000 N   0  0  0  0  0  0  0  2  0  0  0  0
   -0.7145   -0.6187    0.0000 N   0  0  0  0  0  0  0  2  0  0  0  0
   -1.4289   -0.2062    0.0000 O   0  0  0  0  0  0  0  2  0  0  0  0
    0.0000    0.6188    0.0000 C   0  0  0  0  0  0  0  2  0  0  0  0
  1  2  1  0        0
  2  3  1  0        0
  3  4  1  0        0
  4  5  2  0        0
  3  6  1  0        0
M  END
$$$$

CDXL12

 14 15  0  0  0  0  0  0  0  0999 V2000
   -2.5867    0.7145    0.0000 C   0  0  0  0  0  0  0  2  0  0  0  0
   -2.5867   -0.1105    0.0000 C   0  0  0  0  0  0  0  2  0  0  0  0
   -1.8723   -0.5230    0.0000 C   0  0  0  0  0  0  0  2  0  0  0  0
   -1.1578   -0.1105    0.0000 C   0  0  0  0  0  0  0  2  0  0  0  0
   -0.3732   -0.3655    0.0000 N   0  0  0  0  0  0  0  2  0  0  0  0
    0.1117    0.3020    0.0000 C   0  0  0  0  0  0  0  2  0  0  0  0
    0.9367    0.3020    0.0000 N   0  0  0  0  0  0  0  2  0  0  0  0
    1.3492   -0.4125    0.0000 C   0  0  0  0  0  0  0  2  0  0  0  0
    0.9367   -1.1270    0.0000 O   0  0  0  0  0  0  0  2  0  0  0  0
    2.1742   -0.4125    0.0000 O   0  0  0  0  0  0  0  2  0  0  0  0
    2.5867   -1.1270    0.0000 C   0  0  0  0  0  0  0  2  0  0  0  0
   -0.3732    0.9694    0.0000 N   0  0  0  0  0  0  0  2  0  0  0  0
   -1.1578    0.7145    0.0000 C   0  0  0  0  0  0  0  2  0  0  0  0
   -1.8723    1.1270    0.0000 C   0  0  0  0  0  0  0  2  0  0  0  0
  1  2  4  0        0
  2  3  4  0        0
  3  4  4  0        0
  4  5  4  0        0
  5  6  4  0        0
  6  7  1  0        0
  7  8  1  0        0
  8  9  2  0        0
  8 10  1  0        0
 10 11  1  0        0
  6 12  4  0        0
 12 13  4  0        0
  4 13  4  0        0
 13 14  4  0        0
  1 14  4  0        0
M  END
$$$$

CDXL12

 11 11  0  0  0  0  0  0  0  0999 V2000
   -0.6674    0.3146    0.0000 Zn  0  0  0  0  0  0  0  2  0  0  0  0
   -0.4125    1.0992    0.0000 S   0  0  0  0  0  0  0  2  0  0  0  0
    0.4125    1.0992    0.0000 C   0  0  0  0  0  0  0  2  0  0  0  0
    0.8974    1.7667    0.0000 S   0  0  0  0  0  0  0  2  0  0  0  0
    0.6674    0.3146    0.0000 N   0  0  0  0  0  0  0  2  0  0  0  0
    1.2195   -0.2985    0.0000 C   0  0  0  0  0  0  0  2  0  0  0  0
    0.8070   -1.0130    0.0000 C   0  0  0  0  0  0  0  2  0  0  0  0
   -0.0000   -0.8414    0.0000 N   0  0  0  0  0  0  0  2  0  0  0  0
   -0.8070   -1.0130    0.0000 C   0  0  0  0  0  0  0  2  0  0  0  0
   -1.1425   -1.7667    0.0000 S   0  0  0  0  0  0  0  2  0  0  0  0
   -1.2195   -0.2985    0.0000 S   0  0  0  0  0  0  0  2  0  0  0  0
  1  2  1  0        0
  2  3  1  0        0
  3  4  2  0        0
  3  5  1  0        0
  5  6  1  0        0
  6  7  1  0        0
  7  8  1  0        0
  8  9  1  0        0
  9 10  2  0        0
  9 11  1  0        0
  1 11  1  0        0
M  END
$$$$

CDXL12

  5  4  0  0  0  0  0  0  0  0999 V2000
    0.0000   -0.0000    0.0000 N   0  0  0  0  0  0  0  2  0  0  0  0
   -0.8250   -0.0000    0.0000 H   0  0  0  0  0  0  0  2  0  0  0  0
    0.0000   -0.8250    0.0000 H   0  0  0  0  0  0  0  2  0  0  0  0
    0.8250   -0.0000    0.0000 H   0  0  0  0  0  0  0  2  0  0  0  0
    0.0000    0.8250    0.0000 Br  0  0  0  0  0  0  0  2  0  0  0  0
  1  2  1  0        0
  1  3  1  0        0
  1  4  1  0        0
  1  5  1  0        0
M  END
$$$$

CDXL12

  5  4  0  0  0  0  0  0  0  0999 V2000
    0.0000   -0.0000    0.0000 N   0  0  0  0  0  0  0  2  0  0  0  0
   -0.8250   -0.0000    0.0000 H   0  0  0  0  0  0  0  2  0  0  0  0
    0.0000   -0.8250    0.0000 H   0  0  0  0  0  0  0  2  0  0  0  0
    0.8250   -0.0000    0.0000 H   0  0  0  0  0  0  0  2  0  0  0  0
    0.0000    0.8250    0.0000 F   0  0  0  0  0  0  0  2  0  0  0  0
  1  2  1  0        0
  1  3  1  0        0
  1  4  1  0        0
  1  5  1  0        0
M  END
$$$$

CDXL12

 11 11  0  0  0  0  0  0  0  0999 V2000
   -0.6674    0.3146    0.0000 Mn  0  0  0  0  0  0  0  2  0  0  0  0
   -0.4125    1.0992    0.0000 S   0  0  0  0  0  0  0  2  0  0  0  0
    0.4125    1.0992    0.0000 C   0  0  0  0  0  0  0  2  0  0  0  0
    0.8974    1.7667    0.0000 S   0  0  0  0  0  0  0  2  0  0  0  0
    0.6674    0.3146    0.0000 N   0  0  0  0  0  0  0  2  0  0  0  0
    1.2195   -0.2985    0.0000 C   0  0  0  0  0  0  0  2  0  0  0  0
    0.8070   -1.0130    0.0000 C   0  0  0  0  0  0  0  2  0  0  0  0
   -0.0000   -0.8414    0.0000 N   0  0  0  0  0  0  0  2  0  0  0  0
   -0.8070   -1.0130    0.0000 C   0  0  0  0  0  0  0  2  0  0  0  0
   -1.1425   -1.7667    0.0000 S   0  0  0  0  0  0  0  2  0  0  0  0
   -1.2195   -0.2985    0.0000 S   0  0  0  0  0  0  0  2  0  0  0  0
  1  2  1  0        0
  2  3  1  0        0
  3  4  2  0        0
  3  5  1  0        0
  5  6  1  0        0
  6  7  1  0        0
  7  8  1  0        0
  8  9  1  0        0
  9 10  2  0        0
  9 11  1  0        0
  1 11  1  0        0
M  END
$$$$

CDXL12

 19 21  0  0  0  0  0  0  0  0999 V2000
    2.8579    1.1822    0.0000 C   0  0  0  0  0  0  0  2  0  0  0  0
    2.1434    1.5947    0.0000 O   0  0  0  0  0  0  0  2  0  0  0  0
    1.4289    1.1822    0.0000 C   0  0  0  0  0  0  0  2  0  0  0  0
    1.4289    0.3572    0.0000 C   0  0  0  0  0  0  0  2  0  0  0  0
    0.7145   -0.0553    0.0000 C   0  0  0  0  0  0  0  2  0  0  0  0
    0.0000    0.3572    0.0000 C   0  0  0  0  0  0  0  2  0  0  0  0
    0.0000    1.1822    0.0000 C   0  0  0  0  0  0  0  2  0  0  0  0
    0.7145    1.5947    0.0000 C   0  0  0  0  0  0  0  2  0  0  0  0
   -0.7145   -0.0553    0.0000 C   0  0  0  0  0  0  0  2  0  0  0  0
    0.0000   -0.4678    0.0000 O   0  0  0  0  0  0  0  2  0  0  0  0
   -0.7145   -0.8803    0.0000 C   0  0  0  0  0  0  0  2  0  0  0  0
   -0.3020   -1.5947    0.0000 C   0  0  0  0  0  0  0  2  0  0  0  0
   -1.1270   -1.5947    0.0000 C   0  0  0  0  0  0  0  2  0  0  0  0
   -1.4289    0.3572    0.0000 C   0  0  0  0  0  0  0  2  0  0  0  0
   -2.1434   -0.0553    0.0000 C   0  0  0  0  0  0  0  2  0  0  0  0
   -2.8579    0.3572    0.0000 N   0  0  0  0  0  0  0  2  0  0  0  0
   -2.8579    1.1822    0.0000 C   0  0  0  0  0  0  0  2  0  0  0  0
   -2.1434    1.5947    0.0000 N   0  0  0  0  0  0  0  2  0  0  0  0
   -1.4289    1.1822    0.0000 C   0  0  0  0  0  0  0  2  0  0  0  0
  1  2  1  0        0
  2  3  1  0        0
  3  4  4  0        0
  4  5  4  0        0
  5  6  4  0        0
  6  7  4  0        0
  7  8  4  0        0
  3  8  4  0        0
  6  9  1  0        0
  9 10  1  0        0
  9 11  1  0        0
 11 12  1  0        0
 12 13  1  0        0
 11 13  1  0        0
  9 14  1  0        0
 14 15  4  0        0
 15 16  4  0        0
 16 17  4  0        0
 17 18  4  0        0
 18 19  4  0        0
 14 19  4  0        0
M  END
$$$$

CDXL12

 15 15  0  0  0  0  0  0  0  0999 V2000
    3.5724   -0.4125    0.0000 C   0  0  0  0  0  0  0  2  0  0  0  0
    2.8579   -0.0000    0.0000 C   0  0  0  0  0  0  0  2  0  0  0  0
    2.1434   -0.4125    0.0000 C   0  0  0  0  0  0  0  2  0  0  0  0
    1.4289   -0.0000    0.0000 C   0  0  0  0  0  0  0  2  0  0  0  0
    0.7145   -0.4125    0.0000 C   0  0  0  0  0  0  0  2  0  0  0  0
    0.0000   -0.0000    0.0000 O   0  0  0  0  0  0  0  2  0  0  0  0
   -0.7145   -0.4125    0.0000 C   0  0  0  0  0  0  0  2  0  0  0  0
   -0.7145   -1.2375    0.0000 O   0  0  0  0  0  0  0  2  0  0  0  0
   -1.4289    0.0000    0.0000 C   0  0  0  0  0  0  0  2  0  0  0  0
   -1.4289    0.8250    0.0000 C   0  0  0  0  0  0  0  2  0  0  0  0
   -2.1434    1.2375    0.0000 C   0  0  0  0  0  0  0  2  0  0  0  0
   -2.8579    0.8250    0.0000 C   0  0  0  0  0  0  0  2  0  0  0  0
   -3.5724    1.2375    0.0000 N   0  0  0  0  0  0  0  2  0  0  0  0
   -2.8579    0.0000    0.0000 C   0  0  0  0  0  0  0  2  0  0  0  0
   -2.1434   -0.4125    0.0000 C   0  0  0  0  0  0  0  2  0  0  0  0
  1  2  1  0        0
  2  3  1  0        0
  3  4  1  0        0
  4  5  1  0        0
  5  6  1  0        0
  6  7  1  0        0
  7  8  2  0        0
  7  9  1  0        0
  9 10  4  0        0
 10 11  4  0        0
 11 12  4  0        0
 12 13  1  0        0
 12 14  4  0        0
 14 15  4  0        0
  9 15  4  0        0
M  END
$$$$

CDXL12

  7  6  0  0  0  0  0  0  0  0999 V2000
    0.0000   -0.1510    0.0000 C   0  0  0  0  0  0  0  2  0  0  0  0
    0.7145   -0.5635    0.0000 C   0  0  0  0  0  0  0  2  0  0  0  0
    1.4289   -0.1510    0.0000 Cl  0  0  0  0  0  0  0  2  0  0  0  0
   -0.7145   -0.5635    0.0000 C   0  0  0  0  0  0  0  2  0  0  0  0
   -1.4289   -0.1510    0.0000 Cl  0  0  0  0  0  0  0  2  0  0  0  0
    0.4125    0.5635    0.0000 Cl  0  0  0  0  0  0  0  2  0  0  0  0
   -0.4125    0.5635    0.0000 Cl  0  0  0  0  0  0  0  2  0  0  0  0
  1  2  1  0        0
  2  3  1  0        0
  1  4  1  0        0
  4  5  1  0        0
  1  6  1  0        0
  1  7  1  0        0
M  END
$$$$

CDXL12

 18 17  0  0  0  0  0  0  0  0999 V2000
    3.2151    0.0000    0.0000 C   0  0  0  0  0  0  0  2  0  0  0  0
    2.5006    0.4125    0.0000 C   0  0  0  0  0  0  0  2  0  0  0  0
    1.7862   -0.0000    0.0000 N   0  0  0  0  0  0  0  2  0  0  0  0
    1.7862   -0.8250    0.0000 C   0  0  0  0  0  0  0  2  0  0  0  0
    2.5006   -1.2375    0.0000 C   0  0  0  0  0  0  0  2  0  0  0  0
    1.0717    0.4125    0.0000 C   0  0  0  0  0  0  0  2  0  0  0  0
    1.0717    1.2375    0.0000 O   0  0  0  0  0  0  0  2  0  0  0  0
    0.3572   -0.0000    0.0000 C   0  0  0  0  0  0  0  2  0  0  0  0
    0.3572   -0.8250    0.0000 Cl  0  0  0  0  0  0  0  2  0  0  0  0
   -0.3572    0.4125    0.0000 C   0  0  0  0  0  0  0  2  0  0  0  0
   -0.3572    1.2375    0.0000 C   0  0  0  0  0  0  0  2  0  0  0  0
   -1.0717   -0.0000    0.0000 O   0  0  0  0  0  0  0  2  0  0  0  0
   -1.7862    0.4125    0.0000 P   0  0  0  0  0  0  0  2  0  0  0  0
   -1.7862    1.2375    0.0000 O   0  0  0  0  0  0  0  2  0  0  0  0
   -2.5006   -0.0000    0.0000 O   0  0  0  0  0  0  0  2  0  0  0  0
   -3.2151    0.4125    0.0000 C   0  0  0  0  0  0  0  2  0  0  0  0
   -1.7862   -0.4125    0.0000 O   0  0  0  0  0  0  0  2  0  0  0  0
   -2.5006   -0.8250    0.0000 C   0  0  0  0  0  0  0  2  0  0  0  0
  1  2  1  0        0
  2  3  1  0        0
  3  4  1  0        0
  4  5  1  0        0
  3  6  1  0        0
  6  7  2  0        0
  6  8  1  0        0
  8  9  1  0        0
  8 10  2  0        0
 10 11  1  0        0
 10 12  1  0        0
 12 13  1  0        0
 13 14  2  0        0
 13 15  1  0        0
 15 16  1  0        0
 13 17  1  0        0
 17 18  1  0        0
M  END
$$$$

CDXL12

 17 16  0  0  0  0  0  0  0  0999 V2000
    2.8579    0.2062    0.0000 O   0  0  0  0  0  0  0  2  0  0  0  0
    2.1434   -0.2063    0.0000 Si  0  0  0  0  0  0  0  2  0  0  0  0
    2.1434    0.6187    0.0000 C   0  0  0  0  0  0  0  2  0  0  0  0
    2.8579   -0.6187    0.0000 C   0  0  0  0  0  0  0  2  0  0  0  0
    1.4289   -0.6187    0.0000 O   0  0  0  0  0  0  0  2  0  0  0  0
    0.7145   -0.2062    0.0000 Si  0  0  0  0  0  0  0  2  0  0  0  0
    1.1270    0.5082    0.0000 C   0  0  0  0  0  0  0  2  0  0  0  0
    0.3020    0.5082    0.0000 C   0  0  0  0  0  0  0  2  0  0  0  0
    0.0000   -0.6187    0.0000 O   0  0  0  0  0  0  0  2  0  0  0  0
   -0.7145   -0.2063    0.0000 Si  0  0  0  0  0  0  0  2  0  0  0  0
   -0.3020    0.5082    0.0000 C   0  0  0  0  0  0  0  2  0  0  0  0
   -1.1270    0.5082    0.0000 C   0  0  0  0  0  0  0  2  0  0  0  0
   -1.4289   -0.6187    0.0000 O   0  0  0  0  0  0  0  2  0  0  0  0
   -2.1434   -0.2063    0.0000 Si  0  0  0  0  0  0  0  2  0  0  0  0
   -2.8579   -0.6187    0.0000 C   0  0  0  0  0  0  0  2  0  0  0  0
   -2.1434    0.6187    0.0000 C   0  0  0  0  0  0  0  2  0  0  0  0
   -2.8579    0.2062    0.0000 C   0  0  0  0  0  0  0  2  0  0  0  0
  1  2  1  0        0
  2  3  1  0        0
  2  4  1  0        0
  2  5  1  0        0
  5  6  1  0        0
  6  7  1  0        0
  6  8  1  0        0
  6  9  1  0        0
  9 10  1  0        0
 10 11  1  0        0
 10 12  1  0        0
 10 13  1  0        0
 13 14  1  0        0
 14 15  1  0        0
 14 16  1  0        0
 14 17  1  0        0
M  END
$$$$

CDXL12

 24 25  0  0  0  0  0  0  0  0999 V2000
    3.9296    0.4125    0.0000 O   0  0  0  0  0  0  0  2  0  0  0  0
    3.2151    0.0000    0.0000 C   0  0  0  0  0  0  0  2  0  0  0  0
    2.5006    0.4125    0.0000 C   0  0  0  0  0  0  0  2  0  0  0  0
    2.5006    1.2375    0.0000 Br  0  0  0  0  0  0  0  2  0  0  0  0
    1.7862    0.0000    0.0000 C   0  0  0  0  0  0  0  2  0  0  0  0
    1.7862   -0.8250    0.0000 C   0  0  0  0  0  0  0  2  0  0  0  0
    1.0717   -1.2375    0.0000 C   0  0  0  0  0  0  0  2  0  0  0  0
    0.3572   -0.8250    0.0000 N   0  0  0  0  0  0  0  2  0  0  0  0
   -0.3572   -1.2375    0.0000 O   0  0  0  0  0  0  0  2  0  0  0  0
   -1.0717   -0.8250    0.0000 C   0  0  0  0  0  0  0  2  0  0  0  0
   -1.7862   -1.2375    0.0000 C   0  0  0  0  0  0  0  2  0  0  0  0
   -2.5006   -0.8250    0.0000 C   0  0  0  0  0  0  0  2  0  0  0  0
   -2.5006    0.0000    0.0000 C   0  0  0  0  0  0  0  2  0  0  0  0
   -1.7862    0.4125    0.0000 C   0  0  0  0  0  0  0  2  0  0  0  0
   -1.0717    0.0000    0.0000 C   0  0  0  0  0  0  0  2  0  0  0  0
   -0.3572    0.4125    0.0000 N   0  0  0  0  0  0  0  2  0  0  0  0
   -0.3572    1.2375    0.0000 O   0  0  0  0  0  0  0  2  0  0  0  0
    0.3572   -0.0000    0.0000 O   0  0  0  0  0  0  0  2  0  0  0  0
   -3.2151    0.4125    0.0000 N   0  0  0  0  0  0  0  2  0  0  0  0
   -3.2151    1.2375    0.0000 O   0  0  0  0  0  0  0  2  0  0  0  0
   -3.9296    0.0000    0.0000 O   0  0  0  0  0  0  0  2  0  0  0  0
    2.5006   -1.2375    0.0000 C   0  0  0  0  0  0  0  2  0  0  0  0
    3.2151   -0.8250    0.0000 C   0  0  0  0  0  0  0  2  0  0  0  0
    3.9296   -1.2375    0.0000 Br  0  0  0  0  0  0  0  2  0  0  0  0
  1  2  1  0        0
  2  3  4  0        0
  3  4  1  0        0
  3  5  4  0        0
  5  6  4  0        0
  6  7  1  0        0
  7  8  2  0        0
  8  9  1  0        0
  9 10  1  0        0
 10 11  4  0        0
 11 12  4  0        0
 12 13  4  0        0
 13 14  4  0        0
 14 15  4  0        0
 10 15  4  0        0
 15 16  1  0        0
 16 17  2  0        0
 16 18  2  0        0
 13 19  1  0        0
 19 20  2  0        0
 19 21  2  0        0
  6 22  4  0        0
 22 23  4  0        0
  2 23  4  0        0
 23 24  1  0        0
M  END
$$$$

CDXL12

 13 12  0  0  0  0  0  0  0  0999 V2000
   -2.8579   -0.6187    0.0000 C   0  0  0  0  0  0  0  2  0  0  0  0
   -2.1434   -0.2062    0.0000 C   0  0  0  0  0  0  0  2  0  0  0  0
   -1.4289   -0.6188    0.0000 C   0  0  0  0  0  0  0  2  0  0  0  0
   -0.7145   -0.2062    0.0000 S   0  0  0  0  0  0  0  2  0  0  0  0
    0.0000   -0.6188    0.0000 P   0  0  0  0  0  0  0  2  0  0  0  0
    0.0000   -1.4438    0.0000 O   0  0  0  0  0  0  0  2  0  0  0  0
    0.0000    0.2062    0.0000 O   0  0  0  0  0  0  0  2  0  0  0  0
   -0.7145    0.6187    0.0000 C   0  0  0  0  0  0  0  2  0  0  0  0
   -0.7145    1.4438    0.0000 C   0  0  0  0  0  0  0  2  0  0  0  0
    0.7145   -0.2062    0.0000 S   0  0  0  0  0  0  0  2  0  0  0  0
    1.4289   -0.6188    0.0000 C   0  0  0  0  0  0  0  2  0  0  0  0
    2.1434   -0.2062    0.0000 C   0  0  0  0  0  0  0  2  0  0  0  0
    2.8579   -0.6188    0.0000 C   0  0  0  0  0  0  0  2  0  0  0  0
  1  2  1  0        0
  2  3  1  0        0
  3  4  1  0        0
  4  5  1  0        0
  5  6  2  0        0
  5  7  1  0        0
  7  8  1  0        0
  8  9  1  0        0
  5 10  1  0        0
 10 11  1  0        0
 11 12  1  0        0
 12 13  1  0        0
M  END
$$$$

CDXL12

  8  7  0  0  0  0  0  0  0  0999 V2000
   -0.3572    0.6187    0.0000 C   0  0  0  0  0  0  0  2  0  0  0  0
   -0.3572   -0.2062    0.0000 N   0  0  0  0  0  0  0  2  0  0  0  0
    0.3572   -0.6188    0.0000 C   0  0  0  0  0  0  0  2  0  0  0  0
    1.0717   -0.2062    0.0000 C   0  0  0  0  0  0  0  2  0  0  0  0
    1.7862   -0.6187    0.0000 O   0  0  0  0  0  0  0  2  0  0  0  0
    1.0717    0.6188    0.0000 O   0  0  0  0  0  0  0  2  0  0  0  0
   -1.0717   -0.6188    0.0000 N   0  0  0  0  0  0  0  2  0  0  0  0
   -1.7862   -0.2062    0.0000 O   0  0  0  0  0  0  0  2  0  0  0  0
  1  2  1  0        0
  2  3  1  0        0
  3  4  1  0        0
  4  5  1  0        0
  4  6  2  0        0
  2  7  1  0        0
  7  8  2  0        0
M  END
$$$$

CDXL12

 63 68  0  0  0  0  0  0  0  0999 V2000
    0.2015   -2.1146    0.0000 C   0  0  0  0  0  0  0  2  0  0  0  0
    0.6140   -2.8291    0.0000 C   0  0  0  0  0  0  0  2  0  0  0  0
    0.2015   -3.5435    0.0000 C   0  0  0  0  0  0  0  2  0  0  0  0
   -0.6235   -3.5435    0.0000 C   0  0  0  0  0  0  0  2  0  0  0  0
   -1.0360   -2.8291    0.0000 C   0  0  0  0  0  0  0  2  0  0  0  0
   -0.6235   -2.1146    0.0000 C   0  0  0  0  0  0  0  2  0  0  0  0
   -1.0360   -1.4001    0.0000 C   0  0  0  0  0  0  0  2  0  0  0  0
   -1.7505   -0.9876    0.0000 C   0  0  0  0  0  0  0  2  0  0  0  0
   -1.7505   -1.8126    0.0000 C   0  0  0  0  0  0  0  2  0  0  0  0
   -0.6235   -0.6856    0.0000 C   0  0  0  0  0  0  0  2  0  0  0  0
   -1.0360    0.0288    0.0000 Sn  0  0  0  0  0  0  0  2  0  0  0  0
   -1.7505   -0.3837    0.0000 C   0  0  0  0  0  0  0  2  0  0  0  0
   -2.4649    0.0288    0.0000 C   0  0  0  0  0  0  0  2  0  0  0  0
   -2.0524    0.7433    0.0000 C   0  0  0  0  0  0  0  2  0  0  0  0
   -2.8774    0.7433    0.0000 C   0  0  0  0  0  0  0  2  0  0  0  0
   -3.1794   -0.3837    0.0000 C   0  0  0  0  0  0  0  2  0  0  0  0
   -3.1794   -1.2087    0.0000 C   0  0  0  0  0  0  0  2  0  0  0  0
   -3.8939   -1.6212    0.0000 C   0  0  0  0  0  0  0  2  0  0  0  0
   -4.6083   -1.2087    0.0000 C   0  0  0  0  0  0  0  2  0  0  0  0
   -4.6083   -0.3837    0.0000 C   0  0  0  0  0  0  0  2  0  0  0  0
   -3.8939    0.0288    0.0000 C   0  0  0  0  0  0  0  2  0  0  0  0
   -1.4485    0.7433    0.0000 C   0  0  0  0  0  0  0  2  0  0  0  0
   -1.0360    1.4578    0.0000 C   0  0  0  0  0  0  0  2  0  0  0  0
   -0.3215    1.0453    0.0000 C   0  0  0  0  0  0  0  2  0  0  0  0
   -0.3215    1.8703    0.0000 C   0  0  0  0  0  0  0  2  0  0  0  0
   -1.4485    2.1722    0.0000 C   0  0  0  0  0  0  0  2  0  0  0  0
   -2.2735    2.1722    0.0000 C   0  0  0  0  0  0  0  2  0  0  0  0
   -2.6860    2.8867    0.0000 C   0  0  0  0  0  0  0  2  0  0  0  0
   -2.2735    3.6012    0.0000 C   0  0  0  0  0  0  0  2  0  0  0  0
   -1.4485    3.6012    0.0000 C   0  0  0  0  0  0  0  2  0  0  0  0
   -1.0360    2.8867    0.0000 C   0  0  0  0  0  0  0  2  0  0  0  0
   -0.3215    0.4413    0.0000 O   0  0  0  0  0  0  0  2  0  0  0  0
    0.3930    0.0288    0.0000 Sn  0  0  0  0  0  0  0  2  0  0  0  0
    1.1074    0.4413    0.0000 C   0  0  0  0  0  0  0  2  0  0  0  0
    2.4649   -0.3424    0.0000 C   0  0  0  0  0  0  0  2  0  0  0  0
    2.4649   -1.1674    0.0000 C   0  0  0  0  0  0  0  2  0  0  0  0
    3.1794    0.0701    0.0000 C   0  0  0  0  0  0  0  2  0  0  0  0
    3.1794   -0.7549    0.0000 C   0  0  0  0  0  0  0  2  0  0  0  0
    3.8939   -0.3424    0.0000 C   0  0  0  0  0  0  0  2  0  0  0  0
    4.6083   -0.7549    0.0000 C   0  0  0  0  0  0  0  2  0  0  0  0
    4.6083   -1.5799    0.0000 C   0  0  0  0  0  0  0  2  0  0  0  0
    3.8939   -1.9924    0.0000 C   0  0  0  0  0  0  0  2  0  0  0  0
    3.1794   -1.5799    0.0000 C   0  0  0  0  0  0  0  2  0  0  0  0
    1.5361   -0.8787    0.0000 C   0  0  0  0  0  0  0  2  0  0  0  0
    1.5361   -1.9512    0.0000 C   0  0  0  0  0  0  0  2  0  0  0  0
    0.7111   -1.9512    0.0000 C   0  0  0  0  0  0  0  2  0  0  0  0
    1.1236   -2.6656    0.0000 C   0  0  0  0  0  0  0  2  0  0  0  0
    2.2506   -2.3637    0.0000 C   0  0  0  0  0  0  0  2  0  0  0  0
    2.2506   -3.1887    0.0000 C   0  0  0  0  0  0  0  2  0  0  0  0
    2.9651   -3.6012    0.0000 C   0  0  0  0  0  0  0  2  0  0  0  0
    3.6795   -3.1887    0.0000 C   0  0  0  0  0  0  0  2  0  0  0  0
    3.6795   -2.3637    0.0000 C   0  0  0  0  0  0  0  2  0  0  0  0
    2.9651   -1.9512    0.0000 C   0  0  0  0  0  0  0  2  0  0  0  0
    2.4649    0.4826    0.0000 C   0  0  0  0  0  0  0  2  0  0  0  0
    3.1794    0.8951    0.0000 C   0  0  0  0  0  0  0  2  0  0  0  0
    3.5919    0.1806    0.0000 C   0  0  0  0  0  0  0  2  0  0  0  0
    4.0044    0.8951    0.0000 C   0  0  0  0  0  0  0  2  0  0  0  0
    3.1794    1.7201    0.0000 C   0  0  0  0  0  0  0  2  0  0  0  0
    2.4649    2.1326    0.0000 C   0  0  0  0  0  0  0  2  0  0  0  0
    2.4649    2.9576    0.0000 C   0  0  0  0  0  0  0  2  0  0  0  0
    3.1794    3.3701    0.0000 C   0  0  0  0  0  0  0  2  0  0  0  0
    3.8939    2.9576    0.0000 C   0  0  0  0  0  0  0  2  0  0  0  0
    3.8939    2.1326    0.0000 C   0  0  0  0  0  0  0  2  0  0  0  0
  1  2  4  0        0
  2  3  4  0        0
  3  4  4  0        0
  4  5  4  0        0
  5  6  4  0        0
  1  6  4  0        0
  6  7  1  0        0
  7  8  1  0        0
  7  9  1  0        0
  7 10  1  0        0
 10 11  1  0        0
 11 12  1  0        0
 12 13  1  0        0
 13 14  1  0        0
 13 15  1  0        0
 13 16  1  0        0
 16 17  4  0        0
 17 18  4  0        0
 18 19  4  0        0
 19 20  4  0        0
 20 21  4  0        0
 16 21  4  0        0
 11 22  1  0        0
 22 23  1  0        0
 23 24  1  0        0
 23 25  1  0        0
 23 26  1  0        0
 26 27  4  0        0
 27 28  4  0        0
 28 29  4  0        0
 29 30  4  0        0
 30 31  4  0        0
 26 31  4  0        0
 11 32  1  0        0
 32 33  1  0        0
 33 34  1  0        0
 34 35  1  0        0
 35 36  1  0        0
 35 37  1  0        0
 35 38  1  0        0
 38 39  4  0        0
 39 40  4  0        0
 40 41  4  0        0
 41 42  4  0        0
 42 43  4  0        0
 38 43  4  0        0
 35 44  1  0        0
 44 45  1  0        0
 45 46  1  0        0
 45 47  1  0        0
 45 48  1  0        0
 48 49  4  0        0
 49 50  4  0        0
 50 51  4  0        0
 51 52  4  0        0
 52 53  4  0        0
 48 53  4  0        0
 35 54  1  0        0
 54 55  1  0        0
 55 56  1  0        0
 55 57  1  0        0
 55 58  1  0        0
 58 59  4  0        0
 59 60  4  0        0
 60 61  4  0        0
 61 62  4  0        0
 62 63  4  0        0
 58 63  4  0        0
M  END
$$$$

CDXL12

 25 27  0  0  0  0  0  0  0  0999 V2000
   -2.5900   -1.0717    0.0000 C   0  0  0  0  0  0  0  2  0  0  0  0
   -3.0025   -0.3572    0.0000 C   0  0  0  0  0  0  0  2  0  0  0  0
   -2.5900    0.3572    0.0000 C   0  0  0  0  0  0  0  2  0  0  0  0
   -3.0025    1.0717    0.0000 C   0  0  0  0  0  0  0  2  0  0  0  0
   -2.5900    1.7862    0.0000 C   0  0  0  0  0  0  0  2  0  0  0  0
   -3.8275    1.0717    0.0000 C   0  0  0  0  0  0  0  2  0  0  0  0
   -2.6284   -0.2603    0.0000 C   0  0  0  0  0  0  0  2  0  0  0  0
   -2.3190   -0.7962    0.0000 C   0  0  0  0  0  0  0  2  0  0  0  0
   -1.7650   -1.0717    0.0000 C   0  0  0  0  0  0  0  2  0  0  0  0
   -1.3525   -0.3572    0.0000 C   0  0  0  0  0  0  0  2  0  0  0  0
   -1.7650    0.3572    0.0000 C   0  0  0  0  0  0  0  2  0  0  0  0
   -1.2130    0.9703    0.0000 C   0  0  0  0  0  0  0  2  0  0  0  0
   -1.3845    1.7773    0.0000 O   0  0  0  0  0  0  0  2  0  0  0  0
   -0.4593    0.6348    0.0000 N   0  0  0  0  0  0  0  2  0  0  0  0
    0.2552    1.0473    0.0000 C   0  0  0  0  0  0  0  2  0  0  0  0
    0.9696    0.6348    0.0000 C   0  0  0  0  0  0  0  2  0  0  0  0
    0.9696   -0.1902    0.0000 C   0  0  0  0  0  0  0  2  0  0  0  0
    1.6841   -0.6027    0.0000 C   0  0  0  0  0  0  0  2  0  0  0  0
    1.6841    1.0473    0.0000 C   0  0  0  0  0  0  0  2  0  0  0  0
    2.3986    0.6348    0.0000 C   0  0  0  0  0  0  0  2  0  0  0  0
    3.1130    1.0473    0.0000 C   0  0  0  0  0  0  0  2  0  0  0  0
    3.8275    0.6348    0.0000 C   0  0  0  0  0  0  0  2  0  0  0  0
   -0.5455   -0.1857    0.0000 C   0  0  0  0  0  0  0  2  0  0  0  0
    0.0675   -0.7377    0.0000 O   0  0  0  0  0  0  0  2  0  0  0  0
   -1.3525   -1.7862    0.0000 C   0  0  0  0  0  0  0  2  0  0  0  0
  1  2  2  0        0
  2  3  1  0        0
  3  4  1  0        0
  4  5  1  0        0
  4  6  1  0        0
  3  7  1  0        0
  7  8  1  0        0
  8  9  1  0        0
  1  9  1  0        0
  9 10  1  0        0
 10 11  1  0        0
  3 11  1  0        0
 11 12  1  0        0
 12 13  2  0        0
 12 14  1  0        0
 14 15  1  0        0
 15 16  1  0        0
 16 17  1  0        0
 17 18  1  0        0
 16 19  1  0        0
 19 20  1  0        0
 20 21  1  0        0
 21 22  1  0        0
 14 23  1  0        0
 10 23  1  0        0
 23 24  2  0        0
  9 25  1  0        0
M  END
$$$$

CDXL12

 15 15  0  0  0  0  0  0  0  0999 V2000
   -2.8579   -0.4125    0.0000 C   0  0  0  0  0  0  0  2  0  0  0  0
   -2.1434    0.0000    0.0000 O   0  0  0  0  0  0  0  2  0  0  0  0
   -1.4289   -0.4125    0.0000 N   0  0  0  0  0  0  0  2  0  0  0  0
   -1.4289   -1.2375    0.0000 C   0  0  0  0  0  0  0  2  0  0  0  0
   -0.7145    0.0000    0.0000 C   0  0  0  0  0  0  0  2  0  0  0  0
   -0.7145    0.8250    0.0000 O   0  0  0  0  0  0  0  2  0  0  0  0
    0.0000   -0.4125    0.0000 N   0  0  0  0  0  0  0  2  0  0  0  0
    0.7145    0.0000    0.0000 C   0  0  0  0  0  0  0  2  0  0  0  0
    0.7145    0.8250    0.0000 C   0  0  0  0  0  0  0  2  0  0  0  0
    1.4289    1.2375    0.0000 C   0  0  0  0  0  0  0  2  0  0  0  0
    2.1434    0.8250    0.0000 C   0  0  0  0  0  0  0  2  0  0  0  0
    2.8579    1.2375    0.0000 Br  0  0  0  0  0  0  0  2  0  0  0  0
    2.1434    0.0000    0.0000 C   0  0  0  0  0  0  0  2  0  0  0  0
    2.8579   -0.4125    0.0000 Cl  0  0  0  0  0  0  0  2  0  0  0  0
    1.4289   -0.4125    0.0000 C   0  0  0  0  0  0  0  2  0  0  0  0
  1  2  1  0        0
  2  3  1  0        0
  3  4  1  0        0
  3  5  1  0        0
  5  6  2  0        0
  5  7  1  0        0
  7  8  1  0        0
  8  9  4  0        0
  9 10  4  0        0
 10 11  4  0        0
 11 12  1  0        0
 11 13  4  0        0
 13 14  1  0        0
 13 15  4  0        0
  8 15  4  0        0
M  END
$$$$

CDXL12

 24 25  0  0  0  0  0  0  0  0999 V2000
    3.9380    0.6162    0.0000 C   0  0  0  0  0  0  0  2  0  0  0  0
    3.5255   -0.0983    0.0000 C   0  0  0  0  0  0  0  2  0  0  0  0
    2.7005   -0.0983    0.0000 O   0  0  0  0  0  0  0  2  0  0  0  0
    2.2880   -0.8128    0.0000 C   0  0  0  0  0  0  0  2  0  0  0  0
    2.7005   -1.5273    0.0000 O   0  0  0  0  0  0  0  2  0  0  0  0
    1.4630   -0.8128    0.0000 C   0  0  0  0  0  0  0  2  0  0  0  0
    1.0505   -0.0983    0.0000 C   0  0  0  0  0  0  0  2  0  0  0  0
    0.2255   -0.0983    0.0000 N   0  0  0  0  0  0  0  2  0  0  0  0
   -0.3265    0.5148    0.0000 N   0  0  0  0  0  0  0  2  0  0  0  0
   -1.0802    0.1792    0.0000 C   0  0  0  0  0  0  0  2  0  0  0  0
   -1.7946    0.5917    0.0000 O   0  0  0  0  0  0  0  2  0  0  0  0
   -1.7946    1.4167    0.0000 P   0  0  0  0  0  0  0  2  0  0  0  0
   -1.7946    2.2417    0.0000 S   0  0  0  0  0  0  0  2  0  0  0  0
   -2.5091    1.0042    0.0000 O   0  0  0  0  0  0  0  2  0  0  0  0
   -3.2236    1.4167    0.0000 C   0  0  0  0  0  0  0  2  0  0  0  0
   -3.9380    1.0042    0.0000 C   0  0  0  0  0  0  0  2  0  0  0  0
   -1.0802    1.0042    0.0000 O   0  0  0  0  0  0  0  2  0  0  0  0
   -0.3657    1.4167    0.0000 C   0  0  0  0  0  0  0  2  0  0  0  0
    0.3488    1.0042    0.0000 C   0  0  0  0  0  0  0  2  0  0  0  0
   -0.9939   -0.6413    0.0000 C   0  0  0  0  0  0  0  2  0  0  0  0
   -0.1870   -0.8128    0.0000 C   0  0  0  0  0  0  0  2  0  0  0  0
    0.2255   -1.5273    0.0000 N   0  0  0  0  0  0  0  2  0  0  0  0
    1.0505   -1.5273    0.0000 C   0  0  0  0  0  0  0  2  0  0  0  0
    1.4630   -2.2417    0.0000 C   0  0  0  0  0  0  0  2  0  0  0  0
  1  2  1  0        0
  2  3  1  0        0
  3  4  1  0        0
  4  5  2  0        0
  4  6  1  0        0
  6  7  4  0        0
  7  8  4  0        0
  8  9  4  0        0
  9 10  4  0        0
 10 11  1  0        0
 11 12  1  0        0
 12 13  2  0        0
 12 14  1  0        0
 14 15  1  0        0
 15 16  1  0        0
 12 17  1  0        0
 17 18  1  0        0
 18 19  1  0        0
 10 20  4  0        0
 20 21  4  0        0
  8 21  4  0        0
 21 22  4  0        0
 22 23  4  0        0
  6 23  4  0        0
 23 24  1  0        0
M  END
$$$$

CDXL12

 19 20  0  0  0  0  0  0  0  0999 V2000
   -2.8579    0.4125    0.0000 C   0  0  0  0  0  0  0  2  0  0  0  0
   -2.1434    0.8250    0.0000 C   0  0  0  0  0  0  0  2  0  0  0  0
   -1.4289    0.4125    0.0000 O   0  0  0  0  0  0  0  2  0  0  0  0
   -0.7145    0.8250    0.0000 P   0  0  0  0  0  0  0  2  0  0  0  0
   -0.7145    1.6500    0.0000 S   0  0  0  0  0  0  0  2  0  0  0  0
   -0.0000    0.4125    0.0000 O   0  0  0  0  0  0  0  2  0  0  0  0
    0.7145    0.8250    0.0000 C   0  0  0  0  0  0  0  2  0  0  0  0
    1.4289    0.4125    0.0000 C   0  0  0  0  0  0  0  2  0  0  0  0
   -0.7145    0.0000    0.0000 O   0  0  0  0  0  0  0  2  0  0  0  0
   -0.0000   -0.4125    0.0000 C   0  0  0  0  0  0  0  2  0  0  0  0
   -0.0000   -1.2375    0.0000 C   0  0  0  0  0  0  0  2  0  0  0  0
    0.7145   -1.6500    0.0000 N   0  0  0  0  0  0  0  2  0  0  0  0
    1.4289   -1.2375    0.0000 C   0  0  0  0  0  0  0  2  0  0  0  0
    2.1434   -1.6500    0.0000 C   0  0  0  0  0  0  0  2  0  0  0  0
    2.8579   -1.2375    0.0000 C   0  0  0  0  0  0  0  2  0  0  0  0
    2.8579   -0.4125    0.0000 C   0  0  0  0  0  0  0  2  0  0  0  0
    2.1434    0.0000    0.0000 C   0  0  0  0  0  0  0  2  0  0  0  0
    1.4289   -0.4125    0.0000 C   0  0  0  0  0  0  0  2  0  0  0  0
    0.7145    0.0000    0.0000 N   0  0  0  0  0  0  0  2  0  0  0  0
  1  2  1  0        0
  2  3  1  0        0
  3  4  1  0        0
  4  5  2  0        0
  4  6  1  0        0
  6  7  1  0        0
  7  8  1  0        0
  4  9  1  0        0
  9 10  1  0        0
 10 11  4  0        0
 11 12  4  0        0
 12 13  4  0        0
 13 14  4  0        0
 14 15  4  0        0
 15 16  4  0        0
 16 17  4  0        0
 17 18  4  0        0
 13 18  4  0        0
 18 19  4  0        0
 10 19  4  0        0
M  END
$$$$

CDXL12

 10 10  0  0  0  0  0  0  0  0999 V2000
    1.0717    1.2375    0.0000 O   0  0  0  0  0  0  0  2  0  0  0  0
    1.0717    0.4125    0.0000 C   0  0  0  0  0  0  0  2  0  0  0  0
    1.7862   -0.0000    0.0000 O   0  0  0  0  0  0  0  2  0  0  0  0
    0.3572   -0.0000    0.0000 C   0  0  0  0  0  0  0  2  0  0  0  0
   -0.3572    0.4125    0.0000 C   0  0  0  0  0  0  0  2  0  0  0  0
   -1.0717   -0.0000    0.0000 C   0  0  0  0  0  0  0  2  0  0  0  0
   -1.0717   -0.8250    0.0000 N   0  0  0  0  0  0  0  2  0  0  0  0
   -1.7862   -1.2375    0.0000 O   0  0  0  0  0  0  0  2  0  0  0  0
   -0.3572   -1.2375    0.0000 C   0  0  0  0  0  0  0  2  0  0  0  0
    0.3572   -0.8250    0.0000 C   0  0  0  0  0  0  0  2  0  0  0  0
  1  2  2  0        0
  2  3  1  0        0
  2  4  1  0        0
  4  5  1  0        0
  5  6  1  0        0
  6  7  1  0        0
  7  8  2  0        0
  7  9  1  0        0
  9 10  1  0        0
  4 10  1  0        0
M  END
$$$$

CDXL12

 10 10  0  0  0  0  0  0  0  0999 V2000
    0.0000    1.2375    0.0000 O   0  0  0  0  0  0  0  2  0  0  0  0
    0.0000    0.4125    0.0000 C   0  0  0  0  0  0  0  2  0  0  0  0
    0.7145    0.0000    0.0000 C   0  0  0  0  0  0  0  2  0  0  0  0
    1.4289    0.4125    0.0000 O   0  0  0  0  0  0  0  2  0  0  0  0
    0.7145   -0.8250    0.0000 C   0  0  0  0  0  0  0  2  0  0  0  0
    1.4289   -1.2375    0.0000 Cl  0  0  0  0  0  0  0  2  0  0  0  0
    0.0000   -1.2375    0.0000 C   0  0  0  0  0  0  0  2  0  0  0  0
   -0.7145   -0.8250    0.0000 C   0  0  0  0  0  0  0  2  0  0  0  0
   -1.4289   -1.2375    0.0000 Cl  0  0  0  0  0  0  0  2  0  0  0  0
   -0.7145    0.0000    0.0000 C   0  0  0  0  0  0  0  2  0  0  0  0
  1  2  1  0        0
  2  3  4  0        0
  3  4  1  0        0
  3  5  4  0        0
  5  6  1  0        0
  5  7  4  0        0
  7  8  4  0        0
  8  9  1  0        0
  8 10  4  0        0
  2 10  4  0        0
M  END
$$$$

CDXL12

 20 19  0  0  0  0  0  0  0  0999 V2000
    0.0000   -1.4438    0.0000 O   0  0  0  0  0  0  0  2  0  0  0  0
    0.0000   -0.6188    0.0000 P   0  0  0  0  0  0  0  2  0  0  0  0
   -0.7145   -0.2062    0.0000 O   0  0  0  0  0  0  0  2  0  0  0  0
   -1.4289   -0.6188    0.0000 C   0  0  0  0  0  0  0  2  0  0  0  0
   -2.1434   -0.2062    0.0000 C   0  0  0  0  0  0  0  2  0  0  0  0
   -2.8579   -0.6188    0.0000 Cl  0  0  0  0  0  0  0  2  0  0  0  0
   -1.4289   -1.4438    0.0000 C   0  0  0  0  0  0  0  2  0  0  0  0
   -2.1434   -1.8563    0.0000 Cl  0  0  0  0  0  0  0  2  0  0  0  0
    0.7145   -0.2062    0.0000 O   0  0  0  0  0  0  0  2  0  0  0  0
    1.4289   -0.6188    0.0000 C   0  0  0  0  0  0  0  2  0  0  0  0
    2.1434   -0.2062    0.0000 C   0  0  0  0  0  0  0  2  0  0  0  0
    2.8579   -0.6188    0.0000 Cl  0  0  0  0  0  0  0  2  0  0  0  0
    1.4289   -1.4438    0.0000 C   0  0  0  0  0  0  0  2  0  0  0  0
    2.1434   -1.8563    0.0000 Cl  0  0  0  0  0  0  0  2  0  0  0  0
    0.0000    0.2062    0.0000 O   0  0  0  0  0  0  0  2  0  0  0  0
   -0.7145    0.6187    0.0000 C   0  0  0  0  0  0  0  2  0  0  0  0
   -0.7145    1.4437    0.0000 C   0  0  0  0  0  0  0  2  0  0  0  0
   -1.4289    1.8563    0.0000 Cl  0  0  0  0  0  0  0  2  0  0  0  0
   -1.4289    0.2062    0.0000 C   0  0  0  0  0  0  0  2  0  0  0  0
   -2.1434    0.6188    0.0000 Cl  0  0  0  0  0  0  0  2  0  0  0  0
  1  2  2  0        0
  2  3  1  0        0
  3  4  1  0        0
  4  5  1  0        0
  5  6  1  0        0
  4  7  1  0        0
  7  8  1  0        0
  2  9  1  0        0
  9 10  1  0        0
 10 11  1  0        0
 11 12  1  0        0
 10 13  1  0        0
 13 14  1  0        0
  2 15  1  0        0
 15 16  1  0        0
 16 17  1  0        0
 17 18  1  0        0
 16 19  1  0        0
 19 20  1  0        0
M  END
$$$$

CDXL12

 22 23  0  0  0  0  0  0  0  0999 V2000
    4.6441   -0.8250    0.0000 C   0  0  0  0  0  0  0  2  0  0  0  0
    3.9296   -0.4125    0.0000 C   0  0  0  0  0  0  0  2  0  0  0  0
    3.2151   -0.8250    0.0000 O   0  0  0  0  0  0  0  2  0  0  0  0
    2.5006   -0.4125    0.0000 C   0  0  0  0  0  0  0  2  0  0  0  0
    2.5006    0.4125    0.0000 O   0  0  0  0  0  0  0  2  0  0  0  0
    1.7862   -0.8250    0.0000 N   0  0  0  0  0  0  0  2  0  0  0  0
    1.0717   -0.4125    0.0000 C   0  0  0  0  0  0  0  2  0  0  0  0
    1.0717    0.4125    0.0000 C   0  0  0  0  0  0  0  2  0  0  0  0
    0.3572    0.8250    0.0000 C   0  0  0  0  0  0  0  2  0  0  0  0
   -0.3572    0.4125    0.0000 C   0  0  0  0  0  0  0  2  0  0  0  0
   -0.3572   -0.4125    0.0000 C   0  0  0  0  0  0  0  2  0  0  0  0
   -1.0717   -0.8250    0.0000 O   0  0  0  0  0  0  0  2  0  0  0  0
   -1.7862   -0.4125    0.0000 C   0  0  0  0  0  0  0  2  0  0  0  0
   -1.7862    0.4125    0.0000 O   0  0  0  0  0  0  0  2  0  0  0  0
   -2.5006   -0.8250    0.0000 N   0  0  0  0  0  0  0  2  0  0  0  0
   -3.2151   -0.4125    0.0000 C   0  0  0  0  0  0  0  2  0  0  0  0
   -3.2151    0.4125    0.0000 C   0  0  0  0  0  0  0  2  0  0  0  0
   -3.9296    0.8250    0.0000 C   0  0  0  0  0  0  0  2  0  0  0  0
   -4.6441    0.4125    0.0000 C   0  0  0  0  0  0  0  2  0  0  0  0
   -4.6441   -0.4125    0.0000 C   0  0  0  0  0  0  0  2  0  0  0  0
   -3.9296   -0.8250    0.0000 C   0  0  0  0  0  0  0  2  0  0  0  0
    0.3572   -0.8250    0.0000 C   0  0  0  0  0  0  0  2  0  0  0  0
  1  2  1  0        0
  2  3  1  0        0
  3  4  1  0        0
  4  5  2  0        0
  4  6  1  0        0
  6  7  1  0        0
  7  8  4  0        0
  8  9  4  0        0
  9 10  4  0        0
 10 11  4  0        0
 11 12  1  0        0
 12 13  1  0        0
 13 14  2  0        0
 13 15  1  0        0
 15 16  1  0        0
 16 17  4  0        0
 17 18  4  0        0
 18 19  4  0        0
 19 20  4  0        0
 20 21  4  0        0
 16 21  4  0        0
 11 22  4  0        0
  7 22  4  0        0
M  END
$$$$

CDXL12

 22 23  0  0  0  0  0  0  0  0999 V2000
   -2.5006    0.4125    0.0000 C   0  0  0  0  0  0  0  2  0  0  0  0
   -3.2151    0.8250    0.0000 C   0  0  0  0  0  0  0  2  0  0  0  0
   -3.9296    0.4125    0.0000 C   0  0  0  0  0  0  0  2  0  0  0  0
   -3.9296   -0.4125    0.0000 C   0  0  0  0  0  0  0  2  0  0  0  0
   -4.6441   -0.8250    0.0000 C   0  0  0  0  0  0  0  2  0  0  0  0
   -3.2151   -0.8250    0.0000 C   0  0  0  0  0  0  0  2  0  0  0  0
   -2.5006   -0.4125    0.0000 C   0  0  0  0  0  0  0  2  0  0  0  0
   -1.7862   -0.8250    0.0000 N   0  0  0  0  0  0  0  2  0  0  0  0
   -1.0717   -0.4125    0.0000 C   0  0  0  0  0  0  0  2  0  0  0  0
   -1.0717    0.4125    0.0000 O   0  0  0  0  0  0  0  2  0  0  0  0
   -0.3572   -0.8250    0.0000 O   0  0  0  0  0  0  0  2  0  0  0  0
    0.3572   -0.4125    0.0000 C   0  0  0  0  0  0  0  2  0  0  0  0
    0.3572    0.4125    0.0000 C   0  0  0  0  0  0  0  2  0  0  0  0
    1.0717    0.8250    0.0000 C   0  0  0  0  0  0  0  2  0  0  0  0
    1.7862    0.4125    0.0000 C   0  0  0  0  0  0  0  2  0  0  0  0
    1.7862   -0.4125    0.0000 C   0  0  0  0  0  0  0  2  0  0  0  0
    2.5006   -0.8250    0.0000 N   0  0  0  0  0  0  0  2  0  0  0  0
    3.2151   -0.4125    0.0000 C   0  0  0  0  0  0  0  2  0  0  0  0
    3.2151    0.4125    0.0000 O   0  0  0  0  0  0  0  2  0  0  0  0
    3.9296   -0.8250    0.0000 O   0  0  0  0  0  0  0  2  0  0  0  0
    4.6441   -0.4125    0.0000 C   0  0  0  0  0  0  0  2  0  0  0  0
    1.0717   -0.8250    0.0000 C   0  0  0  0  0  0  0  2  0  0  0  0
  1  2  4  0        0
  2  3  4  0        0
  3  4  4  0        0
  4  5  1  0        0
  4  6  4  0        0
  6  7  4  0        0
  1  7  4  0        0
  7  8  1  0        0
  8  9  1  0        0
  9 10  2  0        0
  9 11  1  0        0
 11 12  1  0        0
 12 13  4  0        0
 13 14  4  0        0
 14 15  4  0        0
 15 16  4  0        0
 16 17  1  0        0
 17 18  1  0        0
 18 19  2  0        0
 18 20  1  0        0
 20 21  1  0        0
 16 22  4  0        0
 12 22  4  0        0
M  END
$$$$

CDXL12

 10  9  0  0  0  0  0  0  0  0999 V2000
   -1.0717   -1.0312    0.0000 F   0  0  0  0  0  0  0  2  0  0  0  0
   -1.0717   -0.2062    0.0000 C   0  0  0  0  0  0  0  2  0  0  0  0
   -1.7862    0.2062    0.0000 F   0  0  0  0  0  0  0  2  0  0  0  0
   -0.3572    0.2062    0.0000 O   0  0  0  0  0  0  0  2  0  0  0  0
    0.3572   -0.2062    0.0000 C   0  0  0  0  0  0  0  2  0  0  0  0
   -0.0553   -0.9207    0.0000 F   0  0  0  0  0  0  0  2  0  0  0  0
    0.7697   -0.9207    0.0000 F   0  0  0  0  0  0  0  2  0  0  0  0
    1.0717    0.2062    0.0000 C   0  0  0  0  0  0  0  2  0  0  0  0
    1.0717    1.0312    0.0000 F   0  0  0  0  0  0  0  2  0  0  0  0
    1.7862   -0.2062    0.0000 Cl  0  0  0  0  0  0  0  2  0  0  0  0
  1  2  1  0        0
  2  3  1  0        0
  2  4  1  0        0
  4  5  1  0        0
  5  6  1  0        0
  5  7  1  0        0
  5  8  1  0        0
  8  9  1  0        0
  8 10  1  0        0
M  END
$$$$

CDXL12

  5  4  0  0  0  0  0  0  0  0999 V2000
    0.3572    0.6187    0.0000 N   0  0  0  0  0  0  0  2  0  0  0  0
    0.3572   -0.2062    0.0000 C   0  0  0  0  0  0  0  2  0  0  0  0
   -0.3572   -0.6187    0.0000 C   0  0  0  0  0  0  0  2  0  0  0  0
   -1.0717   -0.2062    0.0000 C   0  0  0  0  0  0  0  2  0  0  0  0
    1.0717   -0.6187    0.0000 C   0  0  0  0  0  0  0  2  0  0  0  0
  1  2  1  0        0
  2  3  1  0        0
  3  4  1  0        0
  2  5  1  0        0
M  END
$$$$

CDXL12

 26 28  0  0  0  0  0  0  0  0999 V2000
    3.5724   -0.4125    0.0000 C   0  0  0  0  0  0  0  2  0  0  0  0
    3.5724    0.4125    0.0000 C   0  0  0  0  0  0  0  2  0  0  0  0
    2.8579    0.8250    0.0000 C   0  0  0  0  0  0  0  2  0  0  0  0
    2.1434    0.4125    0.0000 C   0  0  0  0  0  0  0  2  0  0  0  0
    1.4289    0.8250    0.0000 O   0  0  0  0  0  0  0  2  0  0  0  0
    1.4289    1.6500    0.0000 C   0  0  0  0  0  0  0  2  0  0  0  0
    0.7145    2.0625    0.0000 C   0  0  0  0  0  0  0  2  0  0  0  0
    0.0000    1.6500    0.0000 O   0  0  0  0  0  0  0  2  0  0  0  0
   -0.7145    2.0625    0.0000 C   0  0  0  0  0  0  0  2  0  0  0  0
   -1.4289    1.6500    0.0000 C   0  0  0  0  0  0  0  2  0  0  0  0
   -1.4289    0.8250    0.0000 O   0  0  0  0  0  0  0  2  0  0  0  0
   -2.1434    0.4125    0.0000 C   0  0  0  0  0  0  0  2  0  0  0  0
   -2.8579    0.8250    0.0000 C   0  0  0  0  0  0  0  2  0  0  0  0
   -3.5724    0.4125    0.0000 C   0  0  0  0  0  0  0  2  0  0  0  0
   -3.5724   -0.4125    0.0000 C   0  0  0  0  0  0  0  2  0  0  0  0
   -2.8579   -0.8250    0.0000 C   0  0  0  0  0  0  0  2  0  0  0  0
   -2.1434   -0.4125    0.0000 C   0  0  0  0  0  0  0  2  0  0  0  0
   -1.4289   -0.8250    0.0000 O   0  0  0  0  0  0  0  2  0  0  0  0
   -1.4289   -1.6500    0.0000 C   0  0  0  0  0  0  0  2  0  0  0  0
   -0.7145   -2.0625    0.0000 C   0  0  0  0  0  0  0  2  0  0  0  0
    0.0000   -1.6500    0.0000 O   0  0  0  0  0  0  0  2  0  0  0  0
    0.7145   -2.0625    0.0000 C   0  0  0  0  0  0  0  2  0  0  0  0
    1.4289   -1.6500    0.0000 C   0  0  0  0  0  0  0  2  0  0  0  0
    1.4289   -0.8250    0.0000 O   0  0  0  0  0  0  0  2  0  0  0  0
    2.1434   -0.4125    0.0000 C   0  0  0  0  0  0  0  2  0  0  0  0
    2.8579   -0.8250    0.0000 C   0  0  0  0  0  0  0  2  0  0  0  0
  1  2  4  0        0
  2  3  4  0        0
  3  4  4  0        0
  4  5  1  0        0
  5  6  1  0        0
  6  7  1  0        0
  7  8  1  0        0
  8  9  1  0        0
  9 10  1  0        0
 10 11  1  0        0
 11 12  1  0        0
 12 13  4  0        0
 13 14  4  0        0
 14 15  4  0        0
 15 16  4  0        0
 16 17  4  0        0
 12 17  4  0        0
 17 18  1  0        0
 18 19  1  0        0
 19 20  1  0        0
 20 21  1  0        0
 21 22  1  0        0
 22 23  1  0        0
 23 24  1  0        0
 24 25  1  0        0
  4 25  4  0        0
 25 26  4  0        0
  1 26  4  0        0
M  END
$$$$

CDXL12

 10  9  0  0  0  0  0  0  0  0999 V2000
   -1.5947   -0.7145    0.0000 O   0  0  0  0  0  0  0  2  0  0  0  0
   -0.7697   -0.7145    0.0000 C   0  0  0  0  0  0  0  2  0  0  0  0
   -0.3572   -0.0000    0.0000 C   0  0  0  0  0  0  0  2  0  0  0  0
   -1.0717    0.4125    0.0000 C   0  0  0  0  0  0  0  2  0  0  0  0
   -1.7862   -0.0000    0.0000 C   0  0  0  0  0  0  0  2  0  0  0  0
    0.0553    0.7145    0.0000 C   0  0  0  0  0  0  0  2  0  0  0  0
    0.8803    0.7145    0.0000 C   0  0  0  0  0  0  0  2  0  0  0  0
    0.3572   -0.4125    0.0000 C   0  0  0  0  0  0  0  2  0  0  0  0
    1.0717    0.0000    0.0000 C   0  0  0  0  0  0  0  2  0  0  0  0
    1.7862   -0.4125    0.0000 C   0  0  0  0  0  0  0  2  0  0  0  0
  1  2  1  0        0
  2  3  1  0        0
  3  4  1  0        0
  4  5  1  0        0
  3  6  1  0        0
  6  7  1  0        0
  3  8  1  0        0
  8  9  1  0        0
  9 10  1  0        0
M  END
$$$$

CDXL12

 21 22  0  0  0  0  0  0  0  0999 V2000
    4.2868   -0.0000    0.0000 C   0  0  0  0  0  0  0  2  0  0  0  0
    3.5724   -0.4125    0.0000 O   0  0  0  0  0  0  0  2  0  0  0  0
    2.8579   -0.0000    0.0000 C   0  0  0  0  0  0  0  2  0  0  0  0
    2.1434   -0.4125    0.0000 C   0  0  0  0  0  0  0  2  0  0  0  0
    1.4289   -0.0000    0.0000 C   0  0  0  0  0  0  0  2  0  0  0  0
    1.4289    0.8250    0.0000 C   0  0  0  0  0  0  0  2  0  0  0  0
    0.7145    1.2375    0.0000 O   0  0  0  0  0  0  0  2  0  0  0  0
    0.0000    0.8250    0.0000 C   0  0  0  0  0  0  0  2  0  0  0  0
    0.0000   -0.0000    0.0000 C   0  0  0  0  0  0  0  2  0  0  0  0
   -0.7145   -0.4125    0.0000 C   0  0  0  0  0  0  0  2  0  0  0  0
   -1.4289   -0.0000    0.0000 C   0  0  0  0  0  0  0  2  0  0  0  0
   -2.1434   -0.4125    0.0000 N   0  0  0  0  0  0  0  2  0  0  0  0
   -2.8579   -0.0000    0.0000 C   0  0  0  0  0  0  0  2  0  0  0  0
   -2.8579    0.8250    0.0000 O   0  0  0  0  0  0  0  2  0  0  0  0
   -3.5724   -0.4125    0.0000 N   0  0  0  0  0  0  0  2  0  0  0  0
   -3.5724   -1.2375    0.0000 C   0  0  0  0  0  0  0  2  0  0  0  0
   -4.2868   -0.0000    0.0000 C   0  0  0  0  0  0  0  2  0  0  0  0
   -1.4289    0.8250    0.0000 C   0  0  0  0  0  0  0  2  0  0  0  0
   -0.7145    1.2375    0.0000 C   0  0  0  0  0  0  0  2  0  0  0  0
    2.1434    1.2375    0.0000 C   0  0  0  0  0  0  0  2  0  0  0  0
    2.8579    0.8250    0.0000 C   0  0  0  0  0  0  0  2  0  0  0  0
  1  2  1  0        0
  2  3  1  0        0
  3  4  4  0        0
  4  5  4  0        0
  5  6  4  0        0
  6  7  1  0        0
  7  8  1  0        0
  8  9  4  0        0
  9 10  4  0        0
 10 11  4  0        0
 11 12  1  0        0
 12 13  1  0        0
 13 14  2  0        0
 13 15  1  0        0
 15 16  1  0        0
 15 17  1  0        0
 11 18  4  0        0
 18 19  4  0        0
  8 19  4  0        0
  6 20  4  0        0
 20 21  4  0        0
  3 21  4  0        0
M  END
$$$$

CDXL12

 18 18  0  0  0  0  0  0  0  0999 V2000
   -1.7862   -1.2375    0.0000 O   0  0  0  0  0  0  0  2  0  0  0  0
   -1.7862   -0.4125    0.0000 C   0  0  0  0  0  0  0  2  0  0  0  0
   -1.0717    0.0000    0.0000 O   0  0  0  0  0  0  0  2  0  0  0  0
   -0.3572   -0.4125    0.0000 C   0  0  0  0  0  0  0  2  0  0  0  0
    0.3572   -0.0000    0.0000 C   0  0  0  0  0  0  0  2  0  0  0  0
    1.0717   -0.4125    0.0000 C   0  0  0  0  0  0  0  2  0  0  0  0
    1.7862   -0.0000    0.0000 C   0  0  0  0  0  0  0  2  0  0  0  0
    2.5006   -0.4125    0.0000 C   0  0  0  0  0  0  0  2  0  0  0  0
    3.2151   -0.0000    0.0000 C   0  0  0  0  0  0  0  2  0  0  0  0
    3.9296   -0.4125    0.0000 C   0  0  0  0  0  0  0  2  0  0  0  0
    4.6441   -0.0000    0.0000 C   0  0  0  0  0  0  0  2  0  0  0  0
   -2.5006    0.0000    0.0000 C   0  0  0  0  0  0  0  2  0  0  0  0
   -2.5006    0.8250    0.0000 C   0  0  0  0  0  0  0  2  0  0  0  0
   -3.2151    1.2375    0.0000 C   0  0  0  0  0  0  0  2  0  0  0  0
   -3.9296    0.8250    0.0000 C   0  0  0  0  0  0  0  2  0  0  0  0
   -4.6441    1.2375    0.0000 N   0  0  0  0  0  0  0  2  0  0  0  0
   -3.9296    0.0000    0.0000 C   0  0  0  0  0  0  0  2  0  0  0  0
   -3.2151   -0.4125    0.0000 C   0  0  0  0  0  0  0  2  0  0  0  0
  1  2  2  0        0
  2  3  1  0        0
  3  4  1  0        0
  4  5  1  0        0
  5  6  1  0        0
  6  7  1  0        0
  7  8  1  0        0
  8  9  1  0        0
  9 10  1  0        0
 10 11  1  0        0
  2 12  1  0        0
 12 13  4  0        0
 13 14  4  0        0
 14 15  4  0        0
 15 16  1  0        0
 15 17  4  0        0
 17 18  4  0        0
 12 18  4  0        0
M  END
$$$$

CDXL12

 10 11  0  0  0  0  0  0  0  0999 V2000
    1.2216    0.6674    0.0000 S   0  0  0  0  0  0  0  2  0  0  0  0
    1.7065   -0.0000    0.0000 C   0  0  0  0  0  0  0  2  0  0  0  0
    1.2216   -0.6674    0.0000 C   0  0  0  0  0  0  0  2  0  0  0  0
    0.4369   -0.4125    0.0000 C   0  0  0  0  0  0  0  2  0  0  0  0
    0.4369    0.4125    0.0000 C   0  0  0  0  0  0  0  2  0  0  0  0
   -0.2775    0.8250    0.0000 C   0  0  0  0  0  0  0  2  0  0  0  0
   -0.9920    0.4125    0.0000 C   0  0  0  0  0  0  0  2  0  0  0  0
   -0.9920   -0.4125    0.0000 C   0  0  0  0  0  0  0  2  0  0  0  0
   -1.7065   -0.8250    0.0000 C   0  0  0  0  0  0  0  2  0  0  0  0
   -0.2775   -0.8250    0.0000 C   0  0  0  0  0  0  0  2  0  0  0  0
  1  2  4  0        0
  2  3  4  0        0
  3  4  4  0        0
  4  5  4  0        0
  1  5  4  0        0
  5  6  4  0        0
  6  7  4  0        0
  7  8  4  0        0
  8  9  1  0        0
  8 10  4  0        0
  4 10  4  0        0
M  END
$$$$

CDXL12

 14 14  0  0  0  0  0  0  0  0999 V2000
    1.0717   -1.2375    0.0000 O   0  0  0  0  0  0  0  2  0  0  0  0
    1.0717   -0.4125    0.0000 C   0  0  0  0  0  0  0  2  0  0  0  0
    1.7862    0.0000    0.0000 O   0  0  0  0  0  0  0  2  0  0  0  0
    2.5006   -0.4125    0.0000 C   0  0  0  0  0  0  0  2  0  0  0  0
    3.2151   -0.0000    0.0000 C   0  0  0  0  0  0  0  2  0  0  0  0
    0.3572   -0.0000    0.0000 C   0  0  0  0  0  0  0  2  0  0  0  0
   -0.3572   -0.4125    0.0000 O   0  0  0  0  0  0  0  2  0  0  0  0
   -1.0717   -0.0000    0.0000 C   0  0  0  0  0  0  0  2  0  0  0  0
   -1.7862   -0.4125    0.0000 C   0  0  0  0  0  0  0  2  0  0  0  0
   -2.5006    0.0000    0.0000 C   0  0  0  0  0  0  0  2  0  0  0  0
   -2.5006    0.8250    0.0000 C   0  0  0  0  0  0  0  2  0  0  0  0
   -3.2151    1.2375    0.0000 Cl  0  0  0  0  0  0  0  2  0  0  0  0
   -1.7862    1.2375    0.0000 C   0  0  0  0  0  0  0  2  0  0  0  0
   -1.0717    0.8250    0.0000 C   0  0  0  0  0  0  0  2  0  0  0  0
  1  2  2  0        0
  2  3  1  0        0
  3  4  1  0        0
  4  5  1  0        0
  2  6  1  0        0
  6  7  1  0        0
  7  8  1  0        0
  8  9  4  0        0
  9 10  4  0        0
 10 11  4  0        0
 11 12  1  0        0
 11 13  4  0        0
 13 14  4  0        0
  8 14  4  0        0
M  END
$$$$

CDXL12

 14 14  0  0  0  0  0  0  0  0999 V2000
    2.8579    0.4125    0.0000 C   0  0  0  0  0  0  0  2  0  0  0  0
    2.1434   -0.0000    0.0000 O   0  0  0  0  0  0  0  2  0  0  0  0
    1.4289    0.4125    0.0000 C   0  0  0  0  0  0  0  2  0  0  0  0
    1.4289    1.2375    0.0000 O   0  0  0  0  0  0  0  2  0  0  0  0
    0.7145   -0.0000    0.0000 C   0  0  0  0  0  0  0  2  0  0  0  0
    0.7145   -0.8250    0.0000 Cl  0  0  0  0  0  0  0  2  0  0  0  0
    0.0000    0.4125    0.0000 C   0  0  0  0  0  0  0  2  0  0  0  0
   -0.7145   -0.0000    0.0000 C   0  0  0  0  0  0  0  2  0  0  0  0
   -0.7145   -0.8250    0.0000 C   0  0  0  0  0  0  0  2  0  0  0  0
   -1.4289   -1.2375    0.0000 C   0  0  0  0  0  0  0  2  0  0  0  0
   -2.1434   -0.8250    0.0000 C   0  0  0  0  0  0  0  2  0  0  0  0
   -2.8579   -1.2375    0.0000 Cl  0  0  0  0  0  0  0  2  0  0  0  0
   -2.1434   -0.0000    0.0000 C   0  0  0  0  0  0  0  2  0  0  0  0
   -1.4289    0.4125    0.0000 C   0  0  0  0  0  0  0  2  0  0  0  0
  1  2  1  0        0
  2  3  1  0        0
  3  4  2  0        0
  3  5  1  0        0
  5  6  1  0        0
  5  7  1  0        0
  7  8  1  0        0
  8  9  4  0        0
  9 10  4  0        0
 10 11  4  0        0
 11 12  1  0        0
 11 13  4  0        0
 13 14  4  0        0
  8 14  4  0        0
M  END
$$$$

CDXL12

 19 18  0  0  0  0  0  0  0  0999 V2000
   -0.3572   -0.0000    0.0000 Fe  0  0  0  0  0  0  0  2  0  0  0  0
   -1.0717   -0.4125    0.0000 S   0  0  0  0  0  0  0  2  0  0  0  0
   -1.0717   -1.2375    0.0000 C   0  0  0  0  0  0  0  2  0  0  0  0
   -0.3572   -1.6500    0.0000 S   0  0  0  0  0  0  0  2  0  0  0  0
   -1.7862   -1.6500    0.0000 N   0  0  0  0  0  0  0  2  0  0  0  0
   -2.5006   -1.2375    0.0000 C   0  0  0  0  0  0  0  2  0  0  0  0
   -1.7862   -2.4750    0.0000 C   0  0  0  0  0  0  0  2  0  0  0  0
    0.3572   -0.4125    0.0000 S   0  0  0  0  0  0  0  2  0  0  0  0
    1.0717   -0.0000    0.0000 C   0  0  0  0  0  0  0  2  0  0  0  0
    1.0717    0.8250    0.0000 S   0  0  0  0  0  0  0  2  0  0  0  0
    1.7862   -0.4125    0.0000 N   0  0  0  0  0  0  0  2  0  0  0  0
    2.5006   -0.0000    0.0000 C   0  0  0  0  0  0  0  2  0  0  0  0
    1.7862   -1.2375    0.0000 C   0  0  0  0  0  0  0  2  0  0  0  0
   -0.3572    0.8250    0.0000 S   0  0  0  0  0  0  0  2  0  0  0  0
   -1.0717    1.2375    0.0000 C   0  0  0  0  0  0  0  2  0  0  0  0
   -1.7862    0.8250    0.0000 S   0  0  0  0  0  0  0  2  0  0  0  0
   -1.0717    2.0625    0.0000 N   0  0  0  0  0  0  0  2  0  0  0  0
   -0.3572    2.4750    0.0000 C   0  0  0  0  0  0  0  2  0  0  0  0
   -1.7862    2.4750    0.0000 C   0  0  0  0  0  0  0  2  0  0  0  0
  1  2  1  0        0
  2  3  1  0        0
  3  4  2  0        0
  3  5  1  0        0
  5  6  1  0        0
  5  7  1  0        0
  1  8  1  0        0
  8  9  1  0        0
  9 10  2  0        0
  9 11  1  0        0
 11 12  1  0        0
 11 13  1  0        0
  1 14  1  0        0
 14 15  1  0        0
 15 16  2  0        0
 15 17  1  0        0
 17 18  1  0        0
 17 19  1  0        0
M  END
$$$$

CDXL12

  7  6  0  0  0  0  0  0  0  0999 V2000
   -2.1434   -0.2062    0.0000 C   0  0  0  0  0  0  0  2  0  0  0  0
   -1.4289    0.2062    0.0000 C   0  0  0  0  0  0  0  2  0  0  0  0
   -0.7145   -0.2062    0.0000 C   0  0  0  0  0  0  0  2  0  0  0  0
    0.0000    0.2062    0.0000 C   0  0  0  0  0  0  0  2  0  0  0  0
    0.7145   -0.2062    0.0000 C   0  0  0  0  0  0  0  2  0  0  0  0
    1.4289    0.2062    0.0000 C   0  0  0  0  0  0  0  2  0  0  0  0
    2.1434   -0.2062    0.0000 C   0  0  0  0  0  0  0  2  0  0  0  0
  1  2  1  0        0
  2  3  1  0        0
  3  4  1  0        0
  4  5  1  0        0
  5  6  2  0        0
  6  7  1  0        0
M  END
$$$$

CDXL12

 20 20  0  0  0  0  0  0  0  0999 V2000
   -0.7145   -0.6187    0.0000 C   0  0  0  0  0  0  0  2  0  0  0  0
   -0.7145   -1.4437    0.0000 C   0  0  0  0  0  0  0  2  0  0  0  0
   -1.4289   -1.8562    0.0000 C   0  0  0  0  0  0  0  2  0  0  0  0
   -2.1434   -1.4437    0.0000 C   0  0  0  0  0  0  0  2  0  0  0  0
   -2.1434   -0.6187    0.0000 C   0  0  0  0  0  0  0  2  0  0  0  0
   -2.8579   -0.2062    0.0000 Cl  0  0  0  0  0  0  0  2  0  0  0  0
   -1.4289   -0.2062    0.0000 C   0  0  0  0  0  0  0  2  0  0  0  0
   -1.4289    0.6188    0.0000 C   0  0  0  0  0  0  0  2  0  0  0  0
   -2.1434    1.0312    0.0000 C   0  0  0  0  0  0  0  2  0  0  0  0
   -2.8579    1.4437    0.0000 N   0  0  0  0  0  0  0  2  0  0  0  0
   -0.7145    1.0313    0.0000 N   0  0  0  0  0  0  0  2  0  0  0  0
   -0.0000    0.6188    0.0000 O   0  0  0  0  0  0  0  2  0  0  0  0
    0.7145    1.0312    0.0000 P   0  0  0  0  0  0  0  2  0  0  0  0
    0.7145    1.8562    0.0000 S   0  0  0  0  0  0  0  2  0  0  0  0
    1.4289    0.6188    0.0000 O   0  0  0  0  0  0  0  2  0  0  0  0
    2.1434    1.0312    0.0000 C   0  0  0  0  0  0  0  2  0  0  0  0
    2.8579    0.6188    0.0000 C   0  0  0  0  0  0  0  2  0  0  0  0
    0.7145    0.2063    0.0000 O   0  0  0  0  0  0  0  2  0  0  0  0
    1.4289   -0.2062    0.0000 C   0  0  0  0  0  0  0  2  0  0  0  0
    1.4289   -1.0312    0.0000 C   0  0  0  0  0  0  0  2  0  0  0  0
  1  2  4  0        0
  2  3  4  0        0
  3  4  4  0        0
  4  5  4  0        0
  5  6  1  0        0
  5  7  4  0        0
  1  7  4  0        0
  7  8  1  0        0
  8  9  1  0        0
  9 10  3  0        0
  8 11  2  0        0
 11 12  1  0        0
 12 13  1  0        0
 13 14  2  0        0
 13 15  1  0        0
 15 16  1  0        0
 16 17  1  0        0
 13 18  1  0        0
 18 19  1  0        0
 19 20  1  0        0
M  END
$$$$

CDXL12

 12 12  0  0  0  0  0  0  0  0999 V2000
    2.8579    0.8250    0.0000 O   0  0  0  0  0  0  0  2  0  0  0  0
    2.1434    0.4125    0.0000 C   0  0  0  0  0  0  0  2  0  0  0  0
    2.1434   -0.4125    0.0000 C   0  0  0  0  0  0  0  2  0  0  0  0
    1.4289   -0.8250    0.0000 C   0  0  0  0  0  0  0  2  0  0  0  0
    0.7145   -0.4125    0.0000 C   0  0  0  0  0  0  0  2  0  0  0  0
    0.7145    0.4125    0.0000 C   0  0  0  0  0  0  0  2  0  0  0  0
    1.4289    0.8250    0.0000 C   0  0  0  0  0  0  0  2  0  0  0  0
    0.0000   -0.8250    0.0000 C   0  0  0  0  0  0  0  2  0  0  0  0
   -0.7145   -0.4125    0.0000 C   0  0  0  0  0  0  0  2  0  0  0  0
   -1.4289   -0.8250    0.0000 C   0  0  0  0  0  0  0  2  0  0  0  0
   -2.1434   -0.4125    0.0000 C   0  0  0  0  0  0  0  2  0  0  0  0
   -2.8579   -0.8250    0.0000 C   0  0  0  0  0  0  0  2  0  0  0  0
  1  2  1  0        0
  2  3  4  0        0
  3  4  4  0        0
  4  5  4  0        0
  5  6  4  0        0
  6  7  4  0        0
  2  7  4  0        0
  5  8  1  0        0
  8  9  1  0        0
  9 10  1  0        0
 10 11  1  0        0
 11 12  1  0        0
M  END
$$$$

CDXL12

 13 12  0  0  0  0  0  0  0  0999 V2000
   -1.5611   -0.6368    0.0000 F   0  0  0  0  0  0  0  2  0  0  0  0
   -0.7643   -0.4232    0.0000 Al  0  0  0  0  0  0  0  2  0  0  0  0
   -0.9778   -1.2201    0.0000 F   0  0  0  0  0  0  0  2  0  0  0  0
   -1.3476    0.1601    0.0000 F   0  0  0  0  0  0  0  2  0  0  0  0
    0.2557   -0.0918    0.0000 F   0  0  0  0  0  0  0  2  0  0  0  0
   -0.2292    0.5756    0.0000 C   0  0  0  0  0  0  0  2  0  0  0  0
    1.0404   -0.3467    0.0000 Na  0  0  0  0  0  0  0  2  0  0  0  0
    0.2557   -0.9168    0.0000 F   0  0  0  0  0  0  0  2  0  0  0  0
   -0.4587   -1.3293    0.0000 C   0  0  0  0  0  0  0  2  0  0  0  0
    0.9702   -1.3293    0.0000 Na  0  0  0  0  0  0  0  2  0  0  0  0
    0.7407    0.5756    0.0000 F   0  0  0  0  0  0  0  2  0  0  0  0
    1.5611    0.4894    0.0000 C   0  0  0  0  0  0  0  2  0  0  0  0
    0.4051    1.3293    0.0000 Na  0  0  0  0  0  0  0  2  0  0  0  0
  1  2  1  0        0
  2  3  1  0        0
  2  4  1  0        0
  2  5  1  0        0
  5  6  1  0        0
  5  7  1  0        0
  5  8  1  0        0
  8  9  1  0        0
  8 10  1  0        0
  5 11  1  0        0
 11 12  1  0        0
 11 13  1  0        0
A    6
''
A    9
''
A   12
''
M  END
$$$$

CDXL12

  8  7  0  0  0  0  0  0  0  0999 V2000
    0.7145    1.0313    0.0000 Cl  0  0  0  0  0  0  0  2  0  0  0  0
    0.7145    0.2062    0.0000 C   0  0  0  0  0  0  0  2  0  0  0  0
    1.4289   -0.2062    0.0000 Cl  0  0  0  0  0  0  0  2  0  0  0  0
    0.0000   -0.2062    0.0000 C   0  0  0  0  0  0  0  2  0  0  0  0
    0.0000   -1.0313    0.0000 Cl  0  0  0  0  0  0  0  2  0  0  0  0
   -0.7145    0.2062    0.0000 C   0  0  0  0  0  0  0  2  0  0  0  0
   -1.4289   -0.2062    0.0000 Cl  0  0  0  0  0  0  0  2  0  0  0  0
   -0.7145    1.0313    0.0000 Cl  0  0  0  0  0  0  0  2  0  0  0  0
  1  2  1  0        0
  2  3  1  0        0
  2  4  1  0        0
  4  5  1  0        0
  4  6  1  0        0
  6  7  1  0        0
  6  8  1  0        0
M  END
$$$$

CDXL12

 10 10  0  0  0  0  0  0  0  0999 V2000
   -0.7145    1.2375    0.0000 C   0  0  0  0  0  0  0  2  0  0  0  0
    0.0000    0.8250    0.0000 C   0  0  0  0  0  0  0  2  0  0  0  0
    0.7145    1.2375    0.0000 Cl  0  0  0  0  0  0  0  2  0  0  0  0
    0.0000   -0.0000    0.0000 C   0  0  0  0  0  0  0  2  0  0  0  0
    0.7145   -0.4125    0.0000 C   0  0  0  0  0  0  0  2  0  0  0  0
    1.4289    0.0000    0.0000 O   0  0  0  0  0  0  0  2  0  0  0  0
   -0.7145   -0.4125    0.0000 C   0  0  0  0  0  0  0  2  0  0  0  0
   -0.7145   -1.2375    0.0000 Cl  0  0  0  0  0  0  0  2  0  0  0  0
   -1.4289    0.0000    0.0000 C   0  0  0  0  0  0  0  2  0  0  0  0
   -1.4289    0.8250    0.0000 C   0  0  0  0  0  0  0  2  0  0  0  0
  1  2  4  0        0
  2  3  1  0        0
  2  4  4  0        0
  4  5  1  0        0
  5  6  1  0        0
  4  7  4  0        0
  7  8  1  0        0
  7  9  4  0        0
  9 10  4  0        0
  1 10  4  0        0
M  END
$$$$

CDXL12

 15 14  0  0  0  0  0  0  0  0999 V2000
    0.0000   -1.4437    0.0000 Cl  0  0  0  0  0  0  0  2  0  0  0  0
    0.0000   -0.6187    0.0000 N   0  0  0  0  0  0  0  2  0  0  0  0
    0.7145   -1.0312    0.0000 C   0  0  0  0  0  0  0  2  0  0  0  0
   -0.7145   -1.0312    0.0000 C   0  0  0  0  0  0  0  2  0  0  0  0
    0.0000    0.2063    0.0000 C   0  0  0  0  0  0  0  2  0  0  0  0
    0.7145    0.6188    0.0000 C   0  0  0  0  0  0  0  2  0  0  0  0
    1.4289    0.2063    0.0000 S   0  0  0  0  0  0  0  2  0  0  0  0
    2.1434    0.6187    0.0000 C   0  0  0  0  0  0  0  2  0  0  0  0
    2.1434    1.4437    0.0000 O   0  0  0  0  0  0  0  2  0  0  0  0
    2.8579    0.2063    0.0000 N   0  0  0  0  0  0  0  2  0  0  0  0
   -0.7145    0.6187    0.0000 C   0  0  0  0  0  0  0  2  0  0  0  0
   -1.4289    0.2063    0.0000 S   0  0  0  0  0  0  0  2  0  0  0  0
   -2.1434    0.6187    0.0000 C   0  0  0  0  0  0  0  2  0  0  0  0
   -2.1434    1.4437    0.0000 O   0  0  0  0  0  0  0  2  0  0  0  0
   -2.8579    0.2063    0.0000 N   0  0  0  0  0  0  0  2  0  0  0  0
  1  2  1  0        0
  2  3  1  0        0
  2  4  1  0        0
  2  5  1  0        0
  5  6  1  0        0
  6  7  1  0        0
  7  8  1  0        0
  8  9  2  0        0
  8 10  1  0        0
  5 11  1  0        0
 11 12  1  0        0
 12 13  1  0        0
 13 14  2  0        0
 13 15  1  0        0
M  END
$$$$

CDXL12

 20 21  0  0  0  0  0  0  0  0999 V2000
    2.8579    0.6187    0.0000 C   0  0  0  0  0  0  0  2  0  0  0  0
    2.1434    1.0312    0.0000 C   0  0  0  0  0  0  0  2  0  0  0  0
    1.4289    0.6187    0.0000 N   0  0  0  0  0  0  0  2  0  0  0  0
    1.4289   -0.2063    0.0000 C   0  0  0  0  0  0  0  2  0  0  0  0
    2.1434   -0.6188    0.0000 C   0  0  0  0  0  0  0  2  0  0  0  0
    0.7145    1.0312    0.0000 C   0  0  0  0  0  0  0  2  0  0  0  0
    0.7145    1.8562    0.0000 O   0  0  0  0  0  0  0  2  0  0  0  0
   -0.0000    0.6187    0.0000 C   0  0  0  0  0  0  0  2  0  0  0  0
   -0.0000   -0.2063    0.0000 C   0  0  0  0  0  0  0  2  0  0  0  0
   -0.7145    1.0312    0.0000 O   0  0  0  0  0  0  0  2  0  0  0  0
   -1.4289    0.6187    0.0000 C   0  0  0  0  0  0  0  2  0  0  0  0
   -2.1434    1.0312    0.0000 C   0  0  0  0  0  0  0  2  0  0  0  0
   -2.8579    0.6187    0.0000 C   0  0  0  0  0  0  0  2  0  0  0  0
   -2.8579   -0.2063    0.0000 C   0  0  0  0  0  0  0  2  0  0  0  0
   -2.1434   -0.6188    0.0000 C   0  0  0  0  0  0  0  2  0  0  0  0
   -2.1434   -1.4437    0.0000 C   0  0  0  0  0  0  0  2  0  0  0  0
   -1.4289   -1.8562    0.0000 C   0  0  0  0  0  0  0  2  0  0  0  0
   -0.7145   -1.4438    0.0000 C   0  0  0  0  0  0  0  2  0  0  0  0
   -0.7145   -0.6188    0.0000 C   0  0  0  0  0  0  0  2  0  0  0  0
   -1.4289   -0.2063    0.0000 C   0  0  0  0  0  0  0  2  0  0  0  0
  1  2  1  0        0
  2  3  1  0        0
  3  4  1  0        0
  4  5  1  0        0
  3  6  1  0        0
  6  7  2  0        0
  6  8  1  0        0
  8  9  1  0        0
  8 10  1  0        0
 10 11  1  0        0
 11 12  4  0        0
 12 13  4  0        0
 13 14  4  0        0
 14 15  4  0        0
 15 16  4  0        0
 16 17  4  0        0
 17 18  4  0        0
 18 19  4  0        0
 19 20  4  0        0
 11 20  4  0        0
 15 20  4  0        0
M  END
$$$$

CDXL12

 16 17  0  0  0  0  0  0  0  0999 V2000
   -0.3572   -1.4438    0.0000 I   0  0  0  0  0  0  0  2  0  0  0  0
   -1.0717   -1.0313    0.0000 C   0  0  0  0  0  0  0  2  0  0  0  0
   -1.7862   -1.4437    0.0000 C   0  0  0  0  0  0  0  2  0  0  0  0
   -2.5006   -1.0313    0.0000 C   0  0  0  0  0  0  0  2  0  0  0  0
   -2.5006   -0.2062    0.0000 C   0  0  0  0  0  0  0  2  0  0  0  0
   -1.7862    0.2062    0.0000 C   0  0  0  0  0  0  0  2  0  0  0  0
   -1.0717   -0.2062    0.0000 C   0  0  0  0  0  0  0  2  0  0  0  0
   -0.3572    0.2062    0.0000 C   0  0  0  0  0  0  0  2  0  0  0  0
   -0.3572    1.0313    0.0000 O   0  0  0  0  0  0  0  2  0  0  0  0
    0.3572   -0.2063    0.0000 N   0  0  0  0  0  0  0  2  0  0  0  0
    1.0717    0.2062    0.0000 C   0  0  0  0  0  0  0  2  0  0  0  0
    1.0717    1.0313    0.0000 C   0  0  0  0  0  0  0  2  0  0  0  0
    1.7862    1.4438    0.0000 C   0  0  0  0  0  0  0  2  0  0  0  0
    2.5006    1.0313    0.0000 C   0  0  0  0  0  0  0  2  0  0  0  0
    2.5006    0.2062    0.0000 C   0  0  0  0  0  0  0  2  0  0  0  0
    1.7862   -0.2062    0.0000 C   0  0  0  0  0  0  0  2  0  0  0  0
  1  2  1  0        0
  2  3  4  0        0
  3  4  4  0        0
  4  5  4  0        0
  5  6  4  0        0
  6  7  4  0        0
  2  7  4  0        0
  7  8  1  0        0
  8  9  2  0        0
  8 10  1  0        0
 10 11  1  0        0
 11 12  4  0        0
 12 13  4  0        0
 13 14  4  0        0
 14 15  4  0        0
 15 16  4  0        0
 11 16  4  0        0
M  END
$$$$

CDXL12

 23 24  0  0  0  0  0  0  0  0999 V2000
    1.4289    3.0938    0.0000 O   0  0  0  0  0  0  0  2  0  0  0  0
    1.4289    2.2687    0.0000 N   0  0  0  0  0  0  0  2  0  0  0  0
    2.1434    1.8562    0.0000 O   0  0  0  0  0  0  0  2  0  0  0  0
    0.7145    1.8563    0.0000 C   0  0  0  0  0  0  0  2  0  0  0  0
    0.7145    1.0313    0.0000 C   0  0  0  0  0  0  0  2  0  0  0  0
    1.4289    0.6188    0.0000 O   0  0  0  0  0  0  0  2  0  0  0  0
    1.4289   -0.2062    0.0000 C   0  0  0  0  0  0  0  2  0  0  0  0
    0.7145   -0.6187    0.0000 C   0  0  0  0  0  0  0  2  0  0  0  0
    0.7145   -1.4437    0.0000 C   0  0  0  0  0  0  0  2  0  0  0  0
    1.4289   -1.8563    0.0000 C   0  0  0  0  0  0  0  2  0  0  0  0
    1.4289   -2.6812    0.0000 N   0  0  0  0  0  0  0  2  0  0  0  0
    0.7145   -3.0938    0.0000 O   0  0  0  0  0  0  0  2  0  0  0  0
    2.1434   -3.0938    0.0000 O   0  0  0  0  0  0  0  2  0  0  0  0
    2.1434   -1.4438    0.0000 C   0  0  0  0  0  0  0  2  0  0  0  0
    2.1434   -0.6188    0.0000 C   0  0  0  0  0  0  0  2  0  0  0  0
    0.0000    0.6188    0.0000 C   0  0  0  0  0  0  0  2  0  0  0  0
   -0.7145    1.0313    0.0000 C   0  0  0  0  0  0  0  2  0  0  0  0
   -0.7145    1.8563    0.0000 C   0  0  0  0  0  0  0  2  0  0  0  0
   -1.4289    2.2687    0.0000 C   0  0  0  0  0  0  0  2  0  0  0  0
   -1.4289    3.0938    0.0000 F   0  0  0  0  0  0  0  2  0  0  0  0
   -2.1434    2.6812    0.0000 F   0  0  0  0  0  0  0  2  0  0  0  0
   -2.1434    1.8563    0.0000 F   0  0  0  0  0  0  0  2  0  0  0  0
    0.0000    2.2687    0.0000 C   0  0  0  0  0  0  0  2  0  0  0  0
  1  2  2  0        0
  2  3  2  0        0
  2  4  1  0        0
  4  5  4  0        0
  5  6  1  0        0
  6  7  1  0        0
  7  8  4  0        0
  8  9  4  0        0
  9 10  4  0        0
 10 11  1  0        0
 11 12  2  0        0
 11 13  2  0        0
 10 14  4  0        0
 14 15  4  0        0
  7 15  4  0        0
  5 16  4  0        0
 16 17  4  0        0
 17 18  4  0        0
 18 19  1  0        0
 19 20  1  0        0
 19 21  1  0        0
 19 22  1  0        0
 18 23  4  0        0
  4 23  4  0        0
M  END
$$$$

CDXL12

 14 14  0  0  0  0  0  0  0  0999 V2000
   -1.7862   -1.2375    0.0000 C   0  0  0  0  0  0  0  2  0  0  0  0
   -1.7862   -0.4125    0.0000 N   0  0  0  0  0  0  0  2  0  0  0  0
   -2.5006    0.0000    0.0000 C   0  0  0  0  0  0  0  2  0  0  0  0
   -1.0717    0.0000    0.0000 C   0  0  0  0  0  0  0  2  0  0  0  0
   -1.0717    0.8250    0.0000 O   0  0  0  0  0  0  0  2  0  0  0  0
   -0.3572   -0.4125    0.0000 N   0  0  0  0  0  0  0  2  0  0  0  0
    0.3572    0.0000    0.0000 C   0  0  0  0  0  0  0  2  0  0  0  0
    0.3572    0.8250    0.0000 C   0  0  0  0  0  0  0  2  0  0  0  0
    1.0717    1.2375    0.0000 C   0  0  0  0  0  0  0  2  0  0  0  0
    1.7862    0.8250    0.0000 C   0  0  0  0  0  0  0  2  0  0  0  0
    2.5006    1.2375    0.0000 C   0  0  0  0  0  0  0  2  0  0  0  0
    1.7862    0.0000    0.0000 C   0  0  0  0  0  0  0  2  0  0  0  0
    2.5006   -0.4125    0.0000 Cl  0  0  0  0  0  0  0  2  0  0  0  0
    1.0717   -0.4125    0.0000 C   0  0  0  0  0  0  0  2  0  0  0  0
  1  2  1  0        0
  2  3  1  0        0
  2  4  1  0        0
  4  5  2  0        0
  4  6  1  0        0
  6  7  1  0        0
  7  8  4  0        0
  8  9  4  0        0
  9 10  4  0        0
 10 11  1  0        0
 10 12  4  0        0
 12 13  1  0        0
 12 14  4  0        0
  7 14  4  0        0
M  END
$$$$

CDXL12

 15 15  0  0  0  0  0  0  0  0999 V2000
    2.1434    0.8250    0.0000 O   0  0  0  0  0  0  0  2  0  0  0  0
    2.1434    0.0000    0.0000 C   0  0  0  0  0  0  0  2  0  0  0  0
    2.8579   -0.4125    0.0000 O   0  0  0  0  0  0  0  2  0  0  0  0
    1.4289   -0.4125    0.0000 C   0  0  0  0  0  0  0  2  0  0  0  0
    0.7145   -0.0000    0.0000 C   0  0  0  0  0  0  0  2  0  0  0  0
    0.0000   -0.4125    0.0000 C   0  0  0  0  0  0  0  2  0  0  0  0
   -0.7145    0.0000    0.0000 C   0  0  0  0  0  0  0  2  0  0  0  0
   -0.7145    0.8250    0.0000 C   0  0  0  0  0  0  0  2  0  0  0  0
    0.0000    1.2375    0.0000 C   0  0  0  0  0  0  0  2  0  0  0  0
    0.7145    0.8250    0.0000 C   0  0  0  0  0  0  0  2  0  0  0  0
   -1.4289    1.2375    0.0000 C   0  0  0  0  0  0  0  2  0  0  0  0
   -2.1434    0.8250    0.0000 C   0  0  0  0  0  0  0  2  0  0  0  0
   -2.1434    0.0000    0.0000 C   0  0  0  0  0  0  0  2  0  0  0  0
   -2.8579    1.2375    0.0000 C   0  0  0  0  0  0  0  2  0  0  0  0
    1.4289   -1.2375    0.0000 C   0  0  0  0  0  0  0  2  0  0  0  0
  1  2  2  0        0
  2  3  1  0        0
  2  4  1  0        0
  4  5  1  0        0
  5  6  4  0        0
  6  7  4  0        0
  7  8  4  0        0
  8  9  4  0        0
  9 10  4  0        0
  5 10  4  0        0
  8 11  1  0        0
 11 12  1  0        0
 12 13  1  0        0
 12 14  1  0        0
  4 15  1  0        0
M  END
$$$$

CDXL12

 15 16  0  0  0  0  0  0  0  0999 V2000
    2.1434   -1.4438    0.0000 Cl  0  0  0  0  0  0  0  2  0  0  0  0
    1.4289   -1.0313    0.0000 C   0  0  0  0  0  0  0  2  0  0  0  0
    0.7145   -1.4437    0.0000 C   0  0  0  0  0  0  0  2  0  0  0  0
    0.0000   -1.0313    0.0000 C   0  0  0  0  0  0  0  2  0  0  0  0
   -0.7145   -1.4437    0.0000 Cl  0  0  0  0  0  0  0  2  0  0  0  0
    0.0000   -0.2062    0.0000 C   0  0  0  0  0  0  0  2  0  0  0  0
    0.7145    0.2062    0.0000 C   0  0  0  0  0  0  0  2  0  0  0  0
    1.4289   -0.2062    0.0000 C   0  0  0  0  0  0  0  2  0  0  0  0
    2.1434    0.2062    0.0000 Cl  0  0  0  0  0  0  0  2  0  0  0  0
   -0.7145    0.2062    0.0000 C   0  0  0  0  0  0  0  2  0  0  0  0
   -1.4289   -0.2062    0.0000 C   0  0  0  0  0  0  0  2  0  0  0  0
   -2.1434    0.2062    0.0000 C   0  0  0  0  0  0  0  2  0  0  0  0
   -2.1434    1.0313    0.0000 C   0  0  0  0  0  0  0  2  0  0  0  0
   -1.4289    1.4438    0.0000 C   0  0  0  0  0  0  0  2  0  0  0  0
   -0.7145    1.0313    0.0000 C   0  0  0  0  0  0  0  2  0  0  0  0
  1  2  1  0        0
  2  3  4  0        0
  3  4  4  0        0
  4  5  1  0        0
  4  6  4  0        0
  6  7  4  0        0
  7  8  4  0        0
  2  8  4  0        0
  8  9  1  0        0
  6 10  1  0        0
 10 11  4  0        0
 11 12  4  0        0
 12 13  4  0        0
 13 14  4  0        0
 14 15  4  0        0
 10 15  4  0        0
M  END
$$$$

CDXL12

 17 18  0  0  0  0  0  0  0  0999 V2000
    0.9909   -1.0362    0.0000 O   0  0  0  0  0  0  0  2  0  0  0  0
    0.2062   -0.7813    0.0000 C   0  0  0  0  0  0  0  2  0  0  0  0
   -0.5784   -1.0362    0.0000 O   0  0  0  0  0  0  0  2  0  0  0  0
   -1.0633   -0.3688    0.0000 C   0  0  0  0  0  0  0  2  0  0  0  0
   -0.5784    0.2986    0.0000 C   0  0  0  0  0  0  0  2  0  0  0  0
   -0.8333    1.0833    0.0000 O   0  0  0  0  0  0  0  2  0  0  0  0
    0.2062    0.0437    0.0000 C   0  0  0  0  0  0  0  2  0  0  0  0
    0.9909    0.2986    0.0000 O   0  0  0  0  0  0  0  2  0  0  0  0
    1.4758   -0.3688    0.0000 C   0  0  0  0  0  0  0  2  0  0  0  0
    2.3008   -0.3688    0.0000 C   0  0  0  0  0  0  0  2  0  0  0  0
    2.7133   -1.0833    0.0000 Cl  0  0  0  0  0  0  0  2  0  0  0  0
    3.1258   -0.3688    0.0000 Cl  0  0  0  0  0  0  0  2  0  0  0  0
    2.7133    0.3457    0.0000 Cl  0  0  0  0  0  0  0  2  0  0  0  0
   -1.8883   -0.3688    0.0000 C   0  0  0  0  0  0  0  2  0  0  0  0
   -2.3008    0.3457    0.0000 O   0  0  0  0  0  0  0  2  0  0  0  0
   -2.3008   -1.0833    0.0000 C   0  0  0  0  0  0  0  2  0  0  0  0
   -3.1258   -1.0833    0.0000 O   0  0  0  0  0  0  0  2  0  0  0  0
  1  2  1  0        0
  2  3  1  0        0
  3  4  1  0        0
  4  5  1  0        0
  5  6  1  0        0
  5  7  1  0        0
  2  7  1  0        0
  7  8  1  0        0
  8  9  1  0        0
  1  9  1  0        0
  9 10  1  0        0
 10 11  1  0        0
 10 12  1  0        0
 10 13  1  0        0
  4 14  1  0        0
 14 15  1  0        0
 14 16  1  0        0
 16 17  1  0        0
M  END
$$$$

CDXL12

 18 18  0  0  0  0  0  0  0  0999 V2000
    2.1434   -0.6188    0.0000 C   0  0  0  0  0  0  0  2  0  0  0  0
    1.4289   -0.2062    0.0000 C   0  0  0  0  0  0  0  2  0  0  0  0
    0.7145   -0.6188    0.0000 C   0  0  0  0  0  0  0  2  0  0  0  0
    0.7145   -1.4438    0.0000 C   0  0  0  0  0  0  0  2  0  0  0  0
    0.0000   -1.8563    0.0000 C   0  0  0  0  0  0  0  2  0  0  0  0
   -0.7145   -1.4437    0.0000 C   0  0  0  0  0  0  0  2  0  0  0  0
   -0.7145   -0.6187    0.0000 C   0  0  0  0  0  0  0  2  0  0  0  0
   -1.4289   -0.2062    0.0000 C   0  0  0  0  0  0  0  2  0  0  0  0
   -2.1434   -0.6187    0.0000 C   0  0  0  0  0  0  0  2  0  0  0  0
    0.0000   -0.2062    0.0000 C   0  0  0  0  0  0  0  2  0  0  0  0
    0.0000    0.6188    0.0000 N   0  0  0  0  0  0  0  2  0  0  0  0
    0.7145    1.0313    0.0000 C   0  0  0  0  0  0  0  2  0  0  0  0
    1.4289    0.6188    0.0000 O   0  0  0  0  0  0  0  2  0  0  0  0
    2.1434    1.0312    0.0000 C   0  0  0  0  0  0  0  2  0  0  0  0
   -0.7145    1.0312    0.0000 C   0  0  0  0  0  0  0  2  0  0  0  0
   -0.7145    1.8563    0.0000 O   0  0  0  0  0  0  0  2  0  0  0  0
   -1.4289    0.6188    0.0000 C   0  0  0  0  0  0  0  2  0  0  0  0
   -2.1434    1.0312    0.0000 Cl  0  0  0  0  0  0  0  2  0  0  0  0
  1  2  1  0        0
  2  3  1  0        0
  3  4  4  0        0
  4  5  4  0        0
  5  6  4  0        0
  6  7  4  0        0
  7  8  1  0        0
  8  9  1  0        0
  7 10  4  0        0
  3 10  4  0        0
 10 11  1  0        0
 11 12  1  0        0
 12 13  1  0        0
 13 14  1  0        0
 11 15  1  0        0
 15 16  2  0        0
 15 17  1  0        0
 17 18  1  0        0
M  END
$$$$

CDXL12

  6  6  0  0  0  0  0  0  0  0999 V2000
    0.7145   -0.4125    0.0000 C   0  0  0  0  0  0  0  2  0  0  0  0
    0.0000   -0.8250    0.0000 C   0  0  0  0  0  0  0  2  0  0  0  0
   -0.7145   -0.4125    0.0000 S   0  0  0  0  0  0  0  2  0  0  0  0
   -0.7145    0.4125    0.0000 C   0  0  0  0  0  0  0  2  0  0  0  0
    0.0000    0.8250    0.0000 C   0  0  0  0  0  0  0  2  0  0  0  0
    0.7145    0.4125    0.0000 O   0  0  0  0  0  0  0  2  0  0  0  0
  1  2  1  0        0
  2  3  1  0        0
  3  4  1  0        0
  4  5  1  0        0
  5  6  1  0        0
  1  6  1  0        0
M  END
$$$$

CDXL12

 64 71  0  0  0  0  0  0  0  0999 V2000
    1.0717    1.4437    0.0000 Na  0  0  0  0  0  0  0  2  0  0  0  0
    0.3572    1.8563    0.0000 O   0  0  0  0  0  0  0  2  0  0  0  0
   -0.3572    1.4438    0.0000 S   0  0  0  0  0  0  0  2  0  0  0  0
    0.0553    0.7293    0.0000 O   0  0  0  0  0  0  0  2  0  0  0  0
   -0.7697    2.1582    0.0000 O   0  0  0  0  0  0  0  2  0  0  0  0
   -1.0717    1.0313    0.0000 C   0  0  0  0  0  0  0  2  0  0  0  0
   -1.0717    0.2062    0.0000 C   0  0  0  0  0  0  0  2  0  0  0  0
   -1.7862   -0.2062    0.0000 C   0  0  0  0  0  0  0  2  0  0  0  0
   -2.5006    0.2062    0.0000 C   0  0  0  0  0  0  0  2  0  0  0  0
   -2.5006    1.0313    0.0000 C   0  0  0  0  0  0  0  2  0  0  0  0
   -1.7862    1.4438    0.0000 C   0  0  0  0  0  0  0  2  0  0  0  0
   -3.2151    1.4438    0.0000 N   0  0  0  0  0  0  0  2  0  0  0  0
   -3.9296    1.0313    0.0000 C   0  0  0  0  0  0  0  2  0  0  0  0
   -4.6441    1.4438    0.0000 N   0  0  0  0  0  0  0  2  0  0  0  0
   -5.3585    1.0313    0.0000 C   0  0  0  0  0  0  0  2  0  0  0  0
   -5.3585    0.2062    0.0000 N   0  0  0  0  0  0  0  2  0  0  0  0
   -4.6441   -0.2062    0.0000 C   0  0  0  0  0  0  0  2  0  0  0  0
   -3.9296    0.2062    0.0000 N   0  0  0  0  0  0  0  2  0  0  0  0
   -4.6441   -1.0312    0.0000 N   0  0  0  0  0  0  0  2  0  0  0  0
   -5.3585   -1.4437    0.0000 C   0  0  0  0  0  0  0  2  0  0  0  0
   -5.3585   -2.2687    0.0000 C   0  0  0  0  0  0  0  2  0  0  0  0
   -6.0730   -2.6812    0.0000 C   0  0  0  0  0  0  0  2  0  0  0  0
   -6.7875   -2.2687    0.0000 C   0  0  0  0  0  0  0  2  0  0  0  0
   -6.7875   -1.4437    0.0000 C   0  0  0  0  0  0  0  2  0  0  0  0
   -6.0730   -1.0312    0.0000 C   0  0  0  0  0  0  0  2  0  0  0  0
   -6.0730    1.4438    0.0000 N   0  0  0  0  0  0  0  2  0  0  0  0
   -6.7875    1.0313    0.0000 C   0  0  0  0  0  0  0  2  0  0  0  0
   -7.5019    1.4438    0.0000 C   0  0  0  0  0  0  0  2  0  0  0  0
   -7.5019    2.2687    0.0000 O   0  0  0  0  0  0  0  2  0  0  0  0
   -6.7875    2.6812    0.0000 C   0  0  0  0  0  0  0  2  0  0  0  0
   -6.0730    2.2687    0.0000 C   0  0  0  0  0  0  0  2  0  0  0  0
   -0.3572   -0.2062    0.0000 C   0  0  0  0  0  0  0  2  0  0  0  0
    0.3572    0.2062    0.0000 C   0  0  0  0  0  0  0  2  0  0  0  0
    1.0717   -0.2062    0.0000 C   0  0  0  0  0  0  0  2  0  0  0  0
    1.7862    0.2062    0.0000 C   0  0  0  0  0  0  0  2  0  0  0  0
    2.5006   -0.2062    0.0000 C   0  0  0  0  0  0  0  2  0  0  0  0
    2.5006   -1.0313    0.0000 C   0  0  0  0  0  0  0  2  0  0  0  0
    1.7862   -1.4438    0.0000 C   0  0  0  0  0  0  0  2  0  0  0  0
    1.0717   -1.0313    0.0000 C   0  0  0  0  0  0  0  2  0  0  0  0
    0.3572   -1.4438    0.0000 S   0  0  0  0  0  0  0  2  0  0  0  0
   -0.0553   -0.7293    0.0000 O   0  0  0  0  0  0  0  2  0  0  0  0
    0.7697   -2.1582    0.0000 O   0  0  0  0  0  0  0  2  0  0  0  0
   -0.3572   -1.8563    0.0000 O   0  0  0  0  0  0  0  2  0  0  0  0
   -1.0717   -1.4438    0.0000 Na  0  0  0  0  0  0  0  2  0  0  0  0
    3.2151   -1.4438    0.0000 N   0  0  0  0  0  0  0  2  0  0  0  0
    3.9296   -1.0313    0.0000 C   0  0  0  0  0  0  0  2  0  0  0  0
    4.6441   -1.4438    0.0000 N   0  0  0  0  0  0  0  2  0  0  0  0
    5.3585   -1.0313    0.0000 C   0  0  0  0  0  0  0  2  0  0  0  0
    5.3585   -0.2062    0.0000 N   0  0  0  0  0  0  0  2  0  0  0  0
    4.6441    0.2062    0.0000 C   0  0  0  0  0  0  0  2  0  0  0  0
    3.9296   -0.2062    0.0000 N   0  0  0  0  0  0  0  2  0  0  0  0
    4.6441    1.0312    0.0000 N   0  0  0  0  0  0  0  2  0  0  0  0
    5.3585    1.4437    0.0000 C   0  0  0  0  0  0  0  2  0  0  0  0
    5.3585    2.2687    0.0000 C   0  0  0  0  0  0  0  2  0  0  0  0
    6.0730    2.6812    0.0000 C   0  0  0  0  0  0  0  2  0  0  0  0
    6.7875    2.2687    0.0000 C   0  0  0  0  0  0  0  2  0  0  0  0
    6.7875    1.4437    0.0000 C   0  0  0  0  0  0  0  2  0  0  0  0
    6.0730    1.0312    0.0000 C   0  0  0  0  0  0  0  2  0  0  0  0
    6.0730   -1.4438    0.0000 N   0  0  0  0  0  0  0  2  0  0  0  0
    6.7875   -1.0313    0.0000 C   0  0  0  0  0  0  0  2  0  0  0  0
    7.5019   -1.4438    0.0000 C   0  0  0  0  0  0  0  2  0  0  0  0
    7.5019   -2.2687    0.0000 O   0  0  0  0  0  0  0  2  0  0  0  0
    6.7875   -2.6812    0.0000 C   0  0  0  0  0  0  0  2  0  0  0  0
    6.0730   -2.2687    0.0000 C   0  0  0  0  0  0  0  2  0  0  0  0
  1  2  1  0        0
  2  3  1  0        0
  3  4  2  0        0
  3  5  2  0        0
  3  6  1  0        0
  6  7  4  0        0
  7  8  4  0        0
  8  9  4  0        0
  9 10  4  0        0
 10 11  4  0        0
  6 11  4  0        0
 10 12  1  0        0
 12 13  1  0        0
 13 14  4  0        0
 14 15  4  0        0
 15 16  4  0        0
 16 17  4  0        0
 17 18  4  0        0
 13 18  4  0        0
 17 19  1  0        0
 19 20  1  0        0
 20 21  4  0        0
 21 22  4  0        0
 22 23  4  0        0
 23 24  4  0        0
 24 25  4  0        0
 20 25  4  0        0
 15 26  1  0        0
 26 27  1  0        0
 27 28  1  0        0
 28 29  1  0        0
 29 30  1  0        0
 30 31  1  0        0
 26 31  1  0        0
  7 32  1  0        0
 32 33  2  0        0
 33 34  1  0        0
 34 35  4  0        0
 35 36  4  0        0
 36 37  4  0        0
 37 38  4  0        0
 38 39  4  0        0
 34 39  4  0        0
 39 40  1  0        0
 40 41  2  0        0
 40 42  2  0        0
 40 43  1  0        0
 43 44  1  0        0
 37 45  1  0        0
 45 46  1  0        0
 46 47  4  0        0
 47 48  4  0        0
 48 49  4  0        0
 49 50  4  0        0
 50 51  4  0        0
 46 51  4  0        0
 50 52  1  0        0
 52 53  1  0        0
 53 54  4  0        0
 54 55  4  0        0
 55 56  4  0        0
 56 57  4  0        0
 57 58  4  0        0
 53 58  4  0        0
 48 59  1  0        0
 59 60  1  0        0
 60 61  1  0        0
 61 62  1  0        0
 62 63  1  0        0
 63 64  1  0        0
 59 64  1  0        0
M  END
$$$$

CDXL12

  9 10  0  0  0  0  0  0  0  0999 V2000
    0.0000    0.4125    0.0000 C   0  0  0  0  0  0  0  2  0  0  0  0
   -0.7145    0.8250    0.0000 C   0  0  0  0  0  0  0  2  0  0  0  0
   -1.4289    0.4125    0.0000 C   0  0  0  0  0  0  0  2  0  0  0  0
   -1.4289   -0.4125    0.0000 C   0  0  0  0  0  0  0  2  0  0  0  0
   -0.7145   -0.8250    0.0000 C   0  0  0  0  0  0  0  2  0  0  0  0
   -1.0510    0.0000    0.0000 C   0  0  0  0  0  0  0  2  0  0  0  0
    0.0000   -0.4125    0.0000 C   0  0  0  0  0  0  0  2  0  0  0  0
    0.7145    0.8250    0.0000 C   0  0  0  0  0  0  0  2  0  0  0  0
    1.4289    0.4125    0.0000 C   0  0  0  0  0  0  0  2  0  0  0  0
  1  2  1  0        0
  2  3  1  0        0
  3  4  2  0        0
  4  5  1  0        0
  5  6  1  0        0
  2  6  1  0        0
  5  7  1  0        0
  1  7  1  0        0
  1  8  2  0        0
  8  9  1  0        0
M  END
$$$$

CDXL12

 17 18  0  0  0  0  0  0  0  0999 V2000
    0.9909   -1.0362    0.0000 O   0  0  0  0  0  0  0  2  0  0  0  0
    0.2062   -0.7813    0.0000 C   0  0  0  0  0  0  0  2  0  0  0  0
   -0.5784   -1.0362    0.0000 O   0  0  0  0  0  0  0  2  0  0  0  0
   -1.0633   -0.3688    0.0000 C   0  0  0  0  0  0  0  2  0  0  0  0
   -0.5784    0.2986    0.0000 C   0  0  0  0  0  0  0  2  0  0  0  0
   -0.8333    1.0833    0.0000 O   0  0  0  0  0  0  0  2  0  0  0  0
    0.2062    0.0437    0.0000 C   0  0  0  0  0  0  0  2  0  0  0  0
    0.9909    0.2986    0.0000 O   0  0  0  0  0  0  0  2  0  0  0  0
    1.4758   -0.3688    0.0000 C   0  0  0  0  0  0  0  2  0  0  0  0
    2.3008   -0.3688    0.0000 C   0  0  0  0  0  0  0  2  0  0  0  0
    2.7133   -1.0833    0.0000 Cl  0  0  0  0  0  0  0  2  0  0  0  0
    3.1258   -0.3688    0.0000 Cl  0  0  0  0  0  0  0  2  0  0  0  0
    2.7133    0.3457    0.0000 Cl  0  0  0  0  0  0  0  2  0  0  0  0
   -1.8883   -0.3688    0.0000 C   0  0  0  0  0  0  0  2  0  0  0  0
   -2.3008    0.3457    0.0000 O   0  0  0  0  0  0  0  2  0  0  0  0
   -2.3008   -1.0833    0.0000 C   0  0  0  0  0  0  0  2  0  0  0  0
   -3.1258   -1.0833    0.0000 O   0  0  0  0  0  0  0  2  0  0  0  0
  1  2  1  0        0
  2  3  1  0        0
  3  4  1  0        0
  4  5  1  0        0
  5  6  1  0        0
  5  7  1  0        0
  2  7  1  0        0
  7  8  1  0        0
  8  9  1  0        0
  1  9  1  0        0
  9 10  1  0        0
 10 11  1  0        0
 10 12  1  0        0
 10 13  1  0        0
  4 14  1  0        0
 14 15  1  0        0
 14 16  1  0        0
 16 17  1  0        0
M  END
$$$$

CDXL12

 14 14  0  0  0  0  0  0  0  0999 V2000
    1.7862    1.2375    0.0000 O   0  0  0  0  0  0  0  2  0  0  0  0
    1.7862    0.4125    0.0000 C   0  0  0  0  0  0  0  2  0  0  0  0
    2.5006   -0.0000    0.0000 O   0  0  0  0  0  0  0  2  0  0  0  0
    1.0717   -0.0000    0.0000 C   0  0  0  0  0  0  0  2  0  0  0  0
    0.3572    0.4125    0.0000 O   0  0  0  0  0  0  0  2  0  0  0  0
   -0.3572   -0.0000    0.0000 C   0  0  0  0  0  0  0  2  0  0  0  0
   -0.3572   -0.8250    0.0000 C   0  0  0  0  0  0  0  2  0  0  0  0
   -1.0717   -1.2375    0.0000 C   0  0  0  0  0  0  0  2  0  0  0  0
   -1.7862   -0.8250    0.0000 C   0  0  0  0  0  0  0  2  0  0  0  0
   -1.7862   -0.0000    0.0000 C   0  0  0  0  0  0  0  2  0  0  0  0
   -1.0717    0.4125    0.0000 C   0  0  0  0  0  0  0  2  0  0  0  0
   -2.5006   -1.2375    0.0000 Cl  0  0  0  0  0  0  0  2  0  0  0  0
    0.3572   -1.2375    0.0000 C   0  0  0  0  0  0  0  2  0  0  0  0
    1.0717   -0.8250    0.0000 C   0  0  0  0  0  0  0  2  0  0  0  0
  1  2  2  0        0
  2  3  1  0        0
  2  4  1  0        0
  4  5  1  0        0
  5  6  1  0        0
  6  7  4  0        0
  7  8  4  0        0
  8  9  4  0        0
  9 10  4  0        0
 10 11  4  0        0
  6 11  4  0        0
  9 12  1  0        0
  7 13  1  0        0
  4 14  1  0        0
M  END
$$$$

CDXL12

 14 15  0  0  0  0  0  0  0  0999 V2000
   -1.7862    0.2062    0.0000 C   0  0  0  0  0  0  0  2  0  0  0  0
   -1.7862    1.0313    0.0000 C   0  0  0  0  0  0  0  2  0  0  0  0
   -1.0717    1.4438    0.0000 C   0  0  0  0  0  0  0  2  0  0  0  0
   -0.3572    1.0312    0.0000 C   0  0  0  0  0  0  0  2  0  0  0  0
    0.3572    1.4437    0.0000 Cl  0  0  0  0  0  0  0  2  0  0  0  0
   -0.3572    0.2062    0.0000 C   0  0  0  0  0  0  0  2  0  0  0  0
    0.3572   -0.2062    0.0000 C   0  0  0  0  0  0  0  2  0  0  0  0
    0.3572   -1.0313    0.0000 C   0  0  0  0  0  0  0  2  0  0  0  0
   -0.3572   -1.4438    0.0000 Cl  0  0  0  0  0  0  0  2  0  0  0  0
    1.0717   -1.4438    0.0000 C   0  0  0  0  0  0  0  2  0  0  0  0
    1.7862   -1.0313    0.0000 C   0  0  0  0  0  0  0  2  0  0  0  0
    1.7862   -0.2062    0.0000 C   0  0  0  0  0  0  0  2  0  0  0  0
    1.0717    0.2062    0.0000 C   0  0  0  0  0  0  0  2  0  0  0  0
   -1.0717   -0.2062    0.0000 C   0  0  0  0  0  0  0  2  0  0  0  0
  1  2  4  0        0
  2  3  4  0        0
  3  4  4  0        0
  4  5  1  0        0
  4  6  4  0        0
  6  7  1  0        0
  7  8  4  0        0
  8  9  1  0        0
  8 10  4  0        0
 10 11  4  0        0
 11 12  4  0        0
 12 13  4  0        0
  7 13  4  0        0
  6 14  4  0        0
  1 14  4  0        0
M  END
$$$$

CDXL12

 15 16  0  0  0  0  0  0  0  0999 V2000
    2.5006   -1.4438    0.0000 Cl  0  0  0  0  0  0  0  2  0  0  0  0
    1.7862   -1.0313    0.0000 C   0  0  0  0  0  0  0  2  0  0  0  0
    1.0717   -1.4438    0.0000 C   0  0  0  0  0  0  0  2  0  0  0  0
    0.3572   -1.0313    0.0000 C   0  0  0  0  0  0  0  2  0  0  0  0
    0.3572   -0.2062    0.0000 C   0  0  0  0  0  0  0  2  0  0  0  0
    1.0717    0.2062    0.0000 C   0  0  0  0  0  0  0  2  0  0  0  0
    1.7862   -0.2062    0.0000 C   0  0  0  0  0  0  0  2  0  0  0  0
   -0.3572    0.2062    0.0000 C   0  0  0  0  0  0  0  2  0  0  0  0
   -1.0717   -0.2062    0.0000 C   0  0  0  0  0  0  0  2  0  0  0  0
   -1.7862    0.2062    0.0000 C   0  0  0  0  0  0  0  2  0  0  0  0
   -2.5006   -0.2062    0.0000 Cl  0  0  0  0  0  0  0  2  0  0  0  0
   -1.7862    1.0313    0.0000 C   0  0  0  0  0  0  0  2  0  0  0  0
   -1.0717    1.4438    0.0000 C   0  0  0  0  0  0  0  2  0  0  0  0
   -0.3572    1.0313    0.0000 C   0  0  0  0  0  0  0  2  0  0  0  0
    0.3572    1.4438    0.0000 Cl  0  0  0  0  0  0  0  2  0  0  0  0
  1  2  1  0        0
  2  3  4  0        0
  3  4  4  0        0
  4  5  4  0        0
  5  6  4  0        0
  6  7  4  0        0
  2  7  4  0        0
  5  8  1  0        0
  8  9  4  0        0
  9 10  4  0        0
 10 11  1  0        0
 10 12  4  0        0
 12 13  4  0        0
 13 14  4  0        0
  8 14  4  0        0
 14 15  1  0        0
M  END
$$$$

CDXL12

  7  6  0  0  0  0  0  0  0  0999 V2000
    0.7145    0.8250    0.0000 O   0  0  0  0  0  0  0  2  0  0  0  0
    0.7145    0.0000    0.0000 P   0  0  0  0  0  0  0  2  0  0  0  0
    0.7145   -0.8250    0.0000 O   0  0  0  0  0  0  0  2  0  0  0  0
    1.4289   -0.4125    0.0000 O   0  0  0  0  0  0  0  2  0  0  0  0
    0.0000   -0.4125    0.0000 C   0  0  0  0  0  0  0  2  0  0  0  0
   -0.7145   -0.0000    0.0000 C   0  0  0  0  0  0  0  2  0  0  0  0
   -1.4289   -0.4125    0.0000 Cl  0  0  0  0  0  0  0  2  0  0  0  0
  1  2  2  0        0
  2  3  1  0        0
  2  4  1  0        0
  2  5  1  0        0
  5  6  1  0        0
  6  7  1  0        0
M  END
$$$$

CDXL12

  2  1  0  0  0  0  0  0  0  0999 V2000
    0.4125    0.0000    0.0000 S   0  0  0  0  0  0  0  2  0  0  0  0
   -0.4125    0.0000    0.0000 Na  0  0  0  0  0  0  0  2  0  0  0  0
  1  2  1  0        0
M  END
$$$$

CDXL12

 10  9  0  0  0  0  0  0  0  0999 V2000
   -2.5006    0.2062    0.0000 C   0  0  0  0  0  0  0  2  0  0  0  0
   -1.7862   -0.2062    0.0000 N   0  0  0  0  0  0  0  2  0  0  0  0
   -1.0717    0.2062    0.0000 C   0  0  0  0  0  0  0  2  0  0  0  0
   -1.0717    1.0312    0.0000 O   0  0  0  0  0  0  0  2  0  0  0  0
   -0.3572   -0.2062    0.0000 O   0  0  0  0  0  0  0  2  0  0  0  0
    0.3572    0.2062    0.0000 N   0  0  0  0  0  0  0  2  0  0  0  0
    1.0717   -0.2062    0.0000 C   0  0  0  0  0  0  0  2  0  0  0  0
    1.0717   -1.0312    0.0000 C   0  0  0  0  0  0  0  2  0  0  0  0
    1.7862    0.2062    0.0000 S   0  0  0  0  0  0  0  2  0  0  0  0
    2.5006   -0.2062    0.0000 C   0  0  0  0  0  0  0  2  0  0  0  0
  1  2  1  0        0
  2  3  1  0        0
  3  4  2  0        0
  3  5  1  0        0
  5  6  1  0        0
  6  7  2  0        0
  7  8  1  0        0
  7  9  1  0        0
  9 10  1  0        0
M  END
$$$$

CDXL12

 33 34  0  0  0  0  0  0  0  0999 V2000
    2.5006   -2.8875    0.0000 O   0  0  0  0  0  0  0  2  0  0  0  0
    2.5006   -2.0625    0.0000 C   0  0  0  0  0  0  0  2  0  0  0  0
    1.7862   -1.6500    0.0000 O   0  0  0  0  0  0  0  2  0  0  0  0
    1.0717   -2.0625    0.0000 C   0  0  0  0  0  0  0  2  0  0  0  0
    0.3572   -1.6500    0.0000 C   0  0  0  0  0  0  0  2  0  0  0  0
    0.7697   -0.9355    0.0000 C   0  0  0  0  0  0  0  2  0  0  0  0
   -0.0553   -0.9355    0.0000 C   0  0  0  0  0  0  0  2  0  0  0  0
   -0.3572   -2.0625    0.0000 C   0  0  0  0  0  0  0  2  0  0  0  0
   -1.0717   -1.6500    0.0000 O   0  0  0  0  0  0  0  2  0  0  0  0
   -1.7862   -2.0625    0.0000 C   0  0  0  0  0  0  0  2  0  0  0  0
   -1.7862   -2.8875    0.0000 O   0  0  0  0  0  0  0  2  0  0  0  0
   -2.5006   -1.6500    0.0000 C   0  0  0  0  0  0  0  2  0  0  0  0
   -2.5006   -0.8250    0.0000 C   0  0  0  0  0  0  0  2  0  0  0  0
   -3.2151   -0.4125    0.0000 C   0  0  0  0  0  0  0  2  0  0  0  0
   -3.9296   -0.8250    0.0000 C   0  0  0  0  0  0  0  2  0  0  0  0
   -3.9296   -1.6500    0.0000 C   0  0  0  0  0  0  0  2  0  0  0  0
   -3.2151   -2.0625    0.0000 C   0  0  0  0  0  0  0  2  0  0  0  0
   -1.7862   -0.4125    0.0000 C   0  0  0  0  0  0  0  2  0  0  0  0
   -1.0717   -0.8250    0.0000 O   0  0  0  0  0  0  0  2  0  0  0  0
   -1.7862    0.4125    0.0000 O   0  0  0  0  0  0  0  2  0  0  0  0
   -1.0717    0.8250    0.0000 C   0  0  0  0  0  0  0  2  0  0  0  0
   -1.0717    1.6500    0.0000 C   0  0  0  0  0  0  0  2  0  0  0  0
   -1.7862    2.0625    0.0000 C   0  0  0  0  0  0  0  2  0  0  0  0
   -1.7862    2.8875    0.0000 C   0  0  0  0  0  0  0  2  0  0  0  0
   -1.0717    3.3000    0.0000 C   0  0  0  0  0  0  0  2  0  0  0  0
   -0.3572    2.8875    0.0000 C   0  0  0  0  0  0  0  2  0  0  0  0
   -0.3572    2.0625    0.0000 C   0  0  0  0  0  0  0  2  0  0  0  0
   -0.3572   -2.8875    0.0000 C   0  0  0  0  0  0  0  2  0  0  0  0
   -1.0717   -3.3000    0.0000 C   0  0  0  0  0  0  0  2  0  0  0  0
    0.3572   -3.3000    0.0000 C   0  0  0  0  0  0  0  2  0  0  0  0
    3.2151   -1.6500    0.0000 C   0  0  0  0  0  0  0  2  0  0  0  0
    3.9296   -2.0625    0.0000 C   0  0  0  0  0  0  0  2  0  0  0  0
    3.2151   -0.8250    0.0000 C   0  0  0  0  0  0  0  2  0  0  0  0
  1  2  2  0        0
  2  3  1  0        0
  3  4  1  0        0
  4  5  1  0        0
  5  6  1  0        0
  5  7  1  0        0
  5  8  1  0        0
  8  9  1  0        0
  9 10  1  0        0
 10 11  2  0        0
 10 12  1  0        0
 12 13  4  0        0
 13 14  4  0        0
 14 15  4  0        0
 15 16  4  0        0
 16 17  4  0        0
 12 17  4  0        0
 13 18  1  0        0
 18 19  2  0        0
 18 20  1  0        0
 20 21  1  0        0
 21 22  1  0        0
 22 23  4  0        0
 23 24  4  0        0
 24 25  4  0        0
 25 26  4  0        0
 26 27  4  0        0
 22 27  4  0        0
  8 28  1  0        0
 28 29  1  0        0
 28 30  1  0        0
  2 31  1  0        0
 31 32  1  0        0
 31 33  1  0        0
M  END
$$$$

CDXL12

 11 10  0  0  0  0  0  0  0  0999 V2000
    0.7145   -0.6188    0.0000 F   0  0  0  0  0  0  0  2  0  0  0  0
    0.0000   -0.2062    0.0000 Si  0  0  0  0  0  0  0  2  0  0  0  0
    0.0000    0.6188    0.0000 F   0  0  0  0  0  0  0  2  0  0  0  0
   -0.7145   -0.6187    0.0000 F   0  0  0  0  0  0  0  2  0  0  0  0
    0.0000   -1.0313    0.0000 F   0  0  0  0  0  0  0  2  0  0  0  0
   -0.7145    0.2062    0.0000 F   0  0  0  0  0  0  0  2  0  0  0  0
   -1.4289   -0.2062    0.0000 C   0  0  0  0  0  0  0  2  0  0  0  0
   -0.7145    1.0313    0.0000 Na  0  0  0  0  0  0  0  2  0  0  0  0
    0.7145    0.2062    0.0000 F   0  0  0  0  0  0  0  2  0  0  0  0
    1.4289   -0.2062    0.0000 C   0  0  0  0  0  0  0  2  0  0  0  0
    0.7145    1.0312    0.0000 Na  0  0  0  0  0  0  0  2  0  0  0  0
  1  2  1  0        0
  2  3  1  0        0
  2  4  1  0        0
  2  5  1  0        0
  2  6  1  0        0
  6  7  1  0        0
  6  8  1  0        0
  2  9  1  0        0
  9 10  1  0        0
  9 11  1  0        0
A    7
''
A   10
''
M  END
$$$$

CDXL12

  8  7  0  0  0  0  0  0  0  0999 V2000
    0.0000   -0.6188    0.0000 O   0  0  0  0  0  0  0  2  0  0  0  0
    0.7145   -0.2062    0.0000 C   0  0  0  0  0  0  0  2  0  0  0  0
    0.7145    0.6188    0.0000 C   0  0  0  0  0  0  0  2  0  0  0  0
    1.4289    0.2062    0.0000 C   0  0  0  0  0  0  0  2  0  0  0  0
    1.4289   -0.6188    0.0000 C   0  0  0  0  0  0  0  2  0  0  0  0
   -0.7145   -0.2063    0.0000 C   0  0  0  0  0  0  0  2  0  0  0  0
   -1.4289   -0.6188    0.0000 C   0  0  0  0  0  0  0  2  0  0  0  0
   -0.7145    0.6188    0.0000 C   0  0  0  0  0  0  0  2  0  0  0  0
  1  2  1  0        0
  2  3  1  0        0
  2  4  1  0        0
  2  5  1  0        0
  1  6  1  0        0
  6  7  1  0        0
  6  8  1  0        0
M  END
$$$$

CDXL12

 26 27  0  0  0  0  0  0  0  0999 V2000
    3.5724   -0.0000    0.0000 C   0  0  0  0  0  0  0  2  0  0  0  0
    4.2868   -0.4125    0.0000 C   0  0  0  0  0  0  0  2  0  0  0  0
    4.2868   -1.2375    0.0000 C   0  0  0  0  0  0  0  2  0  0  0  0
    3.5724   -1.6500    0.0000 C   0  0  0  0  0  0  0  2  0  0  0  0
    2.8579   -1.2375    0.0000 C   0  0  0  0  0  0  0  2  0  0  0  0
    2.8579   -0.4125    0.0000 C   0  0  0  0  0  0  0  2  0  0  0  0
    2.1434   -0.0000    0.0000 S   0  0  0  0  0  0  0  2  0  0  0  0
    1.7309   -0.7145    0.0000 O   0  0  0  0  0  0  0  2  0  0  0  0
    2.5559    0.7145    0.0000 O   0  0  0  0  0  0  0  2  0  0  0  0
    1.4289    0.4125    0.0000 S   0  0  0  0  0  0  0  2  0  0  0  0
    0.7145   -0.0000    0.0000 C   0  0  0  0  0  0  0  2  0  0  0  0
    0.0000    0.4125    0.0000 C   0  0  0  0  0  0  0  2  0  0  0  0
    0.0000    1.2375    0.0000 N   0  0  0  0  0  0  0  2  0  0  0  0
   -0.7145    1.6500    0.0000 C   0  0  0  0  0  0  0  2  0  0  0  0
    0.7145    1.6500    0.0000 C   0  0  0  0  0  0  0  2  0  0  0  0
   -0.7145   -0.0000    0.0000 C   0  0  0  0  0  0  0  2  0  0  0  0
   -1.4289    0.4125    0.0000 S   0  0  0  0  0  0  0  2  0  0  0  0
   -2.1434    0.0000    0.0000 S   0  0  0  0  0  0  0  2  0  0  0  0
   -2.5559    0.7145    0.0000 O   0  0  0  0  0  0  0  2  0  0  0  0
   -1.7309   -0.7145    0.0000 O   0  0  0  0  0  0  0  2  0  0  0  0
   -2.8579   -0.4125    0.0000 C   0  0  0  0  0  0  0  2  0  0  0  0
   -2.8579   -1.2375    0.0000 C   0  0  0  0  0  0  0  2  0  0  0  0
   -3.5724   -1.6500    0.0000 C   0  0  0  0  0  0  0  2  0  0  0  0
   -4.2868   -1.2375    0.0000 C   0  0  0  0  0  0  0  2  0  0  0  0
   -4.2868   -0.4125    0.0000 C   0  0  0  0  0  0  0  2  0  0  0  0
   -3.5724    0.0000    0.0000 C   0  0  0  0  0  0  0  2  0  0  0  0
  1  2  4  0        0
  2  3  4  0        0
  3  4  4  0        0
  4  5  4  0        0
  5  6  4  0        0
  1  6  4  0        0
  6  7  1  0        0
  7  8  2  0        0
  7  9  2  0        0
  7 10  1  0        0
 10 11  1  0        0
 11 12  1  0        0
 12 13  1  0        0
 13 14  1  0        0
 13 15  1  0        0
 12 16  1  0        0
 16 17  1  0        0
 17 18  1  0        0
 18 19  2  0        0
 18 20  2  0        0
 18 21  1  0        0
 21 22  4  0        0
 22 23  4  0        0
 23 24  4  0        0
 24 25  4  0        0
 25 26  4  0        0
 21 26  4  0        0
M  END
$$$$

CDXL12

 12 12  0  0  0  0  0  0  0  0999 V2000
    1.7862   -1.2375    0.0000 Cl  0  0  0  0  0  0  0  2  0  0  0  0
    1.0717   -0.8250    0.0000 C   0  0  0  0  0  0  0  2  0  0  0  0
    0.3572   -1.2375    0.0000 C   0  0  0  0  0  0  0  2  0  0  0  0
   -0.3572   -0.8250    0.0000 C   0  0  0  0  0  0  0  2  0  0  0  0
   -0.3572    0.0000    0.0000 C   0  0  0  0  0  0  0  2  0  0  0  0
   -1.0717    0.4125    0.0000 N   0  0  0  0  0  0  0  2  0  0  0  0
   -1.0717    1.2375    0.0000 O   0  0  0  0  0  0  0  2  0  0  0  0
   -1.7862    0.0000    0.0000 O   0  0  0  0  0  0  0  2  0  0  0  0
    0.3572    0.4125    0.0000 C   0  0  0  0  0  0  0  2  0  0  0  0
    0.3572    1.2375    0.0000 Cl  0  0  0  0  0  0  0  2  0  0  0  0
    1.0717    0.0000    0.0000 C   0  0  0  0  0  0  0  2  0  0  0  0
    1.7862    0.4125    0.0000 Cl  0  0  0  0  0  0  0  2  0  0  0  0
  1  2  1  0        0
  2  3  4  0        0
  3  4  4  0        0
  4  5  4  0        0
  5  6  1  0        0
  6  7  2  0        0
  6  8  2  0        0
  5  9  4  0        0
  9 10  1  0        0
  9 11  4  0        0
  2 11  4  0        0
 11 12  1  0        0
M  END
$$$$

CDXL12

 17 16  0  0  0  0  0  0  0  0999 V2000
    1.0717   -1.2375    0.0000 Si  0  0  0  0  0  0  0  2  0  0  0  0
    1.0717   -0.4125    0.0000 O   0  0  0  0  0  0  0  2  0  0  0  0
    0.3572   -0.0000    0.0000 Si  0  0  0  0  0  0  0  2  0  0  0  0
   -0.3572   -0.4125    0.0000 O   0  0  0  0  0  0  0  2  0  0  0  0
   -1.0717   -0.0000    0.0000 Si  0  0  0  0  0  0  0  2  0  0  0  0
   -1.7862   -0.4125    0.0000 C   0  0  0  0  0  0  0  2  0  0  0  0
   -1.0717    0.8250    0.0000 C   0  0  0  0  0  0  0  2  0  0  0  0
   -1.7862    0.4125    0.0000 C   0  0  0  0  0  0  0  2  0  0  0  0
    0.3572    0.8250    0.0000 O   0  0  0  0  0  0  0  2  0  0  0  0
    1.0717    1.2375    0.0000 Si  0  0  0  0  0  0  0  2  0  0  0  0
    1.7862    0.8250    0.0000 C   0  0  0  0  0  0  0  2  0  0  0  0
    1.7862    1.6500    0.0000 C   0  0  0  0  0  0  0  2  0  0  0  0
    1.0717    2.0625    0.0000 C   0  0  0  0  0  0  0  2  0  0  0  0
    0.3572   -0.8250    0.0000 C   0  0  0  0  0  0  0  2  0  0  0  0
    1.0717   -2.0625    0.0000 C   0  0  0  0  0  0  0  2  0  0  0  0
    0.3572   -1.6500    0.0000 C   0  0  0  0  0  0  0  2  0  0  0  0
    1.7862   -1.6500    0.0000 C   0  0  0  0  0  0  0  2  0  0  0  0
  1  2  1  0        0
  2  3  1  0        0
  3  4  1  0        0
  4  5  1  0        0
  5  6  1  0        0
  5  7  1  0        0
  5  8  1  0        0
  3  9  1  0        0
  9 10  1  0        0
 10 11  1  0        0
 10 12  1  0        0
 10 13  1  0        0
  3 14  1  0        0
  1 15  1  0        0
  1 16  1  0        0
  1 17  1  0        0
M  END
$$$$

CDXL12

  7  6  0  0  0  0  0  0  0  0999 V2000
    1.4289   -0.4125    0.0000 C   0  0  0  0  0  0  0  2  0  0  0  0
    0.7145   -0.0000    0.0000 C   0  0  0  0  0  0  0  2  0  0  0  0
    0.0000   -0.4125    0.0000 O   0  0  0  0  0  0  0  2  0  0  0  0
   -0.7145    0.0000    0.0000 P   0  0  0  0  0  0  0  2  0  0  0  0
   -0.7145    0.8250    0.0000 S   0  0  0  0  0  0  0  2  0  0  0  0
   -1.4289   -0.4125    0.0000 C   0  0  0  0  0  0  0  2  0  0  0  0
   -0.7145   -0.8250    0.0000 O   0  0  0  0  0  0  0  2  0  0  0  0
  1  2  1  0        0
  2  3  1  0        0
  3  4  1  0        0
  4  5  2  0        0
  4  6  1  0        0
  4  7  1  0        0
M  END
$$$$

CDXL12

 12 12  0  0  0  0  0  0  0  0999 V2000
    2.1434    0.0000    0.0000 C   0  0  0  0  0  0  0  2  0  0  0  0
    1.4289   -0.4125    0.0000 O   0  0  0  0  0  0  0  2  0  0  0  0
    0.7145   -0.0000    0.0000 C   0  0  0  0  0  0  0  2  0  0  0  0
    0.7145    0.8250    0.0000 C   0  0  0  0  0  0  0  2  0  0  0  0
    0.0000    1.2375    0.0000 C   0  0  0  0  0  0  0  2  0  0  0  0
   -0.7145    0.8250    0.0000 C   0  0  0  0  0  0  0  2  0  0  0  0
   -1.4289    1.2375    0.0000 Cl  0  0  0  0  0  0  0  2  0  0  0  0
   -0.7145   -0.0000    0.0000 C   0  0  0  0  0  0  0  2  0  0  0  0
    0.0000   -0.4125    0.0000 C   0  0  0  0  0  0  0  2  0  0  0  0
    0.0000   -1.2375    0.0000 O   0  0  0  0  0  0  0  2  0  0  0  0
   -1.4289   -0.4125    0.0000 O   0  0  0  0  0  0  0  2  0  0  0  0
   -2.1434   -0.0000    0.0000 C   0  0  0  0  0  0  0  2  0  0  0  0
  1  2  1  0        0
  2  3  1  0        0
  3  4  4  0        0
  4  5  4  0        0
  5  6  4  0        0
  6  7  1  0        0
  6  8  4  0        0
  8  9  4  0        0
  3  9  4  0        0
  9 10  1  0        0
  8 11  1  0        0
 11 12  1  0        0
M  END
$$$$

CDXL12

 22 23  0  0  0  0  0  0  0  0999 V2000
   -0.0000   -0.8250    0.0000 C   0  0  0  0  0  0  0  2  0  0  0  0
   -0.0000   -1.6500    0.0000 O   0  0  0  0  0  0  0  2  0  0  0  0
   -0.0000    0.0000    0.0000 C   0  0  0  0  0  0  0  2  0  0  0  0
    0.7145    0.4125    0.0000 C   0  0  0  0  0  0  0  2  0  0  0  0
    0.7145    1.2375    0.0000 C   0  0  0  0  0  0  0  2  0  0  0  0
   -0.0000    1.6500    0.0000 C   0  0  0  0  0  0  0  2  0  0  0  0
   -0.0000    2.4750    0.0000 Br  0  0  0  0  0  0  0  2  0  0  0  0
   -0.7145    1.2375    0.0000 C   0  0  0  0  0  0  0  2  0  0  0  0
   -0.7145    0.4125    0.0000 C   0  0  0  0  0  0  0  2  0  0  0  0
   -0.7145   -1.2375    0.0000 C   0  0  0  0  0  0  0  2  0  0  0  0
   -1.4289   -0.8250    0.0000 C   0  0  0  0  0  0  0  2  0  0  0  0
   -2.1434   -1.2375    0.0000 C   0  0  0  0  0  0  0  2  0  0  0  0
   -2.1434   -2.0625    0.0000 C   0  0  0  0  0  0  0  2  0  0  0  0
   -2.8579   -2.4750    0.0000 Br  0  0  0  0  0  0  0  2  0  0  0  0
   -1.4289   -2.4750    0.0000 C   0  0  0  0  0  0  0  2  0  0  0  0
   -0.7145   -2.0625    0.0000 C   0  0  0  0  0  0  0  2  0  0  0  0
    0.7145   -1.2375    0.0000 C   0  0  0  0  0  0  0  2  0  0  0  0
    0.7145   -2.0625    0.0000 O   0  0  0  0  0  0  0  2  0  0  0  0
    1.4289   -0.8250    0.0000 O   0  0  0  0  0  0  0  2  0  0  0  0
    2.1434   -1.2375    0.0000 C   0  0  0  0  0  0  0  2  0  0  0  0
    2.1434   -2.0625    0.0000 C   0  0  0  0  0  0  0  2  0  0  0  0
    2.8579   -0.8250    0.0000 C   0  0  0  0  0  0  0  2  0  0  0  0
  1  2  1  0        0
  1  3  1  0        0
  3  4  4  0        0
  4  5  4  0        0
  5  6  4  0        0
  6  7  1  0        0
  6  8  4  0        0
  8  9  4  0        0
  3  9  4  0        0
  1 10  1  0        0
 10 11  4  0        0
 11 12  4  0        0
 12 13  4  0        0
 13 14  1  0        0
 13 15  4  0        0
 15 16  4  0        0
 10 16  4  0        0
  1 17  1  0        0
 17 18  2  0        0
 17 19  1  0        0
 19 20  1  0        0
 20 21  1  0        0
 20 22  1  0        0
M  END
$$$$

CDXL12

 17 18  0  0  0  0  0  0  0  0999 V2000
    0.7145   -1.0313    0.0000 Cl  0  0  0  0  0  0  0  2  0  0  0  0
    0.0000   -0.6188    0.0000 C   0  0  0  0  0  0  0  2  0  0  0  0
   -0.7145   -1.0312    0.0000 C   0  0  0  0  0  0  0  2  0  0  0  0
   -0.7145   -1.8562    0.0000 Cl  0  0  0  0  0  0  0  2  0  0  0  0
   -1.4289   -0.6188    0.0000 C   0  0  0  0  0  0  0  2  0  0  0  0
   -2.1434   -1.0312    0.0000 Cl  0  0  0  0  0  0  0  2  0  0  0  0
   -1.4289    0.2062    0.0000 C   0  0  0  0  0  0  0  2  0  0  0  0
   -2.1434    0.6187    0.0000 Cl  0  0  0  0  0  0  0  2  0  0  0  0
   -0.7145    0.6187    0.0000 C   0  0  0  0  0  0  0  2  0  0  0  0
   -0.7145    1.4437    0.0000 Cl  0  0  0  0  0  0  0  2  0  0  0  0
    0.0000    0.2062    0.0000 C   0  0  0  0  0  0  0  2  0  0  0  0
    0.7145    0.6187    0.0000 C   0  0  0  0  0  0  0  2  0  0  0  0
    0.7145    1.4437    0.0000 C   0  0  0  0  0  0  0  2  0  0  0  0
    1.4289    1.8562    0.0000 C   0  0  0  0  0  0  0  2  0  0  0  0
    2.1434    1.4437    0.0000 C   0  0  0  0  0  0  0  2  0  0  0  0
    2.1434    0.6187    0.0000 C   0  0  0  0  0  0  0  2  0  0  0  0
    1.4289    0.2062    0.0000 C   0  0  0  0  0  0  0  2  0  0  0  0
  1  2  1  0        0
  2  3  4  0        0
  3  4  1  0        0
  3  5  4  0        0
  5  6  1  0        0
  5  7  4  0        0
  7  8  1  0        0
  7  9  4  0        0
  9 10  1  0        0
  9 11  4  0        0
  2 11  4  0        0
 11 12  1  0        0
 12 13  4  0        0
 13 14  4  0        0
 14 15  4  0        0
 15 16  4  0        0
 16 17  4  0        0
 12 17  4  0        0
M  END
$$$$

CDXL12

 13 13  0  0  0  0  0  0  0  0999 V2000
    2.1434   -0.8250    0.0000 O   0  0  0  0  0  0  0  2  0  0  0  0
    1.4289   -1.2375    0.0000 C   0  0  0  0  0  0  0  2  0  0  0  0
    0.7145   -0.8250    0.0000 C   0  0  0  0  0  0  0  2  0  0  0  0
    0.7145    0.0000    0.0000 C   0  0  0  0  0  0  0  2  0  0  0  0
    0.0000    0.4125    0.0000 C   0  0  0  0  0  0  0  2  0  0  0  0
    0.0000    1.2375    0.0000 Cl  0  0  0  0  0  0  0  2  0  0  0  0
   -0.7145   -0.0000    0.0000 C   0  0  0  0  0  0  0  2  0  0  0  0
   -0.7145   -0.8250    0.0000 C   0  0  0  0  0  0  0  2  0  0  0  0
    0.0000   -1.2375    0.0000 C   0  0  0  0  0  0  0  2  0  0  0  0
   -1.4289   -1.2375    0.0000 O   0  0  0  0  0  0  0  2  0  0  0  0
   -2.1434   -0.8250    0.0000 C   0  0  0  0  0  0  0  2  0  0  0  0
   -1.4289    0.4125    0.0000 O   0  0  0  0  0  0  0  2  0  0  0  0
    1.4289    0.4125    0.0000 Cl  0  0  0  0  0  0  0  2  0  0  0  0
  1  2  2  0        0
  2  3  1  0        0
  3  4  4  0        0
  4  5  4  0        0
  5  6  1  0        0
  5  7  4  0        0
  7  8  4  0        0
  8  9  4  0        0
  3  9  4  0        0
  8 10  1  0        0
 10 11  1  0        0
  7 12  1  0        0
  4 13  1  0        0
M  END
$$$$

CDXL12

 12 12  0  0  0  0  0  0  0  0999 V2000
    2.1434   -0.4125    0.0000 O   0  0  0  0  0  0  0  2  0  0  0  0
    1.4289   -0.8250    0.0000 C   0  0  0  0  0  0  0  2  0  0  0  0
    0.7145   -0.4125    0.0000 C   0  0  0  0  0  0  0  2  0  0  0  0
    0.7145    0.4125    0.0000 C   0  0  0  0  0  0  0  2  0  0  0  0
    0.0000    0.8250    0.0000 C   0  0  0  0  0  0  0  2  0  0  0  0
   -0.7145    0.4125    0.0000 C   0  0  0  0  0  0  0  2  0  0  0  0
   -0.7145   -0.4125    0.0000 C   0  0  0  0  0  0  0  2  0  0  0  0
    0.0000   -0.8250    0.0000 C   0  0  0  0  0  0  0  2  0  0  0  0
   -1.4289   -0.8250    0.0000 O   0  0  0  0  0  0  0  2  0  0  0  0
   -2.1434   -0.4125    0.0000 C   0  0  0  0  0  0  0  2  0  0  0  0
   -1.4289    0.8250    0.0000 O   0  0  0  0  0  0  0  2  0  0  0  0
    1.4289    0.8250    0.0000 Cl  0  0  0  0  0  0  0  2  0  0  0  0
  1  2  2  0        0
  2  3  1  0        0
  3  4  4  0        0
  4  5  4  0        0
  5  6  4  0        0
  6  7  4  0        0
  7  8  4  0        0
  3  8  4  0        0
  7  9  1  0        0
  9 10  1  0        0
  6 11  1  0        0
  4 12  1  0        0
M  END
$$$$

CDXL12

 16 18  0  0  0  0  0  0  0  0999 V2000
   -2.0637   -0.4125    0.0000 N   0  0  0  0  0  0  0  2  0  0  0  0
   -2.0637   -1.2375    0.0000 C   0  0  0  0  0  0  0  2  0  0  0  0
   -2.7782    0.0000    0.0000 C   0  0  0  0  0  0  0  2  0  0  0  0
   -1.3492    0.0000    0.0000 C   0  0  0  0  0  0  0  2  0  0  0  0
   -1.3492    0.8250    0.0000 O   0  0  0  0  0  0  0  2  0  0  0  0
   -0.6348   -0.4125    0.0000 N   0  0  0  0  0  0  0  2  0  0  0  0
    0.0797    0.0000    0.0000 C   0  0  0  0  0  0  0  2  0  0  0  0
    0.7942   -0.4125    0.0000 C   0  0  0  0  0  0  0  2  0  0  0  0
    0.4576    0.4125    0.0000 C   0  0  0  0  0  0  0  2  0  0  0  0
    0.7942    1.2375    0.0000 C   0  0  0  0  0  0  0  2  0  0  0  0
    1.5086    0.8250    0.0000 C   0  0  0  0  0  0  0  2  0  0  0  0
    1.5086    0.0000    0.0000 C   0  0  0  0  0  0  0  2  0  0  0  0
    2.2933   -0.2549    0.0000 C   0  0  0  0  0  0  0  2  0  0  0  0
    2.7782    0.4125    0.0000 C   0  0  0  0  0  0  0  2  0  0  0  0
    2.2933    1.0799    0.0000 C   0  0  0  0  0  0  0  2  0  0  0  0
    0.0797    0.8250    0.0000 C   0  0  0  0  0  0  0  2  0  0  0  0
  1  2  1  0        0
  1  3  1  0        0
  1  4  1  0        0
  4  5  2  0        0
  4  6  1  0        0
  6  7  1  0        0
  7  8  1  0        0
  8  9  1  0        0
  9 10  1  0        0
 10 11  1  0        0
 11 12  1  0        0
  8 12  1  0        0
 12 13  1  0        0
 13 14  1  0        0
 14 15  1  0        0
 11 15  1  0        0
 10 16  1  0        0
  7 16  1  0        0
M  END
$$$$

CDXL12

 15 16  0  0  0  0  0  0  0  0999 V2000
    2.5867    1.1270    0.0000 C   0  0  0  0  0  0  0  2  0  0  0  0
    2.1742    0.4125    0.0000 N   0  0  0  0  0  0  0  2  0  0  0  0
    1.3492    0.4125    0.0000 C   0  0  0  0  0  0  0  2  0  0  0  0
    0.9367    1.1270    0.0000 O   0  0  0  0  0  0  0  2  0  0  0  0
    0.9367   -0.3020    0.0000 N   0  0  0  0  0  0  0  2  0  0  0  0
    1.3492   -1.0164    0.0000 C   0  0  0  0  0  0  0  2  0  0  0  0
    0.1117   -0.3020    0.0000 C   0  0  0  0  0  0  0  2  0  0  0  0
   -0.3732   -0.9694    0.0000 N   0  0  0  0  0  0  0  2  0  0  0  0
   -1.1578   -0.7145    0.0000 C   0  0  0  0  0  0  0  2  0  0  0  0
   -1.8723   -1.1270    0.0000 C   0  0  0  0  0  0  0  2  0  0  0  0
   -2.5867   -0.7145    0.0000 C   0  0  0  0  0  0  0  2  0  0  0  0
   -2.5867    0.1105    0.0000 C   0  0  0  0  0  0  0  2  0  0  0  0
   -1.8723    0.5230    0.0000 C   0  0  0  0  0  0  0  2  0  0  0  0
   -1.1578    0.1105    0.0000 C   0  0  0  0  0  0  0  2  0  0  0  0
   -0.3732    0.3655    0.0000 S   0  0  0  0  0  0  0  2  0  0  0  0
  1  2  1  0        0
  2  3  1  0        0
  3  4  2  0        0
  3  5  1  0        0
  5  6  1  0        0
  5  7  1  0        0
  7  8  4  0        0
  8  9  4  0        0
  9 10  4  0        0
 10 11  4  0        0
 11 12  4  0        0
 12 13  4  0        0
 13 14  4  0        0
  9 14  4  0        0
 14 15  4  0        0
  7 15  4  0        0
M  END
$$$$

CDXL12

 12 12  0  0  0  0  0  0  0  0999 V2000
   -1.0717    1.2375    0.0000 O   0  0  0  0  0  0  0  2  0  0  0  0
   -1.0717    0.4125    0.0000 N   0  0  0  0  0  0  0  2  0  0  0  0
   -1.7862    0.0000    0.0000 O   0  0  0  0  0  0  0  2  0  0  0  0
   -0.3572    0.0000    0.0000 C   0  0  0  0  0  0  0  2  0  0  0  0
    0.3572    0.4125    0.0000 C   0  0  0  0  0  0  0  2  0  0  0  0
    1.0717    0.0000    0.0000 C   0  0  0  0  0  0  0  2  0  0  0  0
    1.0717   -0.8250    0.0000 C   0  0  0  0  0  0  0  2  0  0  0  0
    0.3572   -1.2375    0.0000 C   0  0  0  0  0  0  0  2  0  0  0  0
   -0.3572   -0.8250    0.0000 C   0  0  0  0  0  0  0  2  0  0  0  0
   -1.0717   -1.2375    0.0000 Cl  0  0  0  0  0  0  0  2  0  0  0  0
    1.7862   -1.2375    0.0000 Cl  0  0  0  0  0  0  0  2  0  0  0  0
    0.3572    1.2375    0.0000 Cl  0  0  0  0  0  0  0  2  0  0  0  0
  1  2  2  0        0
  2  3  2  0        0
  2  4  1  0        0
  4  5  4  0        0
  5  6  4  0        0
  6  7  4  0        0
  7  8  4  0        0
  8  9  4  0        0
  4  9  4  0        0
  9 10  1  0        0
  7 11  1  0        0
  5 12  1  0        0
M  END
$$$$

CDXL12

 20 21  0  0  0  0  0  0  0  0999 V2000
   -1.1691    1.5273    0.0000 S   0  0  0  0  0  0  0  2  0  0  0  0
   -1.1691    0.7023    0.0000 P   0  0  0  0  0  0  0  2  0  0  0  0
   -1.8836    0.2898    0.0000 O   0  0  0  0  0  0  0  2  0  0  0  0
   -2.5980    0.7023    0.0000 C   0  0  0  0  0  0  0  2  0  0  0  0
   -3.3125    0.2898    0.0000 C   0  0  0  0  0  0  0  2  0  0  0  0
   -0.4546    0.2898    0.0000 O   0  0  0  0  0  0  0  2  0  0  0  0
    0.2598    0.7023    0.0000 C   0  0  0  0  0  0  0  2  0  0  0  0
    0.9743    0.2898    0.0000 C   0  0  0  0  0  0  0  2  0  0  0  0
   -1.1691   -0.1227    0.0000 O   0  0  0  0  0  0  0  2  0  0  0  0
   -0.4546   -0.5352    0.0000 C   0  0  0  0  0  0  0  2  0  0  0  0
   -0.3684   -1.3557    0.0000 N   0  0  0  0  0  0  0  2  0  0  0  0
    0.4386   -1.5273    0.0000 O   0  0  0  0  0  0  0  2  0  0  0  0
    0.8511   -0.8128    0.0000 C   0  0  0  0  0  0  0  2  0  0  0  0
    1.6716   -0.7265    0.0000 C   0  0  0  0  0  0  0  2  0  0  0  0
    2.0071    0.0271    0.0000 C   0  0  0  0  0  0  0  2  0  0  0  0
    2.8276    0.1134    0.0000 C   0  0  0  0  0  0  0  2  0  0  0  0
    3.3125   -0.5541    0.0000 C   0  0  0  0  0  0  0  2  0  0  0  0
    2.9770   -1.3077    0.0000 C   0  0  0  0  0  0  0  2  0  0  0  0
    2.1565   -1.3940    0.0000 C   0  0  0  0  0  0  0  2  0  0  0  0
    0.2990   -0.1997    0.0000 C   0  0  0  0  0  0  0  2  0  0  0  0
  1  2  2  0        0
  2  3  1  0        0
  3  4  1  0        0
  4  5  1  0        0
  2  6  1  0        0
  6  7  1  0        0
  7  8  1  0        0
  2  9  1  0        0
  9 10  1  0        0
 10 11  4  0        0
 11 12  4  0        0
 12 13  4  0        0
 13 14  1  0        0
 14 15  4  0        0
 15 16  4  0        0
 16 17  4  0        0
 17 18  4  0        0
 18 19  4  0        0
 14 19  4  0        0
 13 20  4  0        0
 10 20  4  0        0
M  END
$$$$

CDXL12

 34 38  0  0  0  0  0  0  0  0999 V2000
    4.0828   -0.8772    0.0000 C   0  0  0  0  0  0  0  2  0  0  0  0
    4.8711   -0.6341    0.0000 C   0  0  0  0  0  0  0  2  0  0  0  0
    5.1725    0.1339    0.0000 C   0  0  0  0  0  0  0  2  0  0  0  0
    4.7600    0.8484    0.0000 C   0  0  0  0  0  0  0  2  0  0  0  0
    3.9442    0.9713    0.0000 C   0  0  0  0  0  0  0  2  0  0  0  0
    3.3395    0.4102    0.0000 C   0  0  0  0  0  0  0  2  0  0  0  0
    2.5715    0.7116    0.0000 O   0  0  0  0  0  0  0  2  0  0  0  0
    3.4011   -0.4125    0.0000 N   0  0  0  0  0  0  0  2  0  0  0  0
    2.6867   -0.8250    0.0000 C   0  0  0  0  0  0  0  2  0  0  0  0
    1.9722   -0.4125    0.0000 C   0  0  0  0  0  0  0  2  0  0  0  0
    1.2577   -0.8250    0.0000 C   0  0  0  0  0  0  0  2  0  0  0  0
    0.5432   -0.4125    0.0000 C   0  0  0  0  0  0  0  2  0  0  0  0
    0.5432    0.4125    0.0000 C   0  0  0  0  0  0  0  2  0  0  0  0
   -0.1712    0.8250    0.0000 O   0  0  0  0  0  0  0  2  0  0  0  0
   -0.8857    0.4125    0.0000 C   0  0  0  0  0  0  0  2  0  0  0  0
   -1.6002    0.8250    0.0000 C   0  0  0  0  0  0  0  2  0  0  0  0
   -1.6002    1.6500    0.0000 N   0  0  0  0  0  0  0  2  0  0  0  0
   -2.3146    0.4125    0.0000 C   0  0  0  0  0  0  0  2  0  0  0  0
   -3.0291    0.8250    0.0000 C   0  0  0  0  0  0  0  2  0  0  0  0
   -3.0291    1.6500    0.0000 O   0  0  0  0  0  0  0  2  0  0  0  0
   -3.7436    0.4125    0.0000 C   0  0  0  0  0  0  0  2  0  0  0  0
   -4.4581    0.8250    0.0000 C   0  0  0  0  0  0  0  2  0  0  0  0
   -5.1725    0.4125    0.0000 C   0  0  0  0  0  0  0  2  0  0  0  0
   -5.1725   -0.4125    0.0000 C   0  0  0  0  0  0  0  2  0  0  0  0
   -4.4581   -0.8250    0.0000 C   0  0  0  0  0  0  0  2  0  0  0  0
   -3.7436   -0.4125    0.0000 C   0  0  0  0  0  0  0  2  0  0  0  0
   -3.0291   -0.8250    0.0000 C   0  0  0  0  0  0  0  2  0  0  0  0
   -3.0291   -1.6500    0.0000 O   0  0  0  0  0  0  0  2  0  0  0  0
   -2.3146   -0.4125    0.0000 C   0  0  0  0  0  0  0  2  0  0  0  0
   -1.6002   -0.8250    0.0000 C   0  0  0  0  0  0  0  2  0  0  0  0
   -1.6002   -1.6500    0.0000 O   0  0  0  0  0  0  0  2  0  0  0  0
   -0.8857   -0.4125    0.0000 C   0  0  0  0  0  0  0  2  0  0  0  0
    1.2577    0.8250    0.0000 C   0  0  0  0  0  0  0  2  0  0  0  0
    1.9722    0.4125    0.0000 C   0  0  0  0  0  0  0  2  0  0  0  0
  1  2  1  0        0
  2  3  1  0        0
  3  4  1  0        0
  4  5  1  0        0
  5  6  1  0        0
  6  7  2  0        0
  6  8  1  0        0
  1  8  1  0        0
  8  9  1  0        0
  9 10  1  0        0
 10 11  4  0        0
 11 12  4  0        0
 12 13  4  0        0
 13 14  1  0        0
 14 15  1  0        0
 15 16  4  0        0
 16 17  1  0        0
 16 18  4  0        0
 18 19  1  0        0
 19 20  2  0        0
 19 21  1  0        0
 21 22  4  0        0
 22 23  4  0        0
 23 24  4  0        0
 24 25  4  0        0
 25 26  4  0        0
 21 26  4  0        0
 26 27  1  0        0
 27 28  2  0        0
 27 29  1  0        0
 18 29  4  0        0
 29 30  4  0        0
 30 31  1  0        0
 30 32  4  0        0
 15 32  4  0        0
 13 33  4  0        0
 33 34  4  0        0
 10 34  4  0        0
M  END
$$$$

CDXL12

 23 23  0  0  0  0  0  0  0  0999 V2000
    1.4289    2.8875    0.0000 C   0  0  0  0  0  0  0  2  0  0  0  0
    0.7145    2.4750    0.0000 C   0  0  0  0  0  0  0  2  0  0  0  0
    0.7145    1.6500    0.0000 C   0  0  0  0  0  0  0  2  0  0  0  0
    0.0000    1.2375    0.0000 N   0  0  0  0  0  0  0  2  0  0  0  0
   -0.7145    1.6500    0.0000 C   0  0  0  0  0  0  0  2  0  0  0  0
   -0.7145    2.4750    0.0000 C   0  0  0  0  0  0  0  2  0  0  0  0
   -1.4289    2.8875    0.0000 C   0  0  0  0  0  0  0  2  0  0  0  0
    0.0000    0.4125    0.0000 C   0  0  0  0  0  0  0  2  0  0  0  0
    0.7145    0.0000    0.0000 C   0  0  0  0  0  0  0  2  0  0  0  0
    0.7145   -0.8250    0.0000 C   0  0  0  0  0  0  0  2  0  0  0  0
    0.0000   -1.2375    0.0000 C   0  0  0  0  0  0  0  2  0  0  0  0
   -0.7145   -0.8250    0.0000 C   0  0  0  0  0  0  0  2  0  0  0  0
   -0.7145    0.0000    0.0000 C   0  0  0  0  0  0  0  2  0  0  0  0
   -1.4289    0.4125    0.0000 N   0  0  0  0  0  0  0  2  0  0  0  0
   -1.4289    1.2375    0.0000 O   0  0  0  0  0  0  0  2  0  0  0  0
   -2.1434    0.0000    0.0000 O   0  0  0  0  0  0  0  2  0  0  0  0
    0.0000   -2.0625    0.0000 S   0  0  0  0  0  0  0  2  0  0  0  0
    0.0000   -2.8875    0.0000 N   0  0  0  0  0  0  0  2  0  0  0  0
   -0.8250   -2.0625    0.0000 O   0  0  0  0  0  0  0  2  0  0  0  0
    0.8250   -2.0625    0.0000 O   0  0  0  0  0  0  0  2  0  0  0  0
    1.4289    0.4125    0.0000 N   0  0  0  0  0  0  0  2  0  0  0  0
    1.4289    1.2375    0.0000 O   0  0  0  0  0  0  0  2  0  0  0  0
    2.1434    0.0000    0.0000 O   0  0  0  0  0  0  0  2  0  0  0  0
  1  2  1  0        0
  2  3  1  0        0
  3  4  1  0        0
  4  5  1  0        0
  5  6  1  0        0
  6  7  1  0        0
  4  8  1  0        0
  8  9  4  0        0
  9 10  4  0        0
 10 11  4  0        0
 11 12  4  0        0
 12 13  4  0        0
  8 13  4  0        0
 13 14  1  0        0
 14 15  2  0        0
 14 16  2  0        0
 11 17  1  0        0
 17 18  1  0        0
 17 19  2  0        0
 17 20  2  0        0
  9 21  1  0        0
 21 22  2  0        0
 21 23  2  0        0
M  END
$$$$

CDXL12

 15 14  0  0  0  0  0  0  0  0999 V2000
    3.9296    0.2062    0.0000 K   0  0  0  0  0  0  0  2  0  0  0  0
    3.2151   -0.2062    0.0000 O   0  0  0  0  0  0  0  2  0  0  0  0
    2.5006    0.2062    0.0000 P   0  0  0  0  0  0  0  2  0  0  0  0
    2.5006   -0.6188    0.0000 O   0  0  0  0  0  0  0  2  0  0  0  0
    3.2151   -1.0313    0.0000 K   0  0  0  0  0  0  0  2  0  0  0  0
    1.7862   -0.2062    0.0000 O   0  0  0  0  0  0  0  2  0  0  0  0
    1.0717    0.2062    0.0000 C   0  0  0  0  0  0  0  2  0  0  0  0
    0.3572   -0.2062    0.0000 C   0  0  0  0  0  0  0  2  0  0  0  0
   -0.3572    0.2062    0.0000 C   0  0  0  0  0  0  0  2  0  0  0  0
   -1.0717   -0.2062    0.0000 C   0  0  0  0  0  0  0  2  0  0  0  0
   -1.7862    0.2062    0.0000 C   0  0  0  0  0  0  0  2  0  0  0  0
   -2.5006   -0.2062    0.0000 C   0  0  0  0  0  0  0  2  0  0  0  0
   -3.2151    0.2062    0.0000 C   0  0  0  0  0  0  0  2  0  0  0  0
   -3.9296   -0.2062    0.0000 C   0  0  0  0  0  0  0  2  0  0  0  0
    2.5006    1.0313    0.0000 O   0  0  0  0  0  0  0  2  0  0  0  0
  1  2  1  0        0
  2  3  1  0        0
  3  4  1  0        0
  4  5  1  0        0
  3  6  1  0        0
  6  7  1  0        0
  7  8  1  0        0
  8  9  1  0        0
  9 10  1  0        0
 10 11  1  0        0
 11 12  1  0        0
 12 13  1  0        0
 13 14  1  0        0
  3 15  2  0        0
M  END
$$$$

CDXL12

 12 13  0  0  0  0  0  0  0  0999 V2000
    1.1575    0.3427    0.0000 S   0  0  0  0  0  0  0  2  0  0  0  0
    1.7706    0.8948    0.0000 O   0  0  0  0  0  0  0  2  0  0  0  0
    0.9859    1.1497    0.0000 O   0  0  0  0  0  0  0  2  0  0  0  0
    1.6424   -0.3247    0.0000 C   0  0  0  0  0  0  0  2  0  0  0  0
    1.1575   -0.9921    0.0000 C   0  0  0  0  0  0  0  2  0  0  0  0
    0.3728   -0.7372    0.0000 C   0  0  0  0  0  0  0  2  0  0  0  0
    0.3728    0.0878    0.0000 C   0  0  0  0  0  0  0  2  0  0  0  0
   -0.3416    0.5003    0.0000 C   0  0  0  0  0  0  0  2  0  0  0  0
   -1.0561    0.0878    0.0000 C   0  0  0  0  0  0  0  2  0  0  0  0
   -1.0561   -0.7372    0.0000 C   0  0  0  0  0  0  0  2  0  0  0  0
   -1.7706   -1.1497    0.0000 C   0  0  0  0  0  0  0  2  0  0  0  0
   -0.3416   -1.1497    0.0000 C   0  0  0  0  0  0  0  2  0  0  0  0
  1  2  2  0        0
  1  3  2  0        0
  1  4  1  0        0
  4  5  2  0        0
  5  6  1  0        0
  6  7  4  0        0
  1  7  1  0        0
  7  8  4  0        0
  8  9  4  0        0
  9 10  4  0        0
 10 11  1  0        0
 10 12  4  0        0
  6 12  4  0        0
M  END
$$$$

CDXL12

 12 12  0  0  0  0  0  0  0  0999 V2000
    1.4289   -1.2375    0.0000 C   0  0  0  0  0  0  0  2  0  0  0  0
    2.1434   -0.8250    0.0000 O   0  0  0  0  0  0  0  2  0  0  0  0
    0.7145   -0.8250    0.0000 C   0  0  0  0  0  0  0  2  0  0  0  0
    0.7145    0.0000    0.0000 C   0  0  0  0  0  0  0  2  0  0  0  0
    0.0000    0.4125    0.0000 C   0  0  0  0  0  0  0  2  0  0  0  0
    0.0000    1.2375    0.0000 Cl  0  0  0  0  0  0  0  2  0  0  0  0
   -0.7145   -0.0000    0.0000 C   0  0  0  0  0  0  0  2  0  0  0  0
   -1.4289    0.4125    0.0000 O   0  0  0  0  0  0  0  2  0  0  0  0
   -0.7145   -0.8250    0.0000 C   0  0  0  0  0  0  0  2  0  0  0  0
   -1.4289   -1.2375    0.0000 O   0  0  0  0  0  0  0  2  0  0  0  0
   -2.1434   -0.8250    0.0000 C   0  0  0  0  0  0  0  2  0  0  0  0
    0.0000   -1.2375    0.0000 C   0  0  0  0  0  0  0  2  0  0  0  0
  1  2  2  0        0
  1  3  1  0        0
  3  4  4  0        0
  4  5  4  0        0
  5  6  1  0        0
  5  7  4  0        0
  7  8  1  0        0
  7  9  4  0        0
  9 10  1  0        0
 10 11  1  0        0
  9 12  4  0        0
  3 12  4  0        0
M  END
$$$$

CDXL12

 10  9  0  0  0  0  0  0  0  0999 V2000
   -2.1434   -0.2062    0.0000 C   0  0  0  0  0  0  0  2  0  0  0  0
   -1.4289    0.2062    0.0000 C   0  0  0  0  0  0  0  2  0  0  0  0
   -0.7145   -0.2062    0.0000 C   0  0  0  0  0  0  0  2  0  0  0  0
   -0.7145   -1.0312    0.0000 C   0  0  0  0  0  0  0  2  0  0  0  0
    0.0000    0.2062    0.0000 C   0  0  0  0  0  0  0  2  0  0  0  0
    0.0000    1.0313    0.0000 O   0  0  0  0  0  0  0  2  0  0  0  0
    0.7145   -0.2062    0.0000 C   0  0  0  0  0  0  0  2  0  0  0  0
    0.7145   -1.0313    0.0000 C   0  0  0  0  0  0  0  2  0  0  0  0
    1.4289    0.2062    0.0000 C   0  0  0  0  0  0  0  2  0  0  0  0
    2.1434   -0.2062    0.0000 C   0  0  0  0  0  0  0  2  0  0  0  0
  1  2  1  0        0
  2  3  1  0        0
  3  4  1  0        0
  3  5  1  0        0
  5  6  1  0        0
  5  7  1  0        0
  7  8  1  0        0
  7  9  1  0        0
  9 10  1  0        0
M  END
$$$$

CDXL12

 13 12  0  0  0  0  0  0  0  0999 V2000
   -2.5006   -1.0312    0.0000 C   0  0  0  0  0  0  0  2  0  0  0  0
   -2.5006   -0.2062    0.0000 N   0  0  0  0  0  0  0  2  0  0  0  0
   -3.2151    0.2062    0.0000 C   0  0  0  0  0  0  0  2  0  0  0  0
   -3.2151   -0.6187    0.0000 Cl  0  0  0  0  0  0  0  2  0  0  0  0
   -1.7862    0.2062    0.0000 C   0  0  0  0  0  0  0  2  0  0  0  0
   -1.0717   -0.2062    0.0000 C   0  0  0  0  0  0  0  2  0  0  0  0
   -0.3572    0.2062    0.0000 C   0  0  0  0  0  0  0  2  0  0  0  0
    0.3572   -0.2062    0.0000 N   0  0  0  0  0  0  0  2  0  0  0  0
    1.0717    0.2062    0.0000 C   0  0  0  0  0  0  0  2  0  0  0  0
    1.0717    1.0312    0.0000 O   0  0  0  0  0  0  0  2  0  0  0  0
    1.7862   -0.2062    0.0000 S   0  0  0  0  0  0  0  2  0  0  0  0
    2.5006    0.2062    0.0000 C   0  0  0  0  0  0  0  2  0  0  0  0
    3.2151   -0.2062    0.0000 C   0  0  0  0  0  0  0  2  0  0  0  0
  1  2  1  0        0
  2  3  1  0        0
  2  4  1  0        0
  2  5  1  0        0
  5  6  1  0        0
  6  7  1  0        0
  7  8  1  0        0
  8  9  1  0        0
  9 10  2  0        0
  9 11  1  0        0
 11 12  1  0        0
 12 13  1  0        0
M  END
$$$$

CDXL12

 22 23  0  0  0  0  0  0  0  0999 V2000
    3.6167   -0.1387    0.0000 C   0  0  0  0  0  0  0  2  0  0  0  0
    2.9023    0.2738    0.0000 C   0  0  0  0  0  0  0  2  0  0  0  0
    2.9023    1.0988    0.0000 C   0  0  0  0  0  0  0  2  0  0  0  0
    2.1878   -0.1387    0.0000 O   0  0  0  0  0  0  0  2  0  0  0  0
    1.4733    0.2738    0.0000 C   0  0  0  0  0  0  0  2  0  0  0  0
    0.7589   -0.1387    0.0000 C   0  0  0  0  0  0  0  2  0  0  0  0
    0.0444    0.2738    0.0000 C   0  0  0  0  0  0  0  2  0  0  0  0
    0.0444    1.0988    0.0000 C   0  0  0  0  0  0  0  2  0  0  0  0
   -0.6701    1.5113    0.0000 Cl  0  0  0  0  0  0  0  2  0  0  0  0
    0.7589    1.5113    0.0000 C   0  0  0  0  0  0  0  2  0  0  0  0
    1.4733    1.0988    0.0000 C   0  0  0  0  0  0  0  2  0  0  0  0
    2.1878    1.5113    0.0000 Cl  0  0  0  0  0  0  0  2  0  0  0  0
   -0.6701   -0.1387    0.0000 N   0  0  0  0  0  0  0  2  0  0  0  0
   -1.4238    0.1968    0.0000 N   0  0  0  0  0  0  0  2  0  0  0  0
   -1.9758   -0.4163    0.0000 C   0  0  0  0  0  0  0  2  0  0  0  0
   -1.5633   -1.1308    0.0000 O   0  0  0  0  0  0  0  2  0  0  0  0
   -0.7563   -0.9592    0.0000 C   0  0  0  0  0  0  0  2  0  0  0  0
   -0.1432   -1.5113    0.0000 O   0  0  0  0  0  0  0  2  0  0  0  0
   -2.7963   -0.3300    0.0000 C   0  0  0  0  0  0  0  2  0  0  0  0
   -3.6167   -0.2438    0.0000 C   0  0  0  0  0  0  0  2  0  0  0  0
   -3.1318    0.4236    0.0000 C   0  0  0  0  0  0  0  2  0  0  0  0
   -3.2812   -0.9975    0.0000 C   0  0  0  0  0  0  0  2  0  0  0  0
  1  2  1  0        0
  2  3  1  0        0
  2  4  1  0        0
  4  5  1  0        0
  5  6  4  0        0
  6  7  4  0        0
  7  8  4  0        0
  8  9  1  0        0
  8 10  4  0        0
 10 11  4  0        0
  5 11  4  0        0
 11 12  1  0        0
  7 13  1  0        0
 13 14  1  0        0
 14 15  2  0        0
 15 16  1  0        0
 16 17  1  0        0
 13 17  1  0        0
 17 18  2  0        0
 15 19  1  0        0
 19 20  1  0        0
 19 21  1  0        0
 19 22  1  0        0
M  END
$$$$

CDXL12

 21 22  0  0  0  0  0  0  0  0999 V2000
    2.5006    2.2687    0.0000 C   0  0  0  0  0  0  0  2  0  0  0  0
    1.7862    2.6812    0.0000 S   0  0  0  0  0  0  0  2  0  0  0  0
    1.0717    2.2687    0.0000 C   0  0  0  0  0  0  0  2  0  0  0  0
    1.0717    1.4437    0.0000 C   0  0  0  0  0  0  0  2  0  0  0  0
    0.3572    1.0313    0.0000 C   0  0  0  0  0  0  0  2  0  0  0  0
   -0.3572    1.4437    0.0000 C   0  0  0  0  0  0  0  2  0  0  0  0
   -0.3572    2.2687    0.0000 C   0  0  0  0  0  0  0  2  0  0  0  0
    0.3572    2.6812    0.0000 C   0  0  0  0  0  0  0  2  0  0  0  0
   -1.0717    1.0313    0.0000 C   0  0  0  0  0  0  0  2  0  0  0  0
   -1.0717    0.2063    0.0000 C   0  0  0  0  0  0  0  2  0  0  0  0
   -0.3572   -0.2062    0.0000 C   0  0  0  0  0  0  0  2  0  0  0  0
   -0.3572   -1.0312    0.0000 C   0  0  0  0  0  0  0  2  0  0  0  0
   -1.0717   -1.4437    0.0000 C   0  0  0  0  0  0  0  2  0  0  0  0
   -1.0717   -2.2687    0.0000 S   0  0  0  0  0  0  0  2  0  0  0  0
   -1.7862   -2.6812    0.0000 C   0  0  0  0  0  0  0  2  0  0  0  0
   -1.7862   -1.0312    0.0000 C   0  0  0  0  0  0  0  2  0  0  0  0
   -1.7862   -0.2062    0.0000 C   0  0  0  0  0  0  0  2  0  0  0  0
   -1.7862    1.4437    0.0000 C   0  0  0  0  0  0  0  2  0  0  0  0
   -2.5006    1.0313    0.0000 Cl  0  0  0  0  0  0  0  2  0  0  0  0
   -1.7862    2.2687    0.0000 Cl  0  0  0  0  0  0  0  2  0  0  0  0
   -2.5006    1.8562    0.0000 Cl  0  0  0  0  0  0  0  2  0  0  0  0
  1  2  1  0        0
  2  3  1  0        0
  3  4  4  0        0
  4  5  4  0        0
  5  6  4  0        0
  6  7  4  0        0
  7  8  4  0        0
  3  8  4  0        0
  6  9  1  0        0
  9 10  1  0        0
 10 11  4  0        0
 11 12  4  0        0
 12 13  4  0        0
 13 14  1  0        0
 14 15  1  0        0
 13 16  4  0        0
 16 17  4  0        0
 10 17  4  0        0
  9 18  1  0        0
 18 19  1  0        0
 18 20  1  0        0
 18 21  1  0        0
M  END
$$$$

CDXL12

  8  8  0  0  0  0  0  0  0  0999 V2000
    0.0000    0.6188    0.0000 N   0  0  0  0  0  0  0  2  0  0  0  0
    0.7145    1.0312    0.0000 C   0  0  0  0  0  0  0  2  0  0  0  0
    1.4289    0.6188    0.0000 C   0  0  0  0  0  0  0  2  0  0  0  0
    1.4289   -0.2062    0.0000 N   0  0  0  0  0  0  0  2  0  0  0  0
    0.7145   -0.6187    0.0000 C   0  0  0  0  0  0  0  2  0  0  0  0
    0.0000   -0.2062    0.0000 C   0  0  0  0  0  0  0  2  0  0  0  0
   -0.7145   -0.6187    0.0000 C   0  0  0  0  0  0  0  2  0  0  0  0
   -1.4289   -1.0312    0.0000 N   0  0  0  0  0  0  0  2  0  0  0  0
  1  2  4  0        0
  2  3  4  0        0
  3  4  4  0        0
  4  5  4  0        0
  5  6  4  0        0
  1  6  4  0        0
  6  7  1  0        0
  7  8  3  0        0
M  END
$$$$

CDXL12

 15 15  0  0  0  0  0  0  0  0999 V2000
    2.8579    0.8250    0.0000 C   0  0  0  0  0  0  0  2  0  0  0  0
    2.1434    1.2375    0.0000 O   0  0  0  0  0  0  0  2  0  0  0  0
    1.4289    0.8250    0.0000 C   0  0  0  0  0  0  0  2  0  0  0  0
    0.7145    1.2375    0.0000 C   0  0  0  0  0  0  0  2  0  0  0  0
    0.0000    0.8250    0.0000 C   0  0  0  0  0  0  0  2  0  0  0  0
    0.0000    0.0000    0.0000 C   0  0  0  0  0  0  0  2  0  0  0  0
   -0.7145   -0.4125    0.0000 N   0  0  0  0  0  0  0  2  0  0  0  0
   -1.4289    0.0000    0.0000 C   0  0  0  0  0  0  0  2  0  0  0  0
   -1.4289    0.8250    0.0000 O   0  0  0  0  0  0  0  2  0  0  0  0
   -2.1434   -0.4125    0.0000 N   0  0  0  0  0  0  0  2  0  0  0  0
   -2.1434   -1.2375    0.0000 C   0  0  0  0  0  0  0  2  0  0  0  0
   -2.8579    0.0000    0.0000 C   0  0  0  0  0  0  0  2  0  0  0  0
    0.7145   -0.4125    0.0000 C   0  0  0  0  0  0  0  2  0  0  0  0
    1.4289    0.0000    0.0000 C   0  0  0  0  0  0  0  2  0  0  0  0
    2.1434   -0.4125    0.0000 Cl  0  0  0  0  0  0  0  2  0  0  0  0
  1  2  1  0        0
  2  3  1  0        0
  3  4  4  0        0
  4  5  4  0        0
  5  6  4  0        0
  6  7  1  0        0
  7  8  1  0        0
  8  9  2  0        0
  8 10  1  0        0
 10 11  1  0        0
 10 12  1  0        0
  6 13  4  0        0
 13 14  4  0        0
  3 14  4  0        0
 14 15  1  0        0
M  END
$$$$

CDXL12

 14 15  0  0  0  0  0  0  0  0999 V2000
   -1.7862   -0.4125    0.0000 C   0  0  0  0  0  0  0  2  0  0  0  0
   -1.7862    0.4125    0.0000 C   0  0  0  0  0  0  0  2  0  0  0  0
   -1.0717    0.8250    0.0000 C   0  0  0  0  0  0  0  2  0  0  0  0
   -0.3572    0.4125    0.0000 C   0  0  0  0  0  0  0  2  0  0  0  0
    0.3572    0.8250    0.0000 C   0  0  0  0  0  0  0  2  0  0  0  0
    0.3572    1.6500    0.0000 Cl  0  0  0  0  0  0  0  2  0  0  0  0
    1.0717    0.4125    0.0000 C   0  0  0  0  0  0  0  2  0  0  0  0
    1.7862    0.8250    0.0000 Cl  0  0  0  0  0  0  0  2  0  0  0  0
    1.0717   -0.4125    0.0000 C   0  0  0  0  0  0  0  2  0  0  0  0
    1.7862   -0.8250    0.0000 Cl  0  0  0  0  0  0  0  2  0  0  0  0
    0.3572   -0.8250    0.0000 C   0  0  0  0  0  0  0  2  0  0  0  0
    0.3572   -1.6500    0.0000 Cl  0  0  0  0  0  0  0  2  0  0  0  0
   -0.3572   -0.4125    0.0000 C   0  0  0  0  0  0  0  2  0  0  0  0
   -1.0717   -0.8250    0.0000 C   0  0  0  0  0  0  0  2  0  0  0  0
  1  2  4  0        0
  2  3  4  0        0
  3  4  4  0        0
  4  5  4  0        0
  5  6  1  0        0
  5  7  4  0        0
  7  8  1  0        0
  7  9  4  0        0
  9 10  1  0        0
  9 11  4  0        0
 11 12  1  0        0
 11 13  4  0        0
  4 13  4  0        0
 13 14  4  0        0
  1 14  4  0        0
M  END
$$$$

CDXL12

 16 17  0  0  0  0  0  0  0  0999 V2000
   -1.5946   -1.6978    0.0000 C   0  0  0  0  0  0  0  2  0  0  0  0
   -1.2591   -0.9442    0.0000 N   0  0  0  0  0  0  0  2  0  0  0  0
   -1.6716   -0.2297    0.0000 C   0  0  0  0  0  0  0  2  0  0  0  0
   -2.4920   -0.1435    0.0000 O   0  0  0  0  0  0  0  2  0  0  0  0
   -1.1195    0.3834    0.0000 O   0  0  0  0  0  0  0  2  0  0  0  0
   -0.3658    0.0478    0.0000 N   0  0  0  0  0  0  0  2  0  0  0  0
    0.3486    0.4603    0.0000 C   0  0  0  0  0  0  0  2  0  0  0  0
    0.3486    1.2853    0.0000 C   0  0  0  0  0  0  0  2  0  0  0  0
    1.0631    1.6978    0.0000 C   0  0  0  0  0  0  0  2  0  0  0  0
    1.7776    1.2853    0.0000 C   0  0  0  0  0  0  0  2  0  0  0  0
    2.4920    1.6978    0.0000 Cl  0  0  0  0  0  0  0  2  0  0  0  0
    1.7776    0.4603    0.0000 C   0  0  0  0  0  0  0  2  0  0  0  0
    2.4920    0.0478    0.0000 Cl  0  0  0  0  0  0  0  2  0  0  0  0
    1.0631    0.0478    0.0000 C   0  0  0  0  0  0  0  2  0  0  0  0
   -0.4521   -0.7726    0.0000 C   0  0  0  0  0  0  0  2  0  0  0  0
    0.1610   -1.3247    0.0000 O   0  0  0  0  0  0  0  2  0  0  0  0
  1  2  1  0        0
  2  3  1  0        0
  3  4  2  0        0
  3  5  1  0        0
  5  6  1  0        0
  6  7  1  0        0
  7  8  4  0        0
  8  9  4  0        0
  9 10  4  0        0
 10 11  1  0        0
 10 12  4  0        0
 12 13  1  0        0
 12 14  4  0        0
  7 14  4  0        0
  6 15  1  0        0
  2 15  1  0        0
 15 16  2  0        0
M  END
$$$$

CDXL12

 20 19  0  0  0  0  0  0  0  0999 V2000
   -5.0013    1.0312    0.0000 O   0  0  0  0  0  0  0  2  0  0  0  0
   -5.0013    0.2062    0.0000 C   0  0  0  0  0  0  0  2  0  0  0  0
   -4.2868   -0.2062    0.0000 O   0  0  0  0  0  0  0  2  0  0  0  0
   -3.5724    0.2062    0.0000 C   0  0  0  0  0  0  0  2  0  0  0  0
   -2.8579   -0.2062    0.0000 C   0  0  0  0  0  0  0  2  0  0  0  0
   -2.1434    0.2062    0.0000 C   0  0  0  0  0  0  0  2  0  0  0  0
   -1.4289   -0.2062    0.0000 C   0  0  0  0  0  0  0  2  0  0  0  0
   -0.7145    0.2062    0.0000 C   0  0  0  0  0  0  0  2  0  0  0  0
    0.0000   -0.2062    0.0000 C   0  0  0  0  0  0  0  2  0  0  0  0
    0.7145    0.2062    0.0000 C   0  0  0  0  0  0  0  2  0  0  0  0
    1.4289   -0.2062    0.0000 C   0  0  0  0  0  0  0  2  0  0  0  0
    2.1434    0.2062    0.0000 C   0  0  0  0  0  0  0  2  0  0  0  0
    2.8579   -0.2062    0.0000 C   0  0  0  0  0  0  0  2  0  0  0  0
    3.5724    0.2062    0.0000 C   0  0  0  0  0  0  0  2  0  0  0  0
    3.5724    1.0312    0.0000 H   0  0  0  0  0  0  0  2  0  0  0  0
    4.2868   -0.2062    0.0000 C   0  0  0  0  0  0  0  2  0  0  0  0
    4.2868   -1.0312    0.0000 H   0  0  0  0  0  0  0  2  0  0  0  0
    5.0013    0.2062    0.0000 C   0  0  0  0  0  0  0  2  0  0  0  0
    5.7158   -0.2062    0.0000 C   0  0  0  0  0  0  0  2  0  0  0  0
   -5.7158   -0.2062    0.0000 C   0  0  0  0  0  0  0  2  0  0  0  0
  1  2  2  0        0
  2  3  1  0        0
  3  4  1  0        0
  4  5  1  0        0
  5  6  1  0        0
  6  7  1  0        0
  7  8  1  0        0
  8  9  1  0        0
  9 10  1  0        0
 10 11  1  0        0
 11 12  1  0        0
 12 13  1  0        0
 13 14  1  0        0
 14 15  1  0        0
 14 16  2  0        0
 16 17  1  0        0
 16 18  1  0        0
 18 19  1  0        0
  2 20  1  0        0
M  END
$$$$

CDXL12

 12 11  0  0  0  0  0  0  0  0999 V2000
    1.0717    1.2375    0.0000 C   0  0  0  0  0  0  0  2  0  0  0  0
    0.3572    0.8250    0.0000 C   0  0  0  0  0  0  0  2  0  0  0  0
    0.3572    0.0000    0.0000 C   0  0  0  0  0  0  0  2  0  0  0  0
    1.0717   -0.4125    0.0000 O   0  0  0  0  0  0  0  2  0  0  0  0
    1.7862    0.0000    0.0000 N   0  0  0  0  0  0  0  2  0  0  0  0
    1.7862    0.8250    0.0000 O   0  0  0  0  0  0  0  2  0  0  0  0
    2.5006   -0.4125    0.0000 O   0  0  0  0  0  0  0  2  0  0  0  0
   -0.3572   -0.4125    0.0000 C   0  0  0  0  0  0  0  2  0  0  0  0
   -1.0717    0.0000    0.0000 O   0  0  0  0  0  0  0  2  0  0  0  0
   -1.7862   -0.4125    0.0000 N   0  0  0  0  0  0  0  2  0  0  0  0
   -1.7862   -1.2375    0.0000 O   0  0  0  0  0  0  0  2  0  0  0  0
   -2.5006    0.0000    0.0000 O   0  0  0  0  0  0  0  2  0  0  0  0
  1  2  1  0        0
  2  3  1  0        0
  3  4  1  0        0
  4  5  1  0        0
  5  6  2  0        0
  5  7  2  0        0
  3  8  1  0        0
  8  9  1  0        0
  9 10  1  0        0
 10 11  2  0        0
 10 12  2  0        0
M  END
$$$$

CDXL12

 55 62  0  0  0  0  0  0  0  0999 V2000
   -7.6760   -2.1272    0.0000 C   0  0  0  0  0  0  0  2  0  0  0  0
   -6.9616   -1.7147    0.0000 C   0  0  0  0  0  0  0  2  0  0  0  0
   -6.2471   -2.1272    0.0000 O   0  0  0  0  0  0  0  2  0  0  0  0
   -5.5326   -1.7147    0.0000 C   0  0  0  0  0  0  0  2  0  0  0  0
   -5.5326   -0.8897    0.0000 C   0  0  0  0  0  0  0  2  0  0  0  0
   -6.2471   -0.4772    0.0000 C   0  0  0  0  0  0  0  2  0  0  0  0
   -6.2471    0.3478    0.0000 O   0  0  0  0  0  0  0  2  0  0  0  0
   -6.9616   -0.8897    0.0000 C   0  0  0  0  0  0  0  2  0  0  0  0
   -7.6760   -0.4772    0.0000 O   0  0  0  0  0  0  0  2  0  0  0  0
   -4.8182   -2.1272    0.0000 O   0  0  0  0  0  0  0  2  0  0  0  0
   -4.1037   -1.7147    0.0000 C   0  0  0  0  0  0  0  2  0  0  0  0
   -3.3892   -2.1272    0.0000 C   0  0  0  0  0  0  0  2  0  0  0  0
   -3.3892   -2.9522    0.0000 C   0  0  0  0  0  0  0  2  0  0  0  0
   -2.6748   -1.7147    0.0000 O   0  0  0  0  0  0  0  2  0  0  0  0
   -2.6748   -0.8897    0.0000 C   0  0  0  0  0  0  0  2  0  0  0  0
   -3.3892   -0.4772    0.0000 C   0  0  0  0  0  0  0  2  0  0  0  0
   -4.1037   -0.8897    0.0000 C   0  0  0  0  0  0  0  2  0  0  0  0
   -4.8182   -0.4772    0.0000 O   0  0  0  0  0  0  0  2  0  0  0  0
   -1.9603   -0.4772    0.0000 O   0  0  0  0  0  0  0  2  0  0  0  0
   -1.2458   -0.8897    0.0000 C   0  0  0  0  0  0  0  2  0  0  0  0
   -1.2458   -1.7147    0.0000 C   0  0  0  0  0  0  0  2  0  0  0  0
   -1.9603   -2.1272    0.0000 C   0  0  0  0  0  0  0  2  0  0  0  0
   -0.5313   -2.1272    0.0000 O   0  0  0  0  0  0  0  2  0  0  0  0
    0.1831   -1.7147    0.0000 C   0  0  0  0  0  0  0  2  0  0  0  0
    0.1831   -0.8897    0.0000 C   0  0  0  0  0  0  0  2  0  0  0  0
   -0.5313   -0.4772    0.0000 C   0  0  0  0  0  0  0  2  0  0  0  0
   -0.5313    0.3478    0.0000 O   0  0  0  0  0  0  0  2  0  0  0  0
    0.8976   -2.1272    0.0000 O   0  0  0  0  0  0  0  2  0  0  0  0
    1.6121   -1.7147    0.0000 C   0  0  0  0  0  0  0  2  0  0  0  0
    1.6121   -0.8897    0.0000 C   0  0  0  0  0  0  0  2  0  0  0  0
    2.3265   -0.4772    0.0000 C   0  0  0  0  0  0  0  2  0  0  0  0
    3.0410   -0.8897    0.0000 C   0  0  0  0  0  0  0  2  0  0  0  0
    3.0410   -0.0647    0.0000 C   0  0  0  0  0  0  0  2  0  0  0  0
    3.0410   -1.7147    0.0000 C   0  0  0  0  0  0  0  2  0  0  0  0
    3.7555   -2.1272    0.0000 C   0  0  0  0  0  0  0  2  0  0  0  0
    4.4700   -1.7147    0.0000 C   0  0  0  0  0  0  0  2  0  0  0  0
    4.4700   -0.8897    0.0000 C   0  0  0  0  0  0  0  2  0  0  0  0
    3.7555   -0.4772    0.0000 C   0  0  0  0  0  0  0  2  0  0  0  0
    3.7555    0.3478    0.0000 C   0  0  0  0  0  0  0  2  0  0  0  0
    4.4700    0.7603    0.0000 C   0  0  0  0  0  0  0  2  0  0  0  0
    4.4700    1.5853    0.0000 O   0  0  0  0  0  0  0  2  0  0  0  0
    5.1844    0.3478    0.0000 C   0  0  0  0  0  0  0  2  0  0  0  0
    5.2707    1.1683    0.0000 C   0  0  0  0  0  0  0  2  0  0  0  0
    5.9690    0.6027    0.0000 C   0  0  0  0  0  0  0  2  0  0  0  0
    6.4540   -0.0647    0.0000 C   0  0  0  0  0  0  0  2  0  0  0  0
    5.9690   -0.7322    0.0000 C   0  0  0  0  0  0  0  2  0  0  0  0
    5.1844   -0.4772    0.0000 C   0  0  0  0  0  0  0  2  0  0  0  0
    5.2707   -1.2977    0.0000 O   0  0  0  0  0  0  0  2  0  0  0  0
    6.2240    1.3873    0.0000 C   0  0  0  0  0  0  0  2  0  0  0  0
    7.0086    1.6423    0.0000 C   0  0  0  0  0  0  0  2  0  0  0  0
    7.0086    2.4673    0.0000 C   0  0  0  0  0  0  0  2  0  0  0  0
    7.6760    2.9522    0.0000 O   0  0  0  0  0  0  0  2  0  0  0  0
    6.2240    2.7222    0.0000 O   0  0  0  0  0  0  0  2  0  0  0  0
    5.7391    2.0548    0.0000 C   0  0  0  0  0  0  0  2  0  0  0  0
    2.3265   -2.1272    0.0000 C   0  0  0  0  0  0  0  2  0  0  0  0
  1  2  1  0        0
  2  3  1  0        0
  3  4  1  0        0
  4  5  1  0        0
  5  6  1  0        0
  6  7  1  0        0
  6  8  1  0        0
  2  8  1  0        0
  8  9  1  0        0
  4 10  1  0        0
 10 11  1  0        0
 11 12  1  0        0
 12 13  1  0        0
 12 14  1  0        0
 14 15  1  0        0
 15 16  1  0        0
 16 17  1  0        0
 11 17  1  0        0
 17 18  1  0        0
 15 19  1  0        0
 19 20  1  0        0
 20 21  1  0        0
 21 22  1  0        0
 21 23  1  0        0
 23 24  1  0        0
 24 25  1  0        0
 25 26  1  0        0
 20 26  1  0        0
 26 27  1  0        0
 24 28  1  0        0
 28 29  1  0        0
 29 30  1  0        0
 30 31  1  0        0
 31 32  1  0        0
 32 33  1  0        0
 32 34  1  0        0
 34 35  1  0        0
 35 36  1  0        0
 36 37  1  0        0
 37 38  1  0        0
 32 38  1  0        0
 38 39  1  0        0
 39 40  1  0        0
 40 41  1  0        0
 40 42  1  0        0
 42 43  1  0        0
 42 44  1  0        0
 44 45  1  0        0
 45 46  1  0        0
 46 47  1  0        0
 37 47  1  0        0
 42 47  1  0        0
 47 48  1  0        0
 44 49  1  0        0
 49 50  2  0        0
 50 51  1  0        0
 51 52  2  0        0
 51 53  1  0        0
 53 54  1  0        0
 49 54  1  0        0
 34 55  1  0        0
 29 55  1  0        0
M  END
$$$$

CDXL12

 17 17  0  0  0  0  0  0  0  0999 V2000
   -2.8579   -1.0312    0.0000 O   0  0  0  0  0  0  0  2  0  0  0  0
   -2.1434   -0.6187    0.0000 C   0  0  0  0  0  0  0  2  0  0  0  0
   -1.4289   -1.0312    0.0000 N   0  0  0  0  0  0  0  2  0  0  0  0
   -0.7145   -0.6187    0.0000 C   0  0  0  0  0  0  0  2  0  0  0  0
    0.0000   -1.0312    0.0000 N   0  0  0  0  0  0  0  2  0  0  0  0
    0.7145   -0.6187    0.0000 C   0  0  0  0  0  0  0  2  0  0  0  0
    1.4289   -1.0313    0.0000 C   0  0  0  0  0  0  0  2  0  0  0  0
    2.1434   -0.6188    0.0000 C   0  0  0  0  0  0  0  2  0  0  0  0
    2.8579   -1.0313    0.0000 Cl  0  0  0  0  0  0  0  2  0  0  0  0
    2.1434    0.2063    0.0000 C   0  0  0  0  0  0  0  2  0  0  0  0
    2.8579    0.6188    0.0000 Cl  0  0  0  0  0  0  0  2  0  0  0  0
    1.4289    0.6188    0.0000 C   0  0  0  0  0  0  0  2  0  0  0  0
    0.7145    0.2063    0.0000 C   0  0  0  0  0  0  0  2  0  0  0  0
   -0.7145    0.2063    0.0000 C   0  0  0  0  0  0  0  2  0  0  0  0
   -1.4289    0.6188    0.0000 Cl  0  0  0  0  0  0  0  2  0  0  0  0
    0.0000    0.6188    0.0000 Cl  0  0  0  0  0  0  0  2  0  0  0  0
   -0.7145    1.0313    0.0000 Cl  0  0  0  0  0  0  0  2  0  0  0  0
  1  2  2  0        0
  2  3  1  0        0
  3  4  1  0        0
  4  5  1  0        0
  5  6  1  0        0
  6  7  4  0        0
  7  8  4  0        0
  8  9  1  0        0
  8 10  4  0        0
 10 11  1  0        0
 10 12  4  0        0
 12 13  4  0        0
  6 13  4  0        0
  4 14  1  0        0
 14 15  1  0        0
 14 16  1  0        0
 14 17  1  0        0
M  END
$$$$

CDXL12

 14 14  0  0  0  0  0  0  0  0999 V2000
    0.0000    1.2375    0.0000 O   0  0  0  0  0  0  0  2  0  0  0  0
    0.0000    0.4125    0.0000 C   0  0  0  0  0  0  0  2  0  0  0  0
    0.7145    0.0000    0.0000 N   0  0  0  0  0  0  0  2  0  0  0  0
    1.4289    0.4125    0.0000 N   0  0  0  0  0  0  0  2  0  0  0  0
    0.7145   -0.8250    0.0000 C   0  0  0  0  0  0  0  2  0  0  0  0
    1.4289   -1.2375    0.0000 S   0  0  0  0  0  0  0  2  0  0  0  0
    2.1434   -0.8250    0.0000 C   0  0  0  0  0  0  0  2  0  0  0  0
    0.0000   -1.2375    0.0000 N   0  0  0  0  0  0  0  2  0  0  0  0
   -0.7145   -0.8250    0.0000 N   0  0  0  0  0  0  0  2  0  0  0  0
   -0.7145    0.0000    0.0000 C   0  0  0  0  0  0  0  2  0  0  0  0
   -1.4289    0.4125    0.0000 C   0  0  0  0  0  0  0  2  0  0  0  0
   -2.1434    0.8250    0.0000 C   0  0  0  0  0  0  0  2  0  0  0  0
   -1.4289    1.2375    0.0000 C   0  0  0  0  0  0  0  2  0  0  0  0
   -2.1434    0.0000    0.0000 C   0  0  0  0  0  0  0  2  0  0  0  0
  1  2  2  0        0
  2  3  1  0        0
  3  4  1  0        0
  3  5  1  0        0
  5  6  1  0        0
  6  7  1  0        0
  5  8  2  0        0
  8  9  1  0        0
  9 10  2  0        0
  2 10  1  0        0
 10 11  1  0        0
 11 12  1  0        0
 11 13  1  0        0
 11 14  1  0        0
M  END
$$$$

CDXL12

 15 15  0  0  0  0  0  0  0  0999 V2000
   -2.1434    1.0312    0.0000 Cl  0  0  0  0  0  0  0  2  0  0  0  0
   -1.4289    0.6188    0.0000 C   0  0  0  0  0  0  0  2  0  0  0  0
   -0.7145    1.0313    0.0000 C   0  0  0  0  0  0  0  2  0  0  0  0
   -0.7145    1.8563    0.0000 O   0  0  0  0  0  0  0  2  0  0  0  0
    0.0000    0.6188    0.0000 N   0  0  0  0  0  0  0  2  0  0  0  0
    0.0000   -0.2062    0.0000 C   0  0  0  0  0  0  0  2  0  0  0  0
   -0.7145   -0.6188    0.0000 C   0  0  0  0  0  0  0  2  0  0  0  0
   -0.7145   -1.4438    0.0000 C   0  0  0  0  0  0  0  2  0  0  0  0
    0.0000   -1.8563    0.0000 C   0  0  0  0  0  0  0  2  0  0  0  0
    0.7145   -1.4438    0.0000 C   0  0  0  0  0  0  0  2  0  0  0  0
    0.7145   -0.6187    0.0000 C   0  0  0  0  0  0  0  2  0  0  0  0
    0.7145    1.0312    0.0000 C   0  0  0  0  0  0  0  2  0  0  0  0
    1.4289    0.6188    0.0000 C   0  0  0  0  0  0  0  2  0  0  0  0
    2.1434    0.2062    0.0000 C   0  0  0  0  0  0  0  2  0  0  0  0
    0.7145    1.8563    0.0000 C   0  0  0  0  0  0  0  2  0  0  0  0
  1  2  1  0        0
  2  3  1  0        0
  3  4  2  0        0
  3  5  1  0        0
  5  6  1  0        0
  6  7  4  0        0
  7  8  4  0        0
  8  9  4  0        0
  9 10  4  0        0
 10 11  4  0        0
  6 11  4  0        0
  5 12  1  0        0
 12 13  1  0        0
 13 14  3  0        0
 12 15  1  0        0
M  END
$$$$

CDXL12

 15 14  0  0  0  0  0  0  0  0999 V2000
    1.4289    1.0312    0.0000 O   0  0  0  0  0  0  0  2  0  0  0  0
    1.4289    0.2062    0.0000 C   0  0  0  0  0  0  0  2  0  0  0  0
    0.7145   -0.2062    0.0000 O   0  0  0  0  0  0  0  2  0  0  0  0
   -0.0000    0.2062    0.0000 Ca  0  0  0  0  0  0  0  2  0  0  0  0
   -0.7145   -0.2062    0.0000 O   0  0  0  0  0  0  0  2  0  0  0  0
   -1.4289    0.2062    0.0000 C   0  0  0  0  0  0  0  2  0  0  0  0
   -1.4289    1.0313    0.0000 O   0  0  0  0  0  0  0  2  0  0  0  0
   -2.1434   -0.2062    0.0000 C   0  0  0  0  0  0  0  2  0  0  0  0
   -2.8579   -0.6187    0.0000 Cl  0  0  0  0  0  0  0  2  0  0  0  0
   -2.1434   -1.0312    0.0000 Cl  0  0  0  0  0  0  0  2  0  0  0  0
   -2.8579    0.2062    0.0000 Cl  0  0  0  0  0  0  0  2  0  0  0  0
    2.1434   -0.2062    0.0000 C   0  0  0  0  0  0  0  2  0  0  0  0
    2.8579    0.2062    0.0000 Cl  0  0  0  0  0  0  0  2  0  0  0  0
    2.1434   -1.0313    0.0000 Cl  0  0  0  0  0  0  0  2  0  0  0  0
    2.8579   -0.6188    0.0000 Cl  0  0  0  0  0  0  0  2  0  0  0  0
  1  2  2  0        0
  2  3  1  0        0
  3  4  1  0        0
  4  5  1  0        0
  5  6  1  0        0
  6  7  2  0        0
  6  8  1  0        0
  8  9  1  0        0
  8 10  1  0        0
  8 11  1  0        0
  2 12  1  0        0
 12 13  1  0        0
 12 14  1  0        0
 12 15  1  0        0
M  END
$$$$

CDXL12

 13 13  0  0  0  0  0  0  0  0999 V2000
   -1.7862   -1.2375    0.0000 C   0  0  0  0  0  0  0  2  0  0  0  0
   -1.7862   -0.4125    0.0000 N   0  0  0  0  0  0  0  2  0  0  0  0
   -2.5006   -0.0000    0.0000 C   0  0  0  0  0  0  0  2  0  0  0  0
   -1.0717   -0.0000    0.0000 C   0  0  0  0  0  0  0  2  0  0  0  0
   -1.0717    0.8250    0.0000 S   0  0  0  0  0  0  0  2  0  0  0  0
   -0.3572   -0.4125    0.0000 N   0  0  0  0  0  0  0  2  0  0  0  0
    0.3572   -0.0000    0.0000 C   0  0  0  0  0  0  0  2  0  0  0  0
    1.0717   -0.4125    0.0000 C   0  0  0  0  0  0  0  2  0  0  0  0
    1.7862   -0.0000    0.0000 C   0  0  0  0  0  0  0  2  0  0  0  0
    2.5006   -0.4125    0.0000 C   0  0  0  0  0  0  0  2  0  0  0  0
    1.7862    0.8250    0.0000 C   0  0  0  0  0  0  0  2  0  0  0  0
    1.0717    1.2375    0.0000 C   0  0  0  0  0  0  0  2  0  0  0  0
    0.3572    0.8250    0.0000 C   0  0  0  0  0  0  0  2  0  0  0  0
  1  2  1  0        0
  2  3  1  0        0
  2  4  1  0        0
  4  5  2  0        0
  4  6  1  0        0
  6  7  1  0        0
  7  8  4  0        0
  8  9  4  0        0
  9 10  1  0        0
  9 11  4  0        0
 11 12  4  0        0
 12 13  4  0        0
  7 13  4  0        0
M  END
$$$$

CDXL12

 13 13  0  0  0  0  0  0  0  0999 V2000
    0.0000    1.4297    0.0000 O   0  0  0  0  0  0  0  2  0  0  0  0
    0.0000    0.6047    0.0000 P   0  0  0  0  0  0  0  2  0  0  0  0
   -0.7145    0.1922    0.0000 O   0  0  0  0  0  0  0  2  0  0  0  0
   -1.4289    0.6047    0.0000 C   0  0  0  0  0  0  0  2  0  0  0  0
   -2.1434    0.1922    0.0000 C   0  0  0  0  0  0  0  2  0  0  0  0
    0.7145    0.1922    0.0000 O   0  0  0  0  0  0  0  2  0  0  0  0
    1.4289    0.6047    0.0000 C   0  0  0  0  0  0  0  2  0  0  0  0
    2.1434    0.1922    0.0000 C   0  0  0  0  0  0  0  2  0  0  0  0
    0.0000   -0.2203    0.0000 N   0  0  0  0  0  0  0  2  0  0  0  0
    0.7145   -0.6328    0.0000 C   0  0  0  0  0  0  0  2  0  0  0  0
    1.5114   -0.4193    0.0000 S   0  0  0  0  0  0  0  2  0  0  0  0
    1.7249   -1.2162    0.0000 C   0  0  0  0  0  0  0  2  0  0  0  0
    0.9280   -1.4297    0.0000 S   0  0  0  0  0  0  0  2  0  0  0  0
  1  2  2  0        0
  2  3  1  0        0
  3  4  1  0        0
  4  5  1  0        0
  2  6  1  0        0
  6  7  1  0        0
  7  8  1  0        0
  2  9  1  0        0
  9 10  2  0        0
 10 11  1  0        0
 11 12  1  0        0
 12 13  1  0        0
 10 13  1  0        0
M  END
$$$$

CDXL12

 16 16  0  0  0  0  0  0  0  0999 V2000
    3.2151   -1.0313    0.0000 C   0  0  0  0  0  0  0  2  0  0  0  0
    2.5006   -0.6188    0.0000 C   0  0  0  0  0  0  0  2  0  0  0  0
    1.7862   -1.0313    0.0000 N   0  0  0  0  0  0  0  2  0  0  0  0
    1.0717   -0.6188    0.0000 C   0  0  0  0  0  0  0  2  0  0  0  0
    1.0717    0.2062    0.0000 N   0  0  0  0  0  0  0  2  0  0  0  0
    0.3572    0.6188    0.0000 C   0  0  0  0  0  0  0  2  0  0  0  0
    0.3572    1.4438    0.0000 Cl  0  0  0  0  0  0  0  2  0  0  0  0
   -0.3572    0.2062    0.0000 N   0  0  0  0  0  0  0  2  0  0  0  0
   -0.3572   -0.6188    0.0000 C   0  0  0  0  0  0  0  2  0  0  0  0
   -1.0717   -1.0313    0.0000 N   0  0  0  0  0  0  0  2  0  0  0  0
   -1.7862   -0.6188    0.0000 C   0  0  0  0  0  0  0  2  0  0  0  0
   -2.1987    0.0957    0.0000 C   0  0  0  0  0  0  0  2  0  0  0  0
   -1.3737    0.0957    0.0000 C   0  0  0  0  0  0  0  2  0  0  0  0
   -2.5006   -1.0313    0.0000 C   0  0  0  0  0  0  0  2  0  0  0  0
   -3.2151   -1.4438    0.0000 N   0  0  0  0  0  0  0  2  0  0  0  0
    0.3572   -1.0313    0.0000 N   0  0  0  0  0  0  0  2  0  0  0  0
  1  2  1  0        0
  2  3  1  0        0
  3  4  1  0        0
  4  5  4  0        0
  5  6  4  0        0
  6  7  1  0        0
  6  8  4  0        0
  8  9  4  0        0
  9 10  1  0        0
 10 11  1  0        0
 11 12  1  0        0
 11 13  1  0        0
 11 14  1  0        0
 14 15  3  0        0
  9 16  4  0        0
  4 16  4  0        0
M  END
$$$$

CDXL12

 17 17  0  0  0  0  0  0  0  0999 V2000
    1.0717    0.2063    0.0000 C   0  0  0  0  0  0  0  2  0  0  0  0
    1.0717    1.0313    0.0000 C   0  0  0  0  0  0  0  2  0  0  0  0
    1.7862    1.4438    0.0000 Cl  0  0  0  0  0  0  0  2  0  0  0  0
    0.3572    1.4438    0.0000 C   0  0  0  0  0  0  0  2  0  0  0  0
    0.3572    2.2687    0.0000 Cl  0  0  0  0  0  0  0  2  0  0  0  0
   -0.3572    1.0313    0.0000 C   0  0  0  0  0  0  0  2  0  0  0  0
   -0.3572    0.2062    0.0000 C   0  0  0  0  0  0  0  2  0  0  0  0
    0.3572   -0.2062    0.0000 C   0  0  0  0  0  0  0  2  0  0  0  0
    0.3572   -1.0313    0.0000 C   0  0  0  0  0  0  0  2  0  0  0  0
    1.0717   -1.4438    0.0000 C   0  0  0  0  0  0  0  2  0  0  0  0
    1.7862   -1.8563    0.0000 Cl  0  0  0  0  0  0  0  2  0  0  0  0
    1.0717   -2.2687    0.0000 Cl  0  0  0  0  0  0  0  2  0  0  0  0
    1.7862   -1.0312    0.0000 Cl  0  0  0  0  0  0  0  2  0  0  0  0
   -0.3572   -1.4438    0.0000 O   0  0  0  0  0  0  0  2  0  0  0  0
   -1.0717   -1.0313    0.0000 C   0  0  0  0  0  0  0  2  0  0  0  0
   -1.0717   -0.2062    0.0000 O   0  0  0  0  0  0  0  2  0  0  0  0
   -1.7862   -1.4438    0.0000 C   0  0  0  0  0  0  0  2  0  0  0  0
  1  2  4  0        0
  2  3  1  0        0
  2  4  4  0        0
  4  5  1  0        0
  4  6  4  0        0
  6  7  4  0        0
  7  8  4  0        0
  1  8  4  0        0
  8  9  1  0        0
  9 10  1  0        0
 10 11  1  0        0
 10 12  1  0        0
 10 13  1  0        0
  9 14  1  0        0
 14 15  1  0        0
 15 16  2  0        0
 15 17  1  0        0
M  END
$$$$

CDXL12

 31 32  0  0  0  0  0  0  0  0999 V2000
   -2.8579   -0.7697    0.0000 O   0  0  0  0  0  0  0  2  0  0  0  0
   -2.1434   -0.3572    0.0000 C   0  0  0  0  0  0  0  2  0  0  0  0
   -2.1434    0.4678    0.0000 C   0  0  0  0  0  0  0  2  0  0  0  0
   -1.4289    0.8803    0.0000 C   0  0  0  0  0  0  0  2  0  0  0  0
   -0.7145    0.4678    0.0000 C   0  0  0  0  0  0  0  2  0  0  0  0
   -0.7145   -0.3572    0.0000 C   0  0  0  0  0  0  0  2  0  0  0  0
   -1.4289   -0.7697    0.0000 C   0  0  0  0  0  0  0  2  0  0  0  0
   -1.4289   -1.5947    0.0000 Br  0  0  0  0  0  0  0  2  0  0  0  0
   -0.0000    0.8803    0.0000 C   0  0  0  0  0  0  0  2  0  0  0  0
    0.7145    0.4678    0.0000 C   0  0  0  0  0  0  0  2  0  0  0  0
    0.7145   -0.3572    0.0000 C   0  0  0  0  0  0  0  2  0  0  0  0
    1.4289   -0.7697    0.0000 C   0  0  0  0  0  0  0  2  0  0  0  0
    2.1434   -0.3572    0.0000 C   0  0  0  0  0  0  0  2  0  0  0  0
    2.8579   -0.7697    0.0000 O   0  0  0  0  0  0  0  2  0  0  0  0
    3.5724   -0.3572    0.0000 C   0  0  0  0  0  0  0  2  0  0  0  0
    4.2868   -0.7697    0.0000 C   0  0  0  0  0  0  0  2  0  0  0  0
    4.2868   -1.5947    0.0000 Br  0  0  0  0  0  0  0  2  0  0  0  0
    5.0013   -0.3572    0.0000 C   0  0  0  0  0  0  0  2  0  0  0  0
    5.7158   -0.7697    0.0000 Br  0  0  0  0  0  0  0  2  0  0  0  0
    2.1434    0.4678    0.0000 C   0  0  0  0  0  0  0  2  0  0  0  0
    2.8579    0.8803    0.0000 Br  0  0  0  0  0  0  0  2  0  0  0  0
    1.4289    0.8803    0.0000 C   0  0  0  0  0  0  0  2  0  0  0  0
    1.4289   -1.5947    0.0000 Br  0  0  0  0  0  0  0  2  0  0  0  0
    0.4125    1.5947    0.0000 C   0  0  0  0  0  0  0  2  0  0  0  0
   -0.4125    1.5947    0.0000 C   0  0  0  0  0  0  0  2  0  0  0  0
   -2.8579    0.8803    0.0000 Br  0  0  0  0  0  0  0  2  0  0  0  0
   -3.5724   -0.3572    0.0000 C   0  0  0  0  0  0  0  2  0  0  0  0
   -4.2868   -0.7697    0.0000 C   0  0  0  0  0  0  0  2  0  0  0  0
   -4.2868   -1.5947    0.0000 Br  0  0  0  0  0  0  0  2  0  0  0  0
   -5.0013   -0.3572    0.0000 C   0  0  0  0  0  0  0  2  0  0  0  0
   -5.7158   -0.7697    0.0000 Br  0  0  0  0  0  0  0  2  0  0  0  0
  1  2  1  0        0
  2  3  4  0        0
  3  4  4  0        0
  4  5  4  0        0
  5  6  4  0        0
  6  7  4  0        0
  2  7  4  0        0
  7  8  1  0        0
  5  9  1  0        0
  9 10  1  0        0
 10 11  4  0        0
 11 12  4  0        0
 12 13  4  0        0
 13 14  1  0        0
 14 15  1  0        0
 15 16  1  0        0
 16 17  1  0        0
 16 18  1  0        0
 18 19  1  0        0
 13 20  4  0        0
 20 21  1  0        0
 20 22  4  0        0
 10 22  4  0        0
 12 23  1  0        0
  9 24  1  0        0
  9 25  1  0        0
  3 26  1  0        0
  1 27  1  0        0
 27 28  1  0        0
 28 29  1  0        0
 28 30  1  0        0
 30 31  1  0        0
M  END
$$$$

CDXL12

 17 18  0  0  0  0  0  0  0  0999 V2000
   -3.2151   -0.8250    0.0000 C   0  0  0  0  0  0  0  2  0  0  0  0
   -2.5006   -1.2375    0.0000 O   0  0  0  0  0  0  0  2  0  0  0  0
   -1.7862   -0.8250    0.0000 C   0  0  0  0  0  0  0  2  0  0  0  0
   -1.7862    0.0000    0.0000 C   0  0  0  0  0  0  0  2  0  0  0  0
   -1.0717    0.4125    0.0000 C   0  0  0  0  0  0  0  2  0  0  0  0
   -0.3572    0.0000    0.0000 C   0  0  0  0  0  0  0  2  0  0  0  0
    0.3572    0.4125    0.0000 C   0  0  0  0  0  0  0  2  0  0  0  0
    1.0717   -0.0000    0.0000 C   0  0  0  0  0  0  0  2  0  0  0  0
    1.0717   -0.8250    0.0000 C   0  0  0  0  0  0  0  2  0  0  0  0
    0.3572   -1.2375    0.0000 C   0  0  0  0  0  0  0  2  0  0  0  0
   -0.3572   -0.8250    0.0000 C   0  0  0  0  0  0  0  2  0  0  0  0
   -1.0717   -1.2375    0.0000 C   0  0  0  0  0  0  0  2  0  0  0  0
    1.7862    0.4125    0.0000 C   0  0  0  0  0  0  0  2  0  0  0  0
    1.7862    1.2375    0.0000 C   0  0  0  0  0  0  0  2  0  0  0  0
    2.5006   -0.0000    0.0000 C   0  0  0  0  0  0  0  2  0  0  0  0
    3.2151    0.4125    0.0000 O   0  0  0  0  0  0  0  2  0  0  0  0
    2.5006   -0.8250    0.0000 O   0  0  0  0  0  0  0  2  0  0  0  0
  1  2  1  0        0
  2  3  1  0        0
  3  4  4  0        0
  4  5  4  0        0
  5  6  4  0        0
  6  7  4  0        0
  7  8  4  0        0
  8  9  4  0        0
  9 10  4  0        0
 10 11  4  0        0
  6 11  4  0        0
 11 12  4  0        0
  3 12  4  0        0
  8 13  1  0        0
 13 14  1  0        0
 13 15  1  0        0
 15 16  1  0        0
 15 17  2  0        0
M  END
$$$$

CDXL12

 24 25  0  0  0  0  0  0  0  0999 V2000
   -1.7862   -0.2062    0.0000 C   0  0  0  0  0  0  0  2  0  0  0  0
   -2.5006    0.2062    0.0000 C   0  0  0  0  0  0  0  2  0  0  0  0
   -3.2151   -0.2062    0.0000 C   0  0  0  0  0  0  0  2  0  0  0  0
   -3.2151   -1.0313    0.0000 C   0  0  0  0  0  0  0  2  0  0  0  0
   -2.5006   -1.4438    0.0000 C   0  0  0  0  0  0  0  2  0  0  0  0
   -1.7862   -1.0313    0.0000 C   0  0  0  0  0  0  0  2  0  0  0  0
   -1.0717   -1.4438    0.0000 C   0  0  0  0  0  0  0  2  0  0  0  0
   -1.0717   -2.2687    0.0000 O   0  0  0  0  0  0  0  2  0  0  0  0
   -0.3572   -1.0313    0.0000 N   0  0  0  0  0  0  0  2  0  0  0  0
    0.3572   -1.4438    0.0000 C   0  0  0  0  0  0  0  2  0  0  0  0
    0.3572   -2.2687    0.0000 C   0  0  0  0  0  0  0  2  0  0  0  0
    1.0717   -1.0313    0.0000 C   0  0  0  0  0  0  0  2  0  0  0  0
    1.0717   -0.2062    0.0000 O   0  0  0  0  0  0  0  2  0  0  0  0
    1.7862   -1.4438    0.0000 O   0  0  0  0  0  0  0  2  0  0  0  0
    2.5006   -1.0312    0.0000 C   0  0  0  0  0  0  0  2  0  0  0  0
    3.2151   -1.4437    0.0000 C   0  0  0  0  0  0  0  2  0  0  0  0
   -0.3572   -0.2062    0.0000 C   0  0  0  0  0  0  0  2  0  0  0  0
    0.3572    0.2062    0.0000 C   0  0  0  0  0  0  0  2  0  0  0  0
    0.3572    1.0313    0.0000 C   0  0  0  0  0  0  0  2  0  0  0  0
   -0.3572    1.4438    0.0000 C   0  0  0  0  0  0  0  2  0  0  0  0
   -0.3572    2.2687    0.0000 Cl  0  0  0  0  0  0  0  2  0  0  0  0
   -1.0717    1.0313    0.0000 C   0  0  0  0  0  0  0  2  0  0  0  0
   -1.7862    1.4437    0.0000 Cl  0  0  0  0  0  0  0  2  0  0  0  0
   -1.0717    0.2062    0.0000 C   0  0  0  0  0  0  0  2  0  0  0  0
  1  2  4  0        0
  2  3  4  0        0
  3  4  4  0        0
  4  5  4  0        0
  5  6  4  0        0
  1  6  4  0        0
  6  7  1  0        0
  7  8  2  0        0
  7  9  1  0        0
  9 10  1  0        0
 10 11  1  0        0
 10 12  1  0        0
 12 13  2  0        0
 12 14  1  0        0
 14 15  1  0        0
 15 16  1  0        0
  9 17  1  0        0
 17 18  4  0        0
 18 19  4  0        0
 19 20  4  0        0
 20 21  1  0        0
 20 22  4  0        0
 22 23  1  0        0
 22 24  4  0        0
 17 24  4  0        0
M  END
$$$$

CDXL12

 19 19  0  0  0  0  0  0  0  0999 V2000
    2.1434   -1.0313    0.0000 C   0  0  0  0  0  0  0  2  0  0  0  0
    1.4289   -1.4438    0.0000 O   0  0  0  0  0  0  0  2  0  0  0  0
    0.7145   -1.0313    0.0000 P   0  0  0  0  0  0  0  2  0  0  0  0
    0.7145   -0.2062    0.0000 O   0  0  0  0  0  0  0  2  0  0  0  0
    0.7145   -1.8563    0.0000 O   0  0  0  0  0  0  0  2  0  0  0  0
    1.4289   -2.2687    0.0000 C   0  0  0  0  0  0  0  2  0  0  0  0
    0.0000   -1.4438    0.0000 O   0  0  0  0  0  0  0  2  0  0  0  0
   -0.7145   -1.0313    0.0000 C   0  0  0  0  0  0  0  2  0  0  0  0
   -1.4289   -1.4438    0.0000 C   0  0  0  0  0  0  0  2  0  0  0  0
   -2.1434   -1.0313    0.0000 Cl  0  0  0  0  0  0  0  2  0  0  0  0
   -0.7145   -0.2062    0.0000 C   0  0  0  0  0  0  0  2  0  0  0  0
    0.0000    0.2062    0.0000 C   0  0  0  0  0  0  0  2  0  0  0  0
    0.0000    1.0313    0.0000 C   0  0  0  0  0  0  0  2  0  0  0  0
    0.7145    1.4438    0.0000 Cl  0  0  0  0  0  0  0  2  0  0  0  0
   -0.7145    1.4438    0.0000 C   0  0  0  0  0  0  0  2  0  0  0  0
   -0.7145    2.2687    0.0000 Cl  0  0  0  0  0  0  0  2  0  0  0  0
   -1.4289    1.0313    0.0000 C   0  0  0  0  0  0  0  2  0  0  0  0
   -1.4289    0.2062    0.0000 C   0  0  0  0  0  0  0  2  0  0  0  0
   -2.1434   -0.2062    0.0000 Cl  0  0  0  0  0  0  0  2  0  0  0  0
  1  2  1  0        0
  2  3  1  0        0
  3  4  2  0        0
  3  5  1  0        0
  5  6  1  0        0
  3  7  1  0        0
  7  8  1  0        0
  8  9  2  0        0
  9 10  1  0        0
  8 11  1  0        0
 11 12  4  0        0
 12 13  4  0        0
 13 14  1  0        0
 13 15  4  0        0
 15 16  1  0        0
 15 17  4  0        0
 17 18  4  0        0
 11 18  4  0        0
 18 19  1  0        0
M  END
$$$$

CDXL12

 16 16  0  0  0  0  0  0  0  0999 V2000
   -3.5724   -0.0000    0.0000 C   0  0  0  0  0  0  0  2  0  0  0  0
   -2.8579   -0.4125    0.0000 N   0  0  0  0  0  0  0  2  0  0  0  0
   -2.1434    0.0000    0.0000 C   0  0  0  0  0  0  0  2  0  0  0  0
   -2.1434    0.8250    0.0000 O   0  0  0  0  0  0  0  2  0  0  0  0
   -1.4289   -0.4125    0.0000 O   0  0  0  0  0  0  0  2  0  0  0  0
   -0.7145   -0.0000    0.0000 C   0  0  0  0  0  0  0  2  0  0  0  0
   -0.7145    0.8250    0.0000 C   0  0  0  0  0  0  0  2  0  0  0  0
    0.0000    1.2375    0.0000 C   0  0  0  0  0  0  0  2  0  0  0  0
    0.7145    0.8250    0.0000 C   0  0  0  0  0  0  0  2  0  0  0  0
    0.7145   -0.0000    0.0000 C   0  0  0  0  0  0  0  2  0  0  0  0
    1.4289   -0.4125    0.0000 N   0  0  0  0  0  0  0  2  0  0  0  0
    2.1434   -0.0000    0.0000 C   0  0  0  0  0  0  0  2  0  0  0  0
    2.8579   -0.4125    0.0000 N   0  0  0  0  0  0  0  2  0  0  0  0
    2.8579   -1.2375    0.0000 C   0  0  0  0  0  0  0  2  0  0  0  0
    3.5724   -0.0000    0.0000 C   0  0  0  0  0  0  0  2  0  0  0  0
    0.0000   -0.4125    0.0000 C   0  0  0  0  0  0  0  2  0  0  0  0
  1  2  1  0        0
  2  3  1  0        0
  3  4  2  0        0
  3  5  1  0        0
  5  6  1  0        0
  6  7  4  0        0
  7  8  4  0        0
  8  9  4  0        0
  9 10  4  0        0
 10 11  1  0        0
 11 12  2  0        0
 12 13  1  0        0
 13 14  1  0        0
 13 15  1  0        0
 10 16  4  0        0
  6 16  4  0        0
M  END
$$$$

CDXL12

 22 23  0  0  0  0  0  0  0  0999 V2000
   -4.2717    0.0479    0.0000 C   0  0  0  0  0  0  0  2  0  0  0  0
   -3.5572   -0.3646    0.0000 C   0  0  0  0  0  0  0  2  0  0  0  0
   -3.5572   -1.1896    0.0000 C   0  0  0  0  0  0  0  2  0  0  0  0
   -2.8428    0.0479    0.0000 C   0  0  0  0  0  0  0  2  0  0  0  0
   -2.1283   -0.3646    0.0000 C   0  0  0  0  0  0  0  2  0  0  0  0
   -1.7158   -1.0791    0.0000 C   0  0  0  0  0  0  0  2  0  0  0  0
   -2.1283   -1.7936    0.0000 C   0  0  0  0  0  0  0  2  0  0  0  0
   -1.3033   -1.7936    0.0000 C   0  0  0  0  0  0  0  2  0  0  0  0
   -1.3033   -0.3646    0.0000 C   0  0  0  0  0  0  0  2  0  0  0  0
   -0.5888    0.0479    0.0000 C   0  0  0  0  0  0  0  2  0  0  0  0
   -0.5888    0.8729    0.0000 O   0  0  0  0  0  0  0  2  0  0  0  0
    0.1256   -0.3646    0.0000 O   0  0  0  0  0  0  0  2  0  0  0  0
    0.8401    0.0479    0.0000 C   0  0  0  0  0  0  0  2  0  0  0  0
    1.5938   -0.2877    0.0000 C   0  0  0  0  0  0  0  2  0  0  0  0
    1.7653   -1.0946    0.0000 C   0  0  0  0  0  0  0  2  0  0  0  0
    2.1458    0.3254    0.0000 C   0  0  0  0  0  0  0  2  0  0  0  0
    2.9663    0.2392    0.0000 C   0  0  0  0  0  0  0  2  0  0  0  0
    3.4512    0.9066    0.0000 C   0  0  0  0  0  0  0  2  0  0  0  0
    4.2717    0.8204    0.0000 C   0  0  0  0  0  0  0  2  0  0  0  0
    1.7333    1.0399    0.0000 C   0  0  0  0  0  0  0  2  0  0  0  0
    2.0689    1.7936    0.0000 O   0  0  0  0  0  0  0  2  0  0  0  0
    0.9264    0.8684    0.0000 C   0  0  0  0  0  0  0  2  0  0  0  0
  1  2  1  0        0
  2  3  1  0        0
  2  4  2  0        0
  4  5  1  0        0
  5  6  1  0        0
  6  7  1  0        0
  6  8  1  0        0
  6  9  1  0        0
  5  9  1  0        0
  9 10  1  0        0
 10 11  2  0        0
 10 12  1  0        0
 12 13  1  0        0
 13 14  1  0        0
 14 15  1  0        0
 14 16  2  0        0
 16 17  1  0        0
 17 18  1  0        0
 18 19  2  0        0
 16 20  1  0        0
 20 21  2  0        0
 20 22  1  0        0
 13 22  1  0        0
M  END
$$$$

CDXL12

 32 31  0  0  0  0  0  0  0  0999 V2000
   -8.9309   -0.2062    0.0000 C   0  0  0  0  0  0  0  2  0  0  0  0
   -8.2164    0.2063    0.0000 C   0  0  0  0  0  0  0  2  0  0  0  0
   -7.5019   -0.2062    0.0000 C   0  0  0  0  0  0  0  2  0  0  0  0
   -6.7875    0.2063    0.0000 C   0  0  0  0  0  0  0  2  0  0  0  0
   -6.0730   -0.2062    0.0000 C   0  0  0  0  0  0  0  2  0  0  0  0
   -5.3585    0.2063    0.0000 C   0  0  0  0  0  0  0  2  0  0  0  0
   -4.6441   -0.2062    0.0000 C   0  0  0  0  0  0  0  2  0  0  0  0
   -3.9296    0.2062    0.0000 C   0  0  0  0  0  0  0  2  0  0  0  0
   -3.2151   -0.2062    0.0000 C   0  0  0  0  0  0  0  2  0  0  0  0
   -3.2151   -1.0312    0.0000 H   0  0  0  0  0  0  0  2  0  0  0  0
   -2.5006    0.2062    0.0000 C   0  0  0  0  0  0  0  2  0  0  0  0
   -2.5006    1.0312    0.0000 H   0  0  0  0  0  0  0  2  0  0  0  0
   -1.7862   -0.2062    0.0000 C   0  0  0  0  0  0  0  2  0  0  0  0
   -1.0717    0.2062    0.0000 C   0  0  0  0  0  0  0  2  0  0  0  0
   -0.3572   -0.2062    0.0000 C   0  0  0  0  0  0  0  2  0  0  0  0
    0.3572    0.2062    0.0000 C   0  0  0  0  0  0  0  2  0  0  0  0
    1.0717   -0.2062    0.0000 C   0  0  0  0  0  0  0  2  0  0  0  0
    1.7862    0.2062    0.0000 C   0  0  0  0  0  0  0  2  0  0  0  0
    2.5006   -0.2062    0.0000 C   0  0  0  0  0  0  0  2  0  0  0  0
    3.2151    0.2062    0.0000 C   0  0  0  0  0  0  0  2  0  0  0  0
    3.2151    1.0312    0.0000 O   0  0  0  0  0  0  0  2  0  0  0  0
    3.9296   -0.2062    0.0000 O   0  0  0  0  0  0  0  2  0  0  0  0
    4.6441    0.2062    0.0000 C   0  0  0  0  0  0  0  2  0  0  0  0
    5.3585   -0.2062    0.0000 C   0  0  0  0  0  0  0  2  0  0  0  0
    5.3585   -1.0312    0.0000 O   0  0  0  0  0  0  0  2  0  0  0  0
    6.0730    0.2062    0.0000 C   0  0  0  0  0  0  0  2  0  0  0  0
    6.7875   -0.2062    0.0000 O   0  0  0  0  0  0  0  2  0  0  0  0
    7.5019    0.2062    0.0000 P   0  0  0  0  0  0  0  2  0  0  0  0
    7.5019    1.0312    0.0000 O   0  0  0  0  0  0  0  2  0  0  0  0
    7.5019   -0.6187    0.0000 O   0  0  0  0  0  0  0  2  0  0  0  0
    8.2164   -0.2062    0.0000 O   0  0  0  0  0  0  0  2  0  0  0  0
    8.9309    0.2062    0.0000 Na  0  0  0  0  0  0  0  2  0  0  0  0
  1  2  1  0        0
  2  3  1  0        0
  3  4  1  0        0
  4  5  1  0        0
  5  6  1  0        0
  6  7  1  0        0
  7  8  1  0        0
  8  9  1  0        0
  9 10  1  0        0
  9 11  2  0        0
 11 12  1  0        0
 11 13  1  0        0
 13 14  1  0        0
 14 15  1  0        0
 15 16  1  0        0
 16 17  1  0        0
 17 18  1  0        0
 18 19  1  0        0
 19 20  1  0        0
 20 21  2  0        0
 20 22  1  0        0
 22 23  1  0        0
 23 24  1  0        0
 24 25  1  0        0
 24 26  1  0        0
 26 27  1  0        0
 27 28  1  0        0
 28 29  2  0        0
 28 30  1  0        0
 28 31  1  0        0
 31 32  1  0        0
M  END
$$$$

CDXL12

 16 17  0  0  0  0  0  0  0  0999 V2000
   -2.4209   -1.0313    0.0000 C   0  0  0  0  0  0  0  2  0  0  0  0
   -1.7065   -0.6188    0.0000 N   0  0  0  0  0  0  0  2  0  0  0  0
   -0.9920   -1.0313    0.0000 C   0  0  0  0  0  0  0  2  0  0  0  0
   -0.9920   -1.8563    0.0000 O   0  0  0  0  0  0  0  2  0  0  0  0
   -0.2775   -0.6188    0.0000 O   0  0  0  0  0  0  0  2  0  0  0  0
   -0.2775    0.2062    0.0000 C   0  0  0  0  0  0  0  2  0  0  0  0
   -0.9920    0.6188    0.0000 C   0  0  0  0  0  0  0  2  0  0  0  0
   -0.9920    1.4437    0.0000 C   0  0  0  0  0  0  0  2  0  0  0  0
   -0.2775    1.8563    0.0000 C   0  0  0  0  0  0  0  2  0  0  0  0
    0.4369    1.4437    0.0000 C   0  0  0  0  0  0  0  2  0  0  0  0
    1.2216    1.6987    0.0000 O   0  0  0  0  0  0  0  2  0  0  0  0
    1.7065    1.0313    0.0000 C   0  0  0  0  0  0  0  2  0  0  0  0
    2.4209    1.4437    0.0000 C   0  0  0  0  0  0  0  2  0  0  0  0
    2.4209    0.6188    0.0000 C   0  0  0  0  0  0  0  2  0  0  0  0
    1.2216    0.3638    0.0000 O   0  0  0  0  0  0  0  2  0  0  0  0
    0.4369    0.6188    0.0000 C   0  0  0  0  0  0  0  2  0  0  0  0
  1  2  1  0        0
  2  3  1  0        0
  3  4  2  0        0
  3  5  1  0        0
  5  6  1  0        0
  6  7  4  0        0
  7  8  4  0        0
  8  9  4  0        0
  9 10  4  0        0
 10 11  1  0        0
 11 12  1  0        0
 12 13  1  0        0
 12 14  1  0        0
 12 15  1  0        0
 15 16  1  0        0
  6 16  4  0        0
 10 16  4  0        0
M  END
$$$$

CDXL12

 21 21  0  0  0  0  0  0  0  0999 V2000
    0.3572   -0.2062    0.0000 O   0  0  0  0  0  0  0  2  0  0  0  0
    0.3572    0.6188    0.0000 C   0  0  0  0  0  0  0  2  0  0  0  0
   -0.3572    1.0313    0.0000 N   0  0  0  0  0  0  0  2  0  0  0  0
   -1.0717    0.6188    0.0000 C   0  0  0  0  0  0  0  2  0  0  0  0
   -1.7862    1.0312    0.0000 C   0  0  0  0  0  0  0  2  0  0  0  0
   -1.7862    1.8563    0.0000 O   0  0  0  0  0  0  0  2  0  0  0  0
   -2.5006    0.6188    0.0000 O   0  0  0  0  0  0  0  2  0  0  0  0
   -3.2151    1.0312    0.0000 C   0  0  0  0  0  0  0  2  0  0  0  0
   -1.0717   -0.2062    0.0000 C   0  0  0  0  0  0  0  2  0  0  0  0
   -1.7862   -0.6188    0.0000 C   0  0  0  0  0  0  0  2  0  0  0  0
   -1.7862   -1.4438    0.0000 C   0  0  0  0  0  0  0  2  0  0  0  0
   -2.5006   -1.8563    0.0000 C   0  0  0  0  0  0  0  2  0  0  0  0
   -3.2151   -1.4438    0.0000 C   0  0  0  0  0  0  0  2  0  0  0  0
   -3.2151   -0.6188    0.0000 C   0  0  0  0  0  0  0  2  0  0  0  0
   -2.5006   -0.2062    0.0000 C   0  0  0  0  0  0  0  2  0  0  0  0
    1.0717    1.0312    0.0000 C   0  0  0  0  0  0  0  2  0  0  0  0
    1.0717    1.8562    0.0000 N   0  0  0  0  0  0  0  2  0  0  0  0
    1.7862    0.6188    0.0000 C   0  0  0  0  0  0  0  2  0  0  0  0
    2.5006    1.0312    0.0000 C   0  0  0  0  0  0  0  2  0  0  0  0
    2.5006    1.8562    0.0000 O   0  0  0  0  0  0  0  2  0  0  0  0
    3.2151    0.6188    0.0000 O   0  0  0  0  0  0  0  2  0  0  0  0
  1  2  2  0        0
  2  3  1  0        0
  3  4  1  0        0
  4  5  1  0        0
  5  6  2  0        0
  5  7  1  0        0
  7  8  1  0        0
  4  9  1  0        0
  9 10  1  0        0
 10 11  4  0        0
 11 12  4  0        0
 12 13  4  0        0
 13 14  4  0        0
 14 15  4  0        0
 10 15  4  0        0
  2 16  1  0        0
 16 17  1  0        0
 16 18  1  0        0
 18 19  1  0        0
 19 20  2  0        0
 19 21  1  0        0
M  END
$$$$

CDXL12

 19 20  0  0  0  0  0  0  0  0999 V2000
    0.0616    0.3345    0.0000 C   0  0  0  0  0  0  0  2  0  0  0  0
   -0.6529   -0.0780    0.0000 C   0  0  0  0  0  0  0  2  0  0  0  0
   -1.3673    0.3345    0.0000 C   0  0  0  0  0  0  0  2  0  0  0  0
   -2.0818   -0.0780    0.0000 O   0  0  0  0  0  0  0  2  0  0  0  0
   -2.7963    0.3345    0.0000 C   0  0  0  0  0  0  0  2  0  0  0  0
   -1.3673    1.1595    0.0000 C   0  0  0  0  0  0  0  2  0  0  0  0
   -0.6529    1.5720    0.0000 C   0  0  0  0  0  0  0  2  0  0  0  0
    0.0616    1.1595    0.0000 C   0  0  0  0  0  0  0  2  0  0  0  0
    0.7761    1.5720    0.0000 C   0  0  0  0  0  0  0  2  0  0  0  0
    1.4906    1.1595    0.0000 C   0  0  0  0  0  0  0  2  0  0  0  0
    2.2442    1.4951    0.0000 N   0  0  0  0  0  0  0  2  0  0  0  0
    2.7963    0.8820    0.0000 C   0  0  0  0  0  0  0  2  0  0  0  0
    2.3838    0.1675    0.0000 C   0  0  0  0  0  0  0  2  0  0  0  0
    2.7193   -0.5862    0.0000 O   0  0  0  0  0  0  0  2  0  0  0  0
    1.5768    0.3390    0.0000 C   0  0  0  0  0  0  0  2  0  0  0  0
    0.9637   -0.2130    0.0000 O   0  0  0  0  0  0  0  2  0  0  0  0
    1.1352   -1.0200    0.0000 C   0  0  0  0  0  0  0  2  0  0  0  0
    0.5221   -1.5720    0.0000 O   0  0  0  0  0  0  0  2  0  0  0  0
    1.9198   -1.2749    0.0000 C   0  0  0  0  0  0  0  2  0  0  0  0
  1  2  4  0        0
  2  3  4  0        0
  3  4  1  0        0
  4  5  1  0        0
  3  6  4  0        0
  6  7  4  0        0
  7  8  4  0        0
  1  8  4  0        0
  8  9  1  0        0
  9 10  1  0        0
 10 11  1  0        0
 11 12  1  0        0
 12 13  1  0        0
 13 14  1  0        0
 13 15  1  0        0
 10 15  1  0        0
 15 16  1  0        0
 16 17  1  0        0
 17 18  2  0        0
 17 19  1  0        0
M  END
$$$$

CDXL12

 10  9  0  0  0  0  0  0  0  0999 V2000
   -1.0717    0.1510    0.0000 C   0  0  0  0  0  0  0  2  0  0  0  0
   -1.0717    0.9760    0.0000 F   0  0  0  0  0  0  0  2  0  0  0  0
   -1.7862   -0.2615    0.0000 F   0  0  0  0  0  0  0  2  0  0  0  0
   -0.3572   -0.2615    0.0000 C   0  0  0  0  0  0  0  2  0  0  0  0
    0.0553   -0.9760    0.0000 F   0  0  0  0  0  0  0  2  0  0  0  0
   -0.7697   -0.9760    0.0000 F   0  0  0  0  0  0  0  2  0  0  0  0
    0.3572    0.1510    0.0000 C   0  0  0  0  0  0  0  2  0  0  0  0
    0.3572    0.9760    0.0000 O   0  0  0  0  0  0  0  2  0  0  0  0
    1.0717   -0.2615    0.0000 O   0  0  0  0  0  0  0  2  0  0  0  0
    1.7862    0.1510    0.0000 Na  0  0  0  0  0  0  0  2  0  0  0  0
  1  2  1  0        0
  1  3  1  0        0
  1  4  1  0        0
  4  5  1  0        0
  4  6  1  0        0
  4  7  1  0        0
  7  8  2  0        0
  7  9  1  0        0
  9 10  1  0        0
M  END
$$$$

CDXL12

 17 17  0  0  0  0  0  0  0  0999 V2000
    3.2151   -1.0313    0.0000 C   0  0  0  0  0  0  0  2  0  0  0  0
    2.5006   -0.6188    0.0000 C   0  0  0  0  0  0  0  2  0  0  0  0
    1.7862   -1.0313    0.0000 N   0  0  0  0  0  0  0  2  0  0  0  0
    1.0717   -0.6188    0.0000 C   0  0  0  0  0  0  0  2  0  0  0  0
    0.3572   -1.0313    0.0000 N   0  0  0  0  0  0  0  2  0  0  0  0
   -0.3572   -0.6187    0.0000 C   0  0  0  0  0  0  0  2  0  0  0  0
   -1.0717   -1.0312    0.0000 N   0  0  0  0  0  0  0  2  0  0  0  0
   -1.7862   -0.6187    0.0000 C   0  0  0  0  0  0  0  2  0  0  0  0
   -1.7862    0.2063    0.0000 C   0  0  0  0  0  0  0  2  0  0  0  0
   -2.5006   -1.0312    0.0000 C   0  0  0  0  0  0  0  2  0  0  0  0
   -2.5006   -1.8562    0.0000 C   0  0  0  0  0  0  0  2  0  0  0  0
   -3.2151   -0.6187    0.0000 C   0  0  0  0  0  0  0  2  0  0  0  0
   -0.3572    0.2063    0.0000 N   0  0  0  0  0  0  0  2  0  0  0  0
    0.3572    0.6188    0.0000 C   0  0  0  0  0  0  0  2  0  0  0  0
    0.3572    1.4438    0.0000 S   0  0  0  0  0  0  0  2  0  0  0  0
    1.0717    1.8562    0.0000 C   0  0  0  0  0  0  0  2  0  0  0  0
    1.0717    0.2062    0.0000 N   0  0  0  0  0  0  0  2  0  0  0  0
  1  2  1  0        0
  2  3  1  0        0
  3  4  1  0        0
  4  5  4  0        0
  5  6  4  0        0
  6  7  1  0        0
  7  8  1  0        0
  8  9  1  0        0
  8 10  1  0        0
 10 11  1  0        0
 10 12  1  0        0
  6 13  4  0        0
 13 14  4  0        0
 14 15  1  0        0
 15 16  1  0        0
 14 17  4  0        0
  4 17  4  0        0
M  END
$$$$

CDXL12

 17 17  0  0  0  0  0  0  0  0999 V2000
   -2.1434   -1.6500    0.0000 C   0  0  0  0  0  0  0  2  0  0  0  0
   -2.1434   -0.8250    0.0000 N   0  0  0  0  0  0  0  2  0  0  0  0
   -2.8579   -0.4125    0.0000 C   0  0  0  0  0  0  0  2  0  0  0  0
   -1.4289   -0.4125    0.0000 C   0  0  0  0  0  0  0  2  0  0  0  0
   -1.4289    0.4125    0.0000 O   0  0  0  0  0  0  0  2  0  0  0  0
   -0.7145   -0.8250    0.0000 O   0  0  0  0  0  0  0  2  0  0  0  0
    0.0000   -0.4125    0.0000 C   0  0  0  0  0  0  0  2  0  0  0  0
    0.7145   -0.8250    0.0000 N   0  0  0  0  0  0  0  2  0  0  0  0
    1.4289   -0.4125    0.0000 C   0  0  0  0  0  0  0  2  0  0  0  0
    1.4289    0.4125    0.0000 N   0  0  0  0  0  0  0  2  0  0  0  0
    0.7145    0.8250    0.0000 C   0  0  0  0  0  0  0  2  0  0  0  0
    0.7145    1.6500    0.0000 C   0  0  0  0  0  0  0  2  0  0  0  0
    0.0000    0.4125    0.0000 C   0  0  0  0  0  0  0  2  0  0  0  0
   -0.7145    0.8250    0.0000 C   0  0  0  0  0  0  0  2  0  0  0  0
    2.1434   -0.8250    0.0000 N   0  0  0  0  0  0  0  2  0  0  0  0
    2.1434   -1.6500    0.0000 C   0  0  0  0  0  0  0  2  0  0  0  0
    2.8579   -0.4125    0.0000 C   0  0  0  0  0  0  0  2  0  0  0  0
  1  2  1  0        0
  2  3  1  0        0
  2  4  1  0        0
  4  5  2  0        0
  4  6  1  0        0
  6  7  1  0        0
  7  8  4  0        0
  8  9  4  0        0
  9 10  4  0        0
 10 11  4  0        0
 11 12  1  0        0
 11 13  4  0        0
  7 13  4  0        0
 13 14  1  0        0
  9 15  1  0        0
 15 16  1  0        0
 15 17  1  0        0
M  END
$$$$

CDXL12

 14 13  0  0  0  0  0  0  0  0999 V2000
   -2.8579    0.4125    0.0000 C   0  0  0  0  0  0  0  2  0  0  0  0
   -2.1434   -0.0000    0.0000 N   0  0  0  0  0  0  0  2  0  0  0  0
   -1.4289    0.4125    0.0000 C   0  0  0  0  0  0  0  2  0  0  0  0
   -1.4289    1.2375    0.0000 O   0  0  0  0  0  0  0  2  0  0  0  0
   -0.7145   -0.0000    0.0000 O   0  0  0  0  0  0  0  2  0  0  0  0
    0.0000    0.4125    0.0000 N   0  0  0  0  0  0  0  2  0  0  0  0
    0.7145   -0.0000    0.0000 C   0  0  0  0  0  0  0  2  0  0  0  0
    0.7145   -0.8250    0.0000 S   0  0  0  0  0  0  0  2  0  0  0  0
    1.4289   -1.2375    0.0000 C   0  0  0  0  0  0  0  2  0  0  0  0
    1.4289    0.4125    0.0000 C   0  0  0  0  0  0  0  2  0  0  0  0
    1.4289    1.2375    0.0000 O   0  0  0  0  0  0  0  2  0  0  0  0
    2.1434   -0.0000    0.0000 N   0  0  0  0  0  0  0  2  0  0  0  0
    2.1434   -0.8250    0.0000 C   0  0  0  0  0  0  0  2  0  0  0  0
    2.8579    0.4125    0.0000 C   0  0  0  0  0  0  0  2  0  0  0  0
  1  2  1  0        0
  2  3  1  0        0
  3  4  2  0        0
  3  5  1  0        0
  5  6  1  0        0
  6  7  2  0        0
  7  8  1  0        0
  8  9  1  0        0
  7 10  1  0        0
 10 11  2  0        0
 10 12  1  0        0
 12 13  1  0        0
 12 14  1  0        0
M  END
$$$$

CDXL12

 21 21  0  0  0  0  0  0  0  0999 V2000
    3.2151    0.6188    0.0000 C   0  0  0  0  0  0  0  2  0  0  0  0
    2.5006    1.0312    0.0000 C   0  0  0  0  0  0  0  2  0  0  0  0
    1.7862    0.6188    0.0000 C   0  0  0  0  0  0  0  2  0  0  0  0
    1.0717    1.0312    0.0000 C   0  0  0  0  0  0  0  2  0  0  0  0
    0.3572    0.6188    0.0000 O   0  0  0  0  0  0  0  2  0  0  0  0
   -0.3572    1.0312    0.0000 C   0  0  0  0  0  0  0  2  0  0  0  0
   -1.0717    0.6188    0.0000 N   0  0  0  0  0  0  0  2  0  0  0  0
   -1.7862    1.0313    0.0000 C   0  0  0  0  0  0  0  2  0  0  0  0
   -1.7862    1.8563    0.0000 O   0  0  0  0  0  0  0  2  0  0  0  0
   -2.5006    0.6188    0.0000 C   0  0  0  0  0  0  0  2  0  0  0  0
   -3.2151    1.0312    0.0000 Cl  0  0  0  0  0  0  0  2  0  0  0  0
   -1.0717   -0.2062    0.0000 C   0  0  0  0  0  0  0  2  0  0  0  0
   -1.7862   -0.6188    0.0000 C   0  0  0  0  0  0  0  2  0  0  0  0
   -2.5006   -0.2062    0.0000 C   0  0  0  0  0  0  0  2  0  0  0  0
   -3.2151   -0.6188    0.0000 C   0  0  0  0  0  0  0  2  0  0  0  0
   -1.7862   -1.4438    0.0000 C   0  0  0  0  0  0  0  2  0  0  0  0
   -1.0717   -1.8563    0.0000 C   0  0  0  0  0  0  0  2  0  0  0  0
   -0.3572   -1.4438    0.0000 C   0  0  0  0  0  0  0  2  0  0  0  0
   -0.3572   -0.6188    0.0000 C   0  0  0  0  0  0  0  2  0  0  0  0
    0.3572   -0.2062    0.0000 C   0  0  0  0  0  0  0  2  0  0  0  0
    1.0717   -0.6188    0.0000 C   0  0  0  0  0  0  0  2  0  0  0  0
  1  2  1  0        0
  2  3  1  0        0
  3  4  1  0        0
  4  5  1  0        0
  5  6  1  0        0
  6  7  1  0        0
  7  8  1  0        0
  8  9  2  0        0
  8 10  1  0        0
 10 11  1  0        0
  7 12  1  0        0
 12 13  4  0        0
 13 14  1  0        0
 14 15  1  0        0
 13 16  4  0        0
 16 17  4  0        0
 17 18  4  0        0
 18 19  4  0        0
 12 19  4  0        0
 19 20  1  0        0
 20 21  1  0        0
M  END
$$$$

CDXL12

 17 17  0  0  0  0  0  0  0  0999 V2000
   -3.5724   -0.0000    0.0000 C   0  0  0  0  0  0  0  2  0  0  0  0
   -2.8579   -0.4125    0.0000 N   0  0  0  0  0  0  0  2  0  0  0  0
   -2.1434    0.0000    0.0000 C   0  0  0  0  0  0  0  2  0  0  0  0
   -2.1434    0.8250    0.0000 O   0  0  0  0  0  0  0  2  0  0  0  0
   -1.4289   -0.4125    0.0000 O   0  0  0  0  0  0  0  2  0  0  0  0
   -0.7145   -0.0000    0.0000 C   0  0  0  0  0  0  0  2  0  0  0  0
   -0.7145    0.8250    0.0000 C   0  0  0  0  0  0  0  2  0  0  0  0
    0.0000    1.2375    0.0000 C   0  0  0  0  0  0  0  2  0  0  0  0
    0.7145    0.8250    0.0000 C   0  0  0  0  0  0  0  2  0  0  0  0
    0.7145   -0.0000    0.0000 C   0  0  0  0  0  0  0  2  0  0  0  0
    1.4289   -0.4125    0.0000 N   0  0  0  0  0  0  0  2  0  0  0  0
    2.1434   -0.0000    0.0000 C   0  0  0  0  0  0  0  2  0  0  0  0
    2.8579   -0.4125    0.0000 N   0  0  0  0  0  0  0  2  0  0  0  0
    2.8579   -1.2375    0.0000 C   0  0  0  0  0  0  0  2  0  0  0  0
    3.5724   -0.8250    0.0000 Cl  0  0  0  0  0  0  0  2  0  0  0  0
    3.5724   -0.0000    0.0000 C   0  0  0  0  0  0  0  2  0  0  0  0
    0.0000   -0.4125    0.0000 C   0  0  0  0  0  0  0  2  0  0  0  0
  1  2  1  0        0
  2  3  1  0        0
  3  4  2  0        0
  3  5  1  0        0
  5  6  1  0        0
  6  7  4  0        0
  7  8  4  0        0
  8  9  4  0        0
  9 10  4  0        0
 10 11  1  0        0
 11 12  2  0        0
 12 13  1  0        0
 13 14  1  0        0
 13 15  1  0        0
 13 16  1  0        0
 10 17  4  0        0
  6 17  4  0        0
M  END
$$$$

CDXL12

 15 16  0  0  0  0  0  0  0  0999 V2000
   -2.4275    0.3984    0.0000 C   0  0  0  0  0  0  0  2  0  0  0  0
   -1.9426    1.0659    0.0000 C   0  0  0  0  0  0  0  2  0  0  0  0
   -1.1580    0.8109    0.0000 C   0  0  0  0  0  0  0  2  0  0  0  0
   -0.3330    0.8109    0.0000 C   0  0  0  0  0  0  0  2  0  0  0  0
    0.2504    1.3943    0.0000 Cl  0  0  0  0  0  0  0  2  0  0  0  0
   -0.3330   -0.0141    0.0000 C   0  0  0  0  0  0  0  2  0  0  0  0
    0.2504   -0.5974    0.0000 O   0  0  0  0  0  0  0  2  0  0  0  0
    1.0473   -0.3839    0.0000 P   0  0  0  0  0  0  0  2  0  0  0  0
    1.2608    0.4130    0.0000 O   0  0  0  0  0  0  0  2  0  0  0  0
    1.6306   -0.9673    0.0000 O   0  0  0  0  0  0  0  2  0  0  0  0
    2.4275   -0.7537    0.0000 C   0  0  0  0  0  0  0  2  0  0  0  0
    0.8337   -1.1808    0.0000 O   0  0  0  0  0  0  0  2  0  0  0  0
    0.0369   -1.3943    0.0000 C   0  0  0  0  0  0  0  2  0  0  0  0
   -1.1580   -0.0141    0.0000 C   0  0  0  0  0  0  0  2  0  0  0  0
   -1.9426   -0.2690    0.0000 C   0  0  0  0  0  0  0  2  0  0  0  0
  1  2  2  0        0
  2  3  1  0        0
  3  4  1  0        0
  4  5  1  0        0
  4  6  2  0        0
  6  7  1  0        0
  7  8  1  0        0
  8  9  2  0        0
  8 10  1  0        0
 10 11  1  0        0
  8 12  1  0        0
 12 13  1  0        0
  6 14  1  0        0
  3 14  1  0        0
 14 15  1  0        0
  1 15  1  0        0
M  END
$$$$

CDXL12

 22 22  0  0  0  0  0  0  0  0999 V2000
   -2.8579   -2.0625    0.0000 C   0  0  0  0  0  0  0  2  0  0  0  0
   -2.1434   -2.4750    0.0000 O   0  0  0  0  0  0  0  2  0  0  0  0
   -1.4289   -2.0625    0.0000 C   0  0  0  0  0  0  0  2  0  0  0  0
   -1.4289   -1.2375    0.0000 O   0  0  0  0  0  0  0  2  0  0  0  0
   -0.7145   -2.4750    0.0000 N   0  0  0  0  0  0  0  2  0  0  0  0
    0.0000   -2.0625    0.0000 C   0  0  0  0  0  0  0  2  0  0  0  0
    0.0000   -1.2375    0.0000 S   0  0  0  0  0  0  0  2  0  0  0  0
    0.7145   -2.4750    0.0000 N   0  0  0  0  0  0  0  2  0  0  0  0
    1.4289   -2.0625    0.0000 C   0  0  0  0  0  0  0  2  0  0  0  0
    2.1434   -2.4750    0.0000 C   0  0  0  0  0  0  0  2  0  0  0  0
    2.8579   -2.0625    0.0000 C   0  0  0  0  0  0  0  2  0  0  0  0
    2.8579   -1.2375    0.0000 C   0  0  0  0  0  0  0  2  0  0  0  0
    2.1434   -0.8250    0.0000 C   0  0  0  0  0  0  0  2  0  0  0  0
    1.4289   -1.2375    0.0000 C   0  0  0  0  0  0  0  2  0  0  0  0
    0.7145   -0.8250    0.0000 N   0  0  0  0  0  0  0  2  0  0  0  0
    0.7145    0.0000    0.0000 C   0  0  0  0  0  0  0  2  0  0  0  0
    0.0000    0.4125    0.0000 S   0  0  0  0  0  0  0  2  0  0  0  0
    1.4289    0.4125    0.0000 N   0  0  0  0  0  0  0  2  0  0  0  0
    1.4289    1.2375    0.0000 C   0  0  0  0  0  0  0  2  0  0  0  0
    0.7145    1.6500    0.0000 O   0  0  0  0  0  0  0  2  0  0  0  0
    2.1434    1.6500    0.0000 O   0  0  0  0  0  0  0  2  0  0  0  0
    2.1434    2.4750    0.0000 C   0  0  0  0  0  0  0  2  0  0  0  0
  1  2  1  0        0
  2  3  1  0        0
  3  4  2  0        0
  3  5  1  0        0
  5  6  1  0        0
  6  7  2  0        0
  6  8  1  0        0
  8  9  1  0        0
  9 10  4  0        0
 10 11  4  0        0
 11 12  4  0        0
 12 13  4  0        0
 13 14  4  0        0
  9 14  4  0        0
 14 15  1  0        0
 15 16  1  0        0
 16 17  2  0        0
 16 18  1  0        0
 18 19  1  0        0
 19 20  2  0        0
 19 21  1  0        0
 21 22  1  0        0
M  END
$$$$

CDXL12

 15 15  0  0  0  0  0  0  0  0999 V2000
    3.2151   -0.0000    0.0000 C   0  0  0  0  0  0  0  2  0  0  0  0
    2.5006   -0.4125    0.0000 C   0  0  0  0  0  0  0  2  0  0  0  0
    1.7862   -0.0000    0.0000 C   0  0  0  0  0  0  0  2  0  0  0  0
    1.0717   -0.4125    0.0000 C   0  0  0  0  0  0  0  2  0  0  0  0
    0.3572   -0.0000    0.0000 C   0  0  0  0  0  0  0  2  0  0  0  0
   -0.3572   -0.4125    0.0000 C   0  0  0  0  0  0  0  2  0  0  0  0
   -0.3572   -1.2375    0.0000 C   0  0  0  0  0  0  0  2  0  0  0  0
   -1.0717   -0.0000    0.0000 N   0  0  0  0  0  0  0  2  0  0  0  0
   -1.0717    0.8250    0.0000 C   0  0  0  0  0  0  0  2  0  0  0  0
   -1.7862    1.2375    0.0000 N   0  0  0  0  0  0  0  2  0  0  0  0
   -2.5006    0.8250    0.0000 C   0  0  0  0  0  0  0  2  0  0  0  0
   -3.2151    1.2375    0.0000 C   0  0  0  0  0  0  0  2  0  0  0  0
   -0.3572    1.2375    0.0000 N   0  0  0  0  0  0  0  2  0  0  0  0
    0.3572    0.8250    0.0000 C   0  0  0  0  0  0  0  2  0  0  0  0
    1.0717    1.2375    0.0000 O   0  0  0  0  0  0  0  2  0  0  0  0
  1  2  1  0        0
  2  3  1  0        0
  3  4  1  0        0
  4  5  1  0        0
  5  6  4  0        0
  6  7  1  0        0
  6  8  4  0        0
  8  9  4  0        0
  9 10  1  0        0
 10 11  1  0        0
 11 12  1  0        0
  9 13  4  0        0
 13 14  4  0        0
  5 14  4  0        0
 14 15  1  0        0
M  END
$$$$

CDXL12

 32 34  0  0  0  0  0  0  0  0999 V2000
    3.5724    2.1178    0.0000 Na  0  0  0  0  0  0  0  2  0  0  0  0
    2.8579    2.5303    0.0000 O   0  0  0  0  0  0  0  2  0  0  0  0
    2.1434    2.1178    0.0000 S   0  0  0  0  0  0  0  2  0  0  0  0
    1.7309    2.8322    0.0000 O   0  0  0  0  0  0  0  2  0  0  0  0
    2.5559    1.4033    0.0000 O   0  0  0  0  0  0  0  2  0  0  0  0
    1.4289    1.7053    0.0000 C   0  0  0  0  0  0  0  2  0  0  0  0
    0.7145    2.1178    0.0000 C   0  0  0  0  0  0  0  2  0  0  0  0
    0.0000    1.7053    0.0000 C   0  0  0  0  0  0  0  2  0  0  0  0
   -0.7145    2.1178    0.0000 Cl  0  0  0  0  0  0  0  2  0  0  0  0
    0.0000    0.8803    0.0000 C   0  0  0  0  0  0  0  2  0  0  0  0
    0.7145    0.4678    0.0000 C   0  0  0  0  0  0  0  2  0  0  0  0
    1.4289    0.8803    0.0000 C   0  0  0  0  0  0  0  2  0  0  0  0
    2.1434    0.4678    0.0000 O   0  0  0  0  0  0  0  2  0  0  0  0
    2.1434   -0.3572    0.0000 C   0  0  0  0  0  0  0  2  0  0  0  0
    2.8579   -0.7697    0.0000 C   0  0  0  0  0  0  0  2  0  0  0  0
    2.8579   -1.5947    0.0000 C   0  0  0  0  0  0  0  2  0  0  0  0
    2.1434   -2.0072    0.0000 C   0  0  0  0  0  0  0  2  0  0  0  0
    2.1434   -2.8322    0.0000 Cl  0  0  0  0  0  0  0  2  0  0  0  0
    1.4289   -1.5947    0.0000 C   0  0  0  0  0  0  0  2  0  0  0  0
    1.4289   -0.7697    0.0000 C   0  0  0  0  0  0  0  2  0  0  0  0
    0.7145   -0.3572    0.0000 N   0  0  0  0  0  0  0  2  0  0  0  0
    0.0000   -0.7697    0.0000 C   0  0  0  0  0  0  0  2  0  0  0  0
    0.0000   -1.5947    0.0000 O   0  0  0  0  0  0  0  2  0  0  0  0
   -0.7145   -0.3572    0.0000 N   0  0  0  0  0  0  0  2  0  0  0  0
   -1.4289   -0.7697    0.0000 C   0  0  0  0  0  0  0  2  0  0  0  0
   -1.4289   -1.5947    0.0000 C   0  0  0  0  0  0  0  2  0  0  0  0
   -2.1434   -2.0072    0.0000 C   0  0  0  0  0  0  0  2  0  0  0  0
   -2.8579   -1.5947    0.0000 C   0  0  0  0  0  0  0  2  0  0  0  0
   -3.5724   -2.0072    0.0000 Cl  0  0  0  0  0  0  0  2  0  0  0  0
   -2.8579   -0.7697    0.0000 C   0  0  0  0  0  0  0  2  0  0  0  0
   -3.5724   -0.3572    0.0000 Cl  0  0  0  0  0  0  0  2  0  0  0  0
   -2.1434   -0.3572    0.0000 C   0  0  0  0  0  0  0  2  0  0  0  0
  1  2  1  0        0
  2  3  1  0        0
  3  4  2  0        0
  3  5  2  0        0
  3  6  1  0        0
  6  7  4  0        0
  7  8  4  0        0
  8  9  1  0        0
  8 10  4  0        0
 10 11  4  0        0
 11 12  4  0        0
  6 12  4  0        0
 12 13  1  0        0
 13 14  1  0        0
 14 15  4  0        0
 15 16  4  0        0
 16 17  4  0        0
 17 18  1  0        0
 17 19  4  0        0
 19 20  4  0        0
 14 20  4  0        0
 20 21  1  0        0
 21 22  1  0        0
 22 23  2  0        0
 22 24  1  0        0
 24 25  1  0        0
 25 26  4  0        0
 26 27  4  0        0
 27 28  4  0        0
 28 29  1  0        0
 28 30  4  0        0
 30 31  1  0        0
 30 32  4  0        0
 25 32  4  0        0
M  END
$$$$

CDXL12

 28 30  0  0  0  0  0  0  0  0999 V2000
   -1.3737    1.8871    0.0000 C   0  0  0  0  0  0  0  2  0  0  0  0
   -1.7862    2.6016    0.0000 C   0  0  0  0  0  0  0  2  0  0  0  0
   -1.3737    3.3160    0.0000 C   0  0  0  0  0  0  0  2  0  0  0  0
   -1.7862    4.0305    0.0000 N   0  0  0  0  0  0  0  2  0  0  0  0
   -1.3737    4.7450    0.0000 O   0  0  0  0  0  0  0  2  0  0  0  0
   -2.6112    4.0305    0.0000 O   0  0  0  0  0  0  0  2  0  0  0  0
   -0.5487    3.3160    0.0000 C   0  0  0  0  0  0  0  2  0  0  0  0
   -0.1362    2.6016    0.0000 C   0  0  0  0  0  0  0  2  0  0  0  0
   -0.5487    1.8871    0.0000 C   0  0  0  0  0  0  0  2  0  0  0  0
   -0.2937    1.1025    0.0000 N   0  0  0  0  0  0  0  2  0  0  0  0
   -0.9612    0.6175    0.0000 C   0  0  0  0  0  0  0  2  0  0  0  0
   -0.9612   -0.2075    0.0000 N   0  0  0  0  0  0  0  2  0  0  0  0
   -0.2467   -0.6200    0.0000 N   0  0  0  0  0  0  0  2  0  0  0  0
   -0.2467   -1.4450    0.0000 C   0  0  0  0  0  0  0  2  0  0  0  0
    0.4678   -1.8575    0.0000 C   0  0  0  0  0  0  0  2  0  0  0  0
    0.4678   -2.6825    0.0000 C   0  0  0  0  0  0  0  2  0  0  0  0
   -0.2467   -3.0950    0.0000 C   0  0  0  0  0  0  0  2  0  0  0  0
   -0.2467   -3.9200    0.0000 N   0  0  0  0  0  0  0  2  0  0  0  0
    0.4678   -4.3325    0.0000 C   0  0  0  0  0  0  0  2  0  0  0  0
    1.1822   -3.9200    0.0000 C   0  0  0  0  0  0  0  2  0  0  0  0
    1.8967   -4.3325    0.0000 C   0  0  0  0  0  0  0  2  0  0  0  0
    2.6112   -4.7450    0.0000 N   0  0  0  0  0  0  0  2  0  0  0  0
   -0.9612   -4.3325    0.0000 C   0  0  0  0  0  0  0  2  0  0  0  0
   -1.6756   -3.9200    0.0000 C   0  0  0  0  0  0  0  2  0  0  0  0
   -2.3901   -4.3325    0.0000 O   0  0  0  0  0  0  0  2  0  0  0  0
   -0.9612   -2.6825    0.0000 C   0  0  0  0  0  0  0  2  0  0  0  0
   -0.9612   -1.8575    0.0000 C   0  0  0  0  0  0  0  2  0  0  0  0
   -1.6286    1.1025    0.0000 S   0  0  0  0  0  0  0  2  0  0  0  0
  1  2  4  0        0
  2  3  4  0        0
  3  4  1  0        0
  4  5  2  0        0
  4  6  2  0        0
  3  7  4  0        0
  7  8  4  0        0
  8  9  4  0        0
  1  9  4  0        0
  9 10  4  0        0
 10 11  4  0        0
 11 12  1  0        0
 12 13  2  0        0
 13 14  1  0        0
 14 15  4  0        0
 15 16  4  0        0
 16 17  4  0        0
 17 18  1  0        0
 18 19  1  0        0
 19 20  1  0        0
 20 21  1  0        0
 21 22  3  0        0
 18 23  1  0        0
 23 24  1  0        0
 24 25  1  0        0
 17 26  4  0        0
 26 27  4  0        0
 14 27  4  0        0
 11 28  4  0        0
  1 28  4  0        0
M  END
$$$$

CDXL12

 21 21  0  0  0  0  0  0  0  0999 V2000
    1.4289   -1.8563    0.0000 C   0  0  0  0  0  0  0  2  0  0  0  0
    2.1434   -1.4438    0.0000 C   0  0  0  0  0  0  0  2  0  0  0  0
    2.8579   -1.8562    0.0000 C   0  0  0  0  0  0  0  2  0  0  0  0
    3.5724   -1.4437    0.0000 C   0  0  0  0  0  0  0  2  0  0  0  0
    3.5724   -0.6187    0.0000 C   0  0  0  0  0  0  0  2  0  0  0  0
    2.8579   -0.2062    0.0000 C   0  0  0  0  0  0  0  2  0  0  0  0
    2.1434   -0.6188    0.0000 N   0  0  0  0  0  0  0  2  0  0  0  0
    1.4289   -0.2062    0.0000 C   0  0  0  0  0  0  0  2  0  0  0  0
    1.4289    0.6188    0.0000 O   0  0  0  0  0  0  0  2  0  0  0  0
    0.7145   -0.6188    0.0000 C   0  0  0  0  0  0  0  2  0  0  0  0
    0.0000   -0.2062    0.0000 S   0  0  0  0  0  0  0  2  0  0  0  0
   -0.7145   -0.6188    0.0000 P   0  0  0  0  0  0  0  2  0  0  0  0
   -0.7145   -1.4438    0.0000 S   0  0  0  0  0  0  0  2  0  0  0  0
   -1.4289   -0.2062    0.0000 O   0  0  0  0  0  0  0  2  0  0  0  0
   -2.1434   -0.6188    0.0000 C   0  0  0  0  0  0  0  2  0  0  0  0
   -2.8579   -0.2062    0.0000 C   0  0  0  0  0  0  0  2  0  0  0  0
   -3.5724   -0.6188    0.0000 C   0  0  0  0  0  0  0  2  0  0  0  0
   -0.7145    0.2062    0.0000 O   0  0  0  0  0  0  0  2  0  0  0  0
   -1.4289    0.6188    0.0000 C   0  0  0  0  0  0  0  2  0  0  0  0
   -1.4289    1.4438    0.0000 C   0  0  0  0  0  0  0  2  0  0  0  0
   -2.1434    1.8563    0.0000 C   0  0  0  0  0  0  0  2  0  0  0  0
  1  2  1  0        0
  2  3  1  0        0
  3  4  1  0        0
  4  5  1  0        0
  5  6  1  0        0
  6  7  1  0        0
  2  7  1  0        0
  7  8  1  0        0
  8  9  2  0        0
  8 10  1  0        0
 10 11  1  0        0
 11 12  1  0        0
 12 13  2  0        0
 12 14  1  0        0
 14 15  1  0        0
 15 16  1  0        0
 16 17  1  0        0
 12 18  1  0        0
 18 19  1  0        0
 19 20  1  0        0
 20 21  1  0        0
M  END
$$$$

CDXL12

 14 13  0  0  0  0  0  0  0  0999 V2000
   -2.8579   -1.0312    0.0000 C   0  0  0  0  0  0  0  2  0  0  0  0
   -2.8579   -0.2062    0.0000 N   0  0  0  0  0  0  0  2  0  0  0  0
   -3.5724    0.2062    0.0000 C   0  0  0  0  0  0  0  2  0  0  0  0
   -3.5724   -0.6187    0.0000 Cl  0  0  0  0  0  0  0  2  0  0  0  0
   -2.1434    0.2062    0.0000 C   0  0  0  0  0  0  0  2  0  0  0  0
   -1.4289   -0.2062    0.0000 C   0  0  0  0  0  0  0  2  0  0  0  0
   -0.7145    0.2062    0.0000 C   0  0  0  0  0  0  0  2  0  0  0  0
   -0.0000   -0.2062    0.0000 N   0  0  0  0  0  0  0  2  0  0  0  0
    0.7145    0.2062    0.0000 C   0  0  0  0  0  0  0  2  0  0  0  0
    0.7145    1.0312    0.0000 O   0  0  0  0  0  0  0  2  0  0  0  0
    1.4289   -0.2062    0.0000 O   0  0  0  0  0  0  0  2  0  0  0  0
    2.1434    0.2062    0.0000 C   0  0  0  0  0  0  0  2  0  0  0  0
    2.8579   -0.2062    0.0000 C   0  0  0  0  0  0  0  2  0  0  0  0
    3.5724    0.2062    0.0000 C   0  0  0  0  0  0  0  2  0  0  0  0
  1  2  1  0        0
  2  3  1  0        0
  2  4  1  0        0
  2  5  1  0        0
  5  6  1  0        0
  6  7  1  0        0
  7  8  1  0        0
  8  9  1  0        0
  9 10  2  0        0
  9 11  1  0        0
 11 12  1  0        0
 12 13  1  0        0
 13 14  1  0        0
M  END
$$$$

CDXL12

  8  7  0  0  0  0  0  0  0  0999 V2000
   -1.7862   -0.2062    0.0000 O   0  0  0  0  0  0  0  2  0  0  0  0
   -1.0717    0.2062    0.0000 C   0  0  0  0  0  0  0  2  0  0  0  0
   -0.3572   -0.2062    0.0000 C   0  0  0  0  0  0  0  2  0  0  0  0
   -0.3572   -1.0313    0.0000 N   0  0  0  0  0  0  0  2  0  0  0  0
    0.3572    0.2062    0.0000 C   0  0  0  0  0  0  0  2  0  0  0  0
    0.3572    1.0313    0.0000 C   0  0  0  0  0  0  0  2  0  0  0  0
    1.0717   -0.2062    0.0000 C   0  0  0  0  0  0  0  2  0  0  0  0
    1.7862    0.2062    0.0000 C   0  0  0  0  0  0  0  2  0  0  0  0
  1  2  1  0        0
  2  3  1  0        0
  3  4  1  0        0
  3  5  1  0        0
  5  6  1  0        0
  5  7  1  0        0
  7  8  1  0        0
M  END
$$$$

CDXL12

 16 17  0  0  0  0  0  0  0  0999 V2000
   -0.3572   -1.4437    0.0000 C   0  0  0  0  0  0  0  2  0  0  0  0
   -1.0717   -1.0313    0.0000 C   0  0  0  0  0  0  0  2  0  0  0  0
   -1.0717   -0.2063    0.0000 C   0  0  0  0  0  0  0  2  0  0  0  0
   -1.7862    0.2062    0.0000 C   0  0  0  0  0  0  0  2  0  0  0  0
   -2.5006   -0.2063    0.0000 C   0  0  0  0  0  0  0  2  0  0  0  0
   -2.5006   -1.0313    0.0000 C   0  0  0  0  0  0  0  2  0  0  0  0
   -1.7862   -1.4437    0.0000 O   0  0  0  0  0  0  0  2  0  0  0  0
   -0.3572    0.2062    0.0000 C   0  0  0  0  0  0  0  2  0  0  0  0
   -0.3572    1.0312    0.0000 O   0  0  0  0  0  0  0  2  0  0  0  0
    0.3572   -0.2063    0.0000 N   0  0  0  0  0  0  0  2  0  0  0  0
    1.0717    0.2062    0.0000 C   0  0  0  0  0  0  0  2  0  0  0  0
    1.0717    1.0312    0.0000 C   0  0  0  0  0  0  0  2  0  0  0  0
    1.7862    1.4437    0.0000 C   0  0  0  0  0  0  0  2  0  0  0  0
    2.5006    1.0312    0.0000 C   0  0  0  0  0  0  0  2  0  0  0  0
    2.5006    0.2062    0.0000 C   0  0  0  0  0  0  0  2  0  0  0  0
    1.7862   -0.2063    0.0000 C   0  0  0  0  0  0  0  2  0  0  0  0
  1  2  1  0        0
  2  3  2  0        0
  3  4  1  0        0
  4  5  1  0        0
  5  6  1  0        0
  6  7  1  0        0
  2  7  1  0        0
  3  8  1  0        0
  8  9  2  0        0
  8 10  1  0        0
 10 11  1  0        0
 11 12  4  0        0
 12 13  4  0        0
 13 14  4  0        0
 14 15  4  0        0
 15 16  4  0        0
 11 16  4  0        0
M  END
$$$$

CDXL12

 15 16  0  0  0  0  0  0  0  0999 V2000
    0.6065    1.5113    0.0000 C   0  0  0  0  0  0  0  2  0  0  0  0
    1.2196    0.9592    0.0000 C   0  0  0  0  0  0  0  2  0  0  0  0
    2.0265    1.1308    0.0000 O   0  0  0  0  0  0  0  2  0  0  0  0
    2.4390    0.4163    0.0000 C   0  0  0  0  0  0  0  2  0  0  0  0
    1.8870   -0.1968    0.0000 C   0  0  0  0  0  0  0  2  0  0  0  0
    1.1333    0.1387    0.0000 C   0  0  0  0  0  0  0  2  0  0  0  0
    0.4189   -0.2738    0.0000 C   0  0  0  0  0  0  0  2  0  0  0  0
    0.4189   -1.0988    0.0000 O   0  0  0  0  0  0  0  2  0  0  0  0
   -0.2956    0.1387    0.0000 N   0  0  0  0  0  0  0  2  0  0  0  0
   -1.0101   -0.2738    0.0000 C   0  0  0  0  0  0  0  2  0  0  0  0
   -1.0101   -1.0988    0.0000 C   0  0  0  0  0  0  0  2  0  0  0  0
   -1.7246   -1.5113    0.0000 C   0  0  0  0  0  0  0  2  0  0  0  0
   -2.4390   -1.0988    0.0000 C   0  0  0  0  0  0  0  2  0  0  0  0
   -2.4390   -0.2738    0.0000 C   0  0  0  0  0  0  0  2  0  0  0  0
   -1.7246    0.1387    0.0000 C   0  0  0  0  0  0  0  2  0  0  0  0
  1  2  1  0        0
  2  3  4  0        0
  3  4  4  0        0
  4  5  4  0        0
  5  6  4  0        0
  2  6  4  0        0
  6  7  1  0        0
  7  8  2  0        0
  7  9  1  0        0
  9 10  1  0        0
 10 11  4  0        0
 11 12  4  0        0
 12 13  4  0        0
 13 14  4  0        0
 14 15  4  0        0
 10 15  4  0        0
M  END
$$$$

CDXL12

 11 10  0  0  0  0  0  0  0  0999 V2000
   -2.1434    0.2062    0.0000 C   0  0  0  0  0  0  0  2  0  0  0  0
   -1.4289    0.6187    0.0000 C   0  0  0  0  0  0  0  2  0  0  0  0
   -0.7145    0.2062    0.0000 O   0  0  0  0  0  0  0  2  0  0  0  0
    0.0000    0.6188    0.0000 P   0  0  0  0  0  0  0  2  0  0  0  0
    0.0000    1.4438    0.0000 S   0  0  0  0  0  0  0  2  0  0  0  0
    0.7145    0.2062    0.0000 O   0  0  0  0  0  0  0  2  0  0  0  0
    1.4289    0.6187    0.0000 C   0  0  0  0  0  0  0  2  0  0  0  0
    2.1434    0.2062    0.0000 C   0  0  0  0  0  0  0  2  0  0  0  0
    0.0000   -0.2062    0.0000 S   0  0  0  0  0  0  0  2  0  0  0  0
    0.7145   -0.6188    0.0000 C   0  0  0  0  0  0  0  2  0  0  0  0
    0.7145   -1.4438    0.0000 Cl  0  0  0  0  0  0  0  2  0  0  0  0
  1  2  1  0        0
  2  3  1  0        0
  3  4  1  0        0
  4  5  2  0        0
  4  6  1  0        0
  6  7  1  0        0
  7  8  1  0        0
  4  9  1  0        0
  9 10  1  0        0
 10 11  1  0        0
M  END
$$$$

CDXL12

 29 31  0  0  0  0  0  0  0  0999 V2000
    0.0000   -1.4437    0.0000 O   0  0  0  0  0  0  0  2  0  0  0  0
    0.0000   -0.6187    0.0000 P   0  0  0  0  0  0  0  2  0  0  0  0
   -0.7145   -0.2062    0.0000 O   0  0  0  0  0  0  0  2  0  0  0  0
   -1.4289   -0.6187    0.0000 C   0  0  0  0  0  0  0  2  0  0  0  0
   -1.4289   -1.4437    0.0000 C   0  0  0  0  0  0  0  2  0  0  0  0
   -0.7145   -1.8562    0.0000 C   0  0  0  0  0  0  0  2  0  0  0  0
   -2.1434   -1.8562    0.0000 C   0  0  0  0  0  0  0  2  0  0  0  0
   -2.8579   -1.4437    0.0000 C   0  0  0  0  0  0  0  2  0  0  0  0
   -3.5724   -1.8562    0.0000 C   0  0  0  0  0  0  0  2  0  0  0  0
   -2.8579   -0.6187    0.0000 C   0  0  0  0  0  0  0  2  0  0  0  0
   -2.1434   -0.2062    0.0000 C   0  0  0  0  0  0  0  2  0  0  0  0
    0.7145   -0.2062    0.0000 O   0  0  0  0  0  0  0  2  0  0  0  0
    1.4289   -0.6187    0.0000 C   0  0  0  0  0  0  0  2  0  0  0  0
    1.4289   -1.4437    0.0000 C   0  0  0  0  0  0  0  2  0  0  0  0
    2.1434   -1.8562    0.0000 C   0  0  0  0  0  0  0  2  0  0  0  0
    2.1434   -2.6812    0.0000 C   0  0  0  0  0  0  0  2  0  0  0  0
    2.8579   -1.4437    0.0000 C   0  0  0  0  0  0  0  2  0  0  0  0
    2.8579   -0.6187    0.0000 C   0  0  0  0  0  0  0  2  0  0  0  0
    3.5724   -0.2062    0.0000 C   0  0  0  0  0  0  0  2  0  0  0  0
    2.1434   -0.2062    0.0000 C   0  0  0  0  0  0  0  2  0  0  0  0
    0.0000    0.2063    0.0000 O   0  0  0  0  0  0  0  2  0  0  0  0
   -0.7145    0.6187    0.0000 C   0  0  0  0  0  0  0  2  0  0  0  0
   -0.7145    1.4437    0.0000 C   0  0  0  0  0  0  0  2  0  0  0  0
    0.0000    1.8562    0.0000 C   0  0  0  0  0  0  0  2  0  0  0  0
   -1.4289    1.8562    0.0000 C   0  0  0  0  0  0  0  2  0  0  0  0
   -1.4289    2.6812    0.0000 C   0  0  0  0  0  0  0  2  0  0  0  0
   -2.1434    1.4437    0.0000 C   0  0  0  0  0  0  0  2  0  0  0  0
   -2.1434    0.6187    0.0000 C   0  0  0  0  0  0  0  2  0  0  0  0
   -1.4289    0.2063    0.0000 C   0  0  0  0  0  0  0  2  0  0  0  0
  1  2  2  0        0
  2  3  1  0        0
  3  4  1  0        0
  4  5  4  0        0
  5  6  1  0        0
  5  7  4  0        0
  7  8  4  0        0
  8  9  1  0        0
  8 10  4  0        0
 10 11  4  0        0
  4 11  4  0        0
  2 12  1  0        0
 12 13  1  0        0
 13 14  4  0        0
 14 15  4  0        0
 15 16  1  0        0
 15 17  4  0        0
 17 18  4  0        0
 18 19  1  0        0
 18 20  4  0        0
 13 20  4  0        0
  2 21  1  0        0
 21 22  1  0        0
 22 23  4  0        0
 23 24  1  0        0
 23 25  4  0        0
 25 26  1  0        0
 25 27  4  0        0
 27 28  4  0        0
 28 29  4  0        0
 22 29  4  0        0
M  END
$$$$

CDXL12

 15 15  0  0  0  0  0  0  0  0999 V2000
   -1.7862    0.4125    0.0000 C   0  0  0  0  0  0  0  2  0  0  0  0
   -2.5006   -0.0000    0.0000 C   0  0  0  0  0  0  0  2  0  0  0  0
   -2.5006   -0.8250    0.0000 C   0  0  0  0  0  0  0  2  0  0  0  0
   -3.2151   -1.2375    0.0000 Cl  0  0  0  0  0  0  0  2  0  0  0  0
   -1.7862   -1.2375    0.0000 C   0  0  0  0  0  0  0  2  0  0  0  0
   -1.0717   -0.8250    0.0000 C   0  0  0  0  0  0  0  2  0  0  0  0
   -0.3572   -1.2375    0.0000 C   0  0  0  0  0  0  0  2  0  0  0  0
   -1.0717   -0.0000    0.0000 C   0  0  0  0  0  0  0  2  0  0  0  0
   -0.3572    0.4125    0.0000 O   0  0  0  0  0  0  0  2  0  0  0  0
    0.3572   -0.0000    0.0000 C   0  0  0  0  0  0  0  2  0  0  0  0
    1.0717    0.4125    0.0000 C   0  0  0  0  0  0  0  2  0  0  0  0
    1.0717    1.2375    0.0000 O   0  0  0  0  0  0  0  2  0  0  0  0
    1.7862   -0.0000    0.0000 S   0  0  0  0  0  0  0  2  0  0  0  0
    2.5006    0.4125    0.0000 C   0  0  0  0  0  0  0  2  0  0  0  0
    3.2151   -0.0000    0.0000 C   0  0  0  0  0  0  0  2  0  0  0  0
  1  2  4  0        0
  2  3  4  0        0
  3  4  1  0        0
  3  5  4  0        0
  5  6  4  0        0
  6  7  1  0        0
  6  8  4  0        0
  1  8  4  0        0
  8  9  1  0        0
  9 10  1  0        0
 10 11  1  0        0
 11 12  2  0        0
 11 13  1  0        0
 13 14  1  0        0
 14 15  1  0        0
M  END
$$$$

CDXL12

 12 12  0  0  0  0  0  0  0  0999 V2000
   -1.4289    0.4125    0.0000 C   0  0  0  0  0  0  0  2  0  0  0  0
   -1.4289   -0.4125    0.0000 C   0  0  0  0  0  0  0  2  0  0  0  0
   -0.7145   -0.8250    0.0000 C   0  0  0  0  0  0  0  2  0  0  0  0
    0.0000   -0.4125    0.0000 C   0  0  0  0  0  0  0  2  0  0  0  0
    0.7145   -0.8250    0.0000 C   0  0  0  0  0  0  0  2  0  0  0  0
    0.7145   -1.6500    0.0000 C   0  0  0  0  0  0  0  2  0  0  0  0
    1.4289   -0.4125    0.0000 C   0  0  0  0  0  0  0  2  0  0  0  0
    0.0000    0.4125    0.0000 C   0  0  0  0  0  0  0  2  0  0  0  0
   -0.7145    0.8250    0.0000 C   0  0  0  0  0  0  0  2  0  0  0  0
    0.7145    0.8250    0.0000 C   0  0  0  0  0  0  0  2  0  0  0  0
    0.7145    1.6500    0.0000 C   0  0  0  0  0  0  0  2  0  0  0  0
    1.4289    0.4125    0.0000 C   0  0  0  0  0  0  0  2  0  0  0  0
  1  2  4  0        0
  2  3  4  0        0
  3  4  4  0        0
  4  5  1  0        0
  5  6  1  0        0
  5  7  1  0        0
  4  8  4  0        0
  8  9  4  0        0
  1  9  4  0        0
  8 10  1  0        0
 10 11  1  0        0
 10 12  1  0        0
M  END
$$$$

CDXL12

 15 15  0  0  0  0  0  0  0  0999 V2000
    0.7093   -0.2128    0.0000 S   0  0  0  0  0  0  0  2  0  0  0  0
    1.2613    0.4003    0.0000 C   0  0  0  0  0  0  0  2  0  0  0  0
    2.0818    0.3140    0.0000 C   0  0  0  0  0  0  0  2  0  0  0  0
    2.4174   -0.4396    0.0000 F   0  0  0  0  0  0  0  2  0  0  0  0
    2.9023    0.2278    0.0000 F   0  0  0  0  0  0  0  2  0  0  0  0
    2.5667    0.9815    0.0000 F   0  0  0  0  0  0  0  2  0  0  0  0
    0.8488    1.1148    0.0000 N   0  0  0  0  0  0  0  2  0  0  0  0
    0.0418    0.9432    0.0000 N   0  0  0  0  0  0  0  2  0  0  0  0
   -0.0444    0.1227    0.0000 C   0  0  0  0  0  0  0  2  0  0  0  0
   -0.7589   -0.2898    0.0000 N   0  0  0  0  0  0  0  2  0  0  0  0
   -0.7589   -1.1148    0.0000 C   0  0  0  0  0  0  0  2  0  0  0  0
   -1.4733    0.1227    0.0000 C   0  0  0  0  0  0  0  2  0  0  0  0
   -1.4733    0.9477    0.0000 O   0  0  0  0  0  0  0  2  0  0  0  0
   -2.1878   -0.2898    0.0000 N   0  0  0  0  0  0  0  2  0  0  0  0
   -2.9023    0.1227    0.0000 C   0  0  0  0  0  0  0  2  0  0  0  0
  1  2  4  0        0
  2  3  1  0        0
  3  4  1  0        0
  3  5  1  0        0
  3  6  1  0        0
  2  7  4  0        0
  7  8  4  0        0
  8  9  4  0        0
  1  9  4  0        0
  9 10  1  0        0
 10 11  1  0        0
 10 12  1  0        0
 12 13  2  0        0
 12 14  1  0        0
 14 15  1  0        0
M  END
$$$$

CDXL12

 13 12  0  0  0  0  0  0  0  0999 V2000
    2.5006    1.0312    0.0000 O   0  0  0  0  0  0  0  2  0  0  0  0
    2.5006    0.2062    0.0000 N   0  0  0  0  0  0  0  2  0  0  0  0
    3.2151   -0.2062    0.0000 O   0  0  0  0  0  0  0  2  0  0  0  0
    1.7862   -0.2062    0.0000 O   0  0  0  0  0  0  0  2  0  0  0  0
    1.0717    0.2062    0.0000 C   0  0  0  0  0  0  0  2  0  0  0  0
    0.3572   -0.2062    0.0000 C   0  0  0  0  0  0  0  2  0  0  0  0
   -0.3572    0.2063    0.0000 C   0  0  0  0  0  0  0  2  0  0  0  0
   -1.0717   -0.2062    0.0000 C   0  0  0  0  0  0  0  2  0  0  0  0
   -1.7862    0.2062    0.0000 O   0  0  0  0  0  0  0  2  0  0  0  0
   -2.5006   -0.2062    0.0000 N   0  0  0  0  0  0  0  2  0  0  0  0
   -2.5006   -1.0312    0.0000 O   0  0  0  0  0  0  0  2  0  0  0  0
   -3.2151    0.2062    0.0000 O   0  0  0  0  0  0  0  2  0  0  0  0
   -1.0717   -1.0312    0.0000 C   0  0  0  0  0  0  0  2  0  0  0  0
  1  2  2  0        0
  2  3  2  0        0
  2  4  1  0        0
  4  5  1  0        0
  5  6  1  0        0
  6  7  1  0        0
  7  8  1  0        0
  8  9  1  0        0
  9 10  1  0        0
 10 11  2  0        0
 10 12  2  0        0
  8 13  1  0        0
M  END
$$$$

CDXL12

 14 15  0  0  0  0  0  0  0  0999 V2000
    2.1434    0.2062    0.0000 Cl  0  0  0  0  0  0  0  2  0  0  0  0
    1.4289   -0.2062    0.0000 C   0  0  0  0  0  0  0  2  0  0  0  0
    1.4289   -1.0313    0.0000 C   0  0  0  0  0  0  0  2  0  0  0  0
    0.7145   -1.4438    0.0000 C   0  0  0  0  0  0  0  2  0  0  0  0
    0.0000   -1.0313    0.0000 C   0  0  0  0  0  0  0  2  0  0  0  0
    0.0000   -0.2062    0.0000 C   0  0  0  0  0  0  0  2  0  0  0  0
    0.7145    0.2062    0.0000 C   0  0  0  0  0  0  0  2  0  0  0  0
   -0.7145    0.2062    0.0000 C   0  0  0  0  0  0  0  2  0  0  0  0
   -1.4289   -0.2062    0.0000 C   0  0  0  0  0  0  0  2  0  0  0  0
   -2.1434    0.2062    0.0000 C   0  0  0  0  0  0  0  2  0  0  0  0
   -2.1434    1.0313    0.0000 C   0  0  0  0  0  0  0  2  0  0  0  0
   -1.4289    1.4438    0.0000 C   0  0  0  0  0  0  0  2  0  0  0  0
   -0.7145    1.0313    0.0000 C   0  0  0  0  0  0  0  2  0  0  0  0
    0.0000    1.4438    0.0000 Cl  0  0  0  0  0  0  0  2  0  0  0  0
  1  2  1  0        0
  2  3  4  0        0
  3  4  4  0        0
  4  5  4  0        0
  5  6  4  0        0
  6  7  4  0        0
  2  7  4  0        0
  6  8  1  0        0
  8  9  4  0        0
  9 10  4  0        0
 10 11  4  0        0
 11 12  4  0        0
 12 13  4  0        0
  8 13  4  0        0
 13 14  1  0        0
M  END
$$$$

CDXL12

 15 16  0  0  0  0  0  0  0  0999 V2000
    0.3572    1.8563    0.0000 C   0  0  0  0  0  0  0  2  0  0  0  0
    0.3572    1.0313    0.0000 C   0  0  0  0  0  0  0  2  0  0  0  0
   -0.3572    0.6188    0.0000 C   0  0  0  0  0  0  0  2  0  0  0  0
   -0.3572   -0.2062    0.0000 C   0  0  0  0  0  0  0  2  0  0  0  0
   -1.0717   -0.6187    0.0000 C   0  0  0  0  0  0  0  2  0  0  0  0
   -1.7862   -0.2062    0.0000 C   0  0  0  0  0  0  0  2  0  0  0  0
   -1.7862    0.6188    0.0000 C   0  0  0  0  0  0  0  2  0  0  0  0
   -1.0717    1.0313    0.0000 C   0  0  0  0  0  0  0  2  0  0  0  0
    0.3572   -0.6188    0.0000 C   0  0  0  0  0  0  0  2  0  0  0  0
    1.0717   -0.2062    0.0000 C   0  0  0  0  0  0  0  2  0  0  0  0
    1.7862   -0.6188    0.0000 C   0  0  0  0  0  0  0  2  0  0  0  0
    1.7862   -1.4438    0.0000 C   0  0  0  0  0  0  0  2  0  0  0  0
    1.0717   -1.8563    0.0000 C   0  0  0  0  0  0  0  2  0  0  0  0
    0.3572   -1.4438    0.0000 C   0  0  0  0  0  0  0  2  0  0  0  0
    1.0717    0.6187    0.0000 C   0  0  0  0  0  0  0  2  0  0  0  0
  1  2  1  0        0
  2  3  1  0        0
  3  4  4  0        0
  4  5  4  0        0
  5  6  4  0        0
  6  7  4  0        0
  7  8  4  0        0
  3  8  4  0        0
  4  9  1  0        0
  9 10  4  0        0
 10 11  4  0        0
 11 12  4  0        0
 12 13  4  0        0
 13 14  4  0        0
  9 14  4  0        0
  2 15  1  0        0
M  END
$$$$

CDXL12

 29 31  0  0  0  0  0  0  0  0999 V2000
    0.0000   -1.4437    0.0000 O   0  0  0  0  0  0  0  2  0  0  0  0
    0.0000   -0.6187    0.0000 P   0  0  0  0  0  0  0  2  0  0  0  0
   -0.7145   -0.2062    0.0000 O   0  0  0  0  0  0  0  2  0  0  0  0
   -1.4289   -0.6187    0.0000 C   0  0  0  0  0  0  0  2  0  0  0  0
   -2.1434   -0.2062    0.0000 C   0  0  0  0  0  0  0  2  0  0  0  0
   -2.8579   -0.6187    0.0000 C   0  0  0  0  0  0  0  2  0  0  0  0
   -3.5724   -0.2062    0.0000 C   0  0  0  0  0  0  0  2  0  0  0  0
   -2.8579   -1.4437    0.0000 C   0  0  0  0  0  0  0  2  0  0  0  0
   -2.1434   -1.8562    0.0000 C   0  0  0  0  0  0  0  2  0  0  0  0
   -2.1434   -2.6812    0.0000 C   0  0  0  0  0  0  0  2  0  0  0  0
   -1.4289   -1.4437    0.0000 C   0  0  0  0  0  0  0  2  0  0  0  0
    0.7145   -0.2062    0.0000 O   0  0  0  0  0  0  0  2  0  0  0  0
    1.4289   -0.6187    0.0000 C   0  0  0  0  0  0  0  2  0  0  0  0
    1.4289   -1.4437    0.0000 C   0  0  0  0  0  0  0  2  0  0  0  0
    2.1434   -1.8562    0.0000 C   0  0  0  0  0  0  0  2  0  0  0  0
    2.1434   -2.6812    0.0000 C   0  0  0  0  0  0  0  2  0  0  0  0
    2.8579   -1.4437    0.0000 C   0  0  0  0  0  0  0  2  0  0  0  0
    2.8579   -0.6187    0.0000 C   0  0  0  0  0  0  0  2  0  0  0  0
    3.5724   -0.2062    0.0000 C   0  0  0  0  0  0  0  2  0  0  0  0
    2.1434   -0.2062    0.0000 C   0  0  0  0  0  0  0  2  0  0  0  0
    0.0000    0.2063    0.0000 O   0  0  0  0  0  0  0  2  0  0  0  0
   -0.7145    0.6187    0.0000 C   0  0  0  0  0  0  0  2  0  0  0  0
   -0.7145    1.4437    0.0000 C   0  0  0  0  0  0  0  2  0  0  0  0
   -1.4289    1.8562    0.0000 C   0  0  0  0  0  0  0  2  0  0  0  0
   -1.4289    2.6812    0.0000 C   0  0  0  0  0  0  0  2  0  0  0  0
   -2.1434    1.4437    0.0000 C   0  0  0  0  0  0  0  2  0  0  0  0
   -2.1434    0.6187    0.0000 C   0  0  0  0  0  0  0  2  0  0  0  0
   -2.8579    0.2063    0.0000 C   0  0  0  0  0  0  0  2  0  0  0  0
   -1.4289    0.2063    0.0000 C   0  0  0  0  0  0  0  2  0  0  0  0
  1  2  2  0        0
  2  3  1  0        0
  3  4  1  0        0
  4  5  4  0        0
  5  6  4  0        0
  6  7  1  0        0
  6  8  4  0        0
  8  9  4  0        0
  9 10  1  0        0
  9 11  4  0        0
  4 11  4  0        0
  2 12  1  0        0
 12 13  1  0        0
 13 14  4  0        0
 14 15  4  0        0
 15 16  1  0        0
 15 17  4  0        0
 17 18  4  0        0
 18 19  1  0        0
 18 20  4  0        0
 13 20  4  0        0
  2 21  1  0        0
 21 22  1  0        0
 22 23  4  0        0
 23 24  4  0        0
 24 25  1  0        0
 24 26  4  0        0
 26 27  4  0        0
 27 28  1  0        0
 27 29  4  0        0
 22 29  4  0        0
M  END
$$$$

CDXL12

 19 20  0  0  0  0  0  0  0  0999 V2000
    3.4522    1.0392    0.0000 C   0  0  0  0  0  0  0  2  0  0  0  0
    2.6272    1.0392    0.0000 C   0  0  0  0  0  0  0  2  0  0  0  0
    2.2147    0.3247    0.0000 O   0  0  0  0  0  0  0  2  0  0  0  0
    1.3897    0.3247    0.0000 C   0  0  0  0  0  0  0  2  0  0  0  0
    0.9048    0.9921    0.0000 O   0  0  0  0  0  0  0  2  0  0  0  0
    0.1202    0.7372    0.0000 C   0  0  0  0  0  0  0  2  0  0  0  0
   -0.5943    1.1497    0.0000 C   0  0  0  0  0  0  0  2  0  0  0  0
   -1.3088    0.7372    0.0000 C   0  0  0  0  0  0  0  2  0  0  0  0
   -1.3088   -0.0878    0.0000 C   0  0  0  0  0  0  0  2  0  0  0  0
   -2.0233   -0.5003    0.0000 O   0  0  0  0  0  0  0  2  0  0  0  0
   -2.7377   -0.0878    0.0000 S   0  0  0  0  0  0  0  2  0  0  0  0
   -3.4522    0.3247    0.0000 C   0  0  0  0  0  0  0  2  0  0  0  0
   -2.3252    0.6267    0.0000 O   0  0  0  0  0  0  0  2  0  0  0  0
   -3.1502   -0.8023    0.0000 O   0  0  0  0  0  0  0  2  0  0  0  0
   -0.5943   -0.5003    0.0000 C   0  0  0  0  0  0  0  2  0  0  0  0
    0.1202   -0.0878    0.0000 C   0  0  0  0  0  0  0  2  0  0  0  0
    0.9048   -0.3427    0.0000 C   0  0  0  0  0  0  0  2  0  0  0  0
    1.5179   -0.8948    0.0000 C   0  0  0  0  0  0  0  2  0  0  0  0
    0.7332   -1.1497    0.0000 C   0  0  0  0  0  0  0  2  0  0  0  0
  1  2  1  0        0
  2  3  1  0        0
  3  4  1  0        0
  4  5  1  0        0
  5  6  1  0        0
  6  7  4  0        0
  7  8  4  0        0
  8  9  4  0        0
  9 10  1  0        0
 10 11  1  0        0
 11 12  1  0        0
 11 13  2  0        0
 11 14  2  0        0
  9 15  4  0        0
 15 16  4  0        0
  6 16  4  0        0
 16 17  1  0        0
  4 17  1  0        0
 17 18  1  0        0
 17 19  1  0        0
M  END
$$$$

CDXL12

 16 16  0  0  0  0  0  0  0  0999 V2000
    0.3572    1.0313    0.0000 O   0  0  0  0  0  0  0  2  0  0  0  0
    0.3572    0.2062    0.0000 C   0  0  0  0  0  0  0  2  0  0  0  0
    1.0717   -0.2062    0.0000 N   0  0  0  0  0  0  0  2  0  0  0  0
    1.0717   -1.0313    0.0000 C   0  0  0  0  0  0  0  2  0  0  0  0
    0.3572   -1.4438    0.0000 N   0  0  0  0  0  0  0  2  0  0  0  0
   -0.3572   -1.0313    0.0000 C   0  0  0  0  0  0  0  2  0  0  0  0
   -1.0717   -1.4438    0.0000 N   0  0  0  0  0  0  0  2  0  0  0  0
   -1.7862   -1.0313    0.0000 C   0  0  0  0  0  0  0  2  0  0  0  0
   -2.5006   -1.4438    0.0000 C   0  0  0  0  0  0  0  2  0  0  0  0
   -3.2151   -1.0313    0.0000 C   0  0  0  0  0  0  0  2  0  0  0  0
   -1.7862   -0.2062    0.0000 C   0  0  0  0  0  0  0  2  0  0  0  0
   -0.3572   -0.2062    0.0000 N   0  0  0  0  0  0  0  2  0  0  0  0
    1.7862   -1.4438    0.0000 N   0  0  0  0  0  0  0  2  0  0  0  0
    2.5006   -1.0313    0.0000 C   0  0  0  0  0  0  0  2  0  0  0  0
    3.2151   -1.4438    0.0000 C   0  0  0  0  0  0  0  2  0  0  0  0
    1.0717    1.4438    0.0000 C   0  0  0  0  0  0  0  2  0  0  0  0
  1  2  1  0        0
  2  3  4  0        0
  3  4  4  0        0
  4  5  4  0        0
  5  6  4  0        0
  6  7  1  0        0
  7  8  1  0        0
  8  9  1  0        0
  9 10  1  0        0
  8 11  1  0        0
  6 12  4  0        0
  2 12  4  0        0
  4 13  1  0        0
 13 14  1  0        0
 14 15  1  0        0
  1 16  1  0        0
M  END
$$$$

CDXL12

 24 26  0  0  0  0  0  0  0  0999 V2000
   -0.0000   -1.4437    0.0000 O   0  0  0  0  0  0  0  2  0  0  0  0
   -0.0000   -0.6187    0.0000 P   0  0  0  0  0  0  0  2  0  0  0  0
   -0.7145   -0.2062    0.0000 O   0  0  0  0  0  0  0  2  0  0  0  0
   -1.4289   -0.6187    0.0000 C   0  0  0  0  0  0  0  2  0  0  0  0
   -1.4289   -1.4437    0.0000 C   0  0  0  0  0  0  0  2  0  0  0  0
   -2.1434   -1.8563    0.0000 C   0  0  0  0  0  0  0  2  0  0  0  0
   -2.8579   -1.4438    0.0000 C   0  0  0  0  0  0  0  2  0  0  0  0
   -2.8579   -0.6188    0.0000 C   0  0  0  0  0  0  0  2  0  0  0  0
   -2.1434   -0.2062    0.0000 C   0  0  0  0  0  0  0  2  0  0  0  0
    0.7145   -0.2062    0.0000 O   0  0  0  0  0  0  0  2  0  0  0  0
    1.4289   -0.6187    0.0000 C   0  0  0  0  0  0  0  2  0  0  0  0
    2.1434   -0.2062    0.0000 C   0  0  0  0  0  0  0  2  0  0  0  0
    2.8579   -0.6188    0.0000 C   0  0  0  0  0  0  0  2  0  0  0  0
    2.8579   -1.4438    0.0000 C   0  0  0  0  0  0  0  2  0  0  0  0
    2.1434   -1.8563    0.0000 C   0  0  0  0  0  0  0  2  0  0  0  0
    1.4289   -1.4438    0.0000 C   0  0  0  0  0  0  0  2  0  0  0  0
   -0.0000    0.2062    0.0000 O   0  0  0  0  0  0  0  2  0  0  0  0
   -0.7145    0.6188    0.0000 C   0  0  0  0  0  0  0  2  0  0  0  0
   -1.4289    0.2062    0.0000 C   0  0  0  0  0  0  0  2  0  0  0  0
   -2.1434    0.6188    0.0000 C   0  0  0  0  0  0  0  2  0  0  0  0
   -2.1434    1.4438    0.0000 C   0  0  0  0  0  0  0  2  0  0  0  0
   -1.4289    1.8563    0.0000 C   0  0  0  0  0  0  0  2  0  0  0  0
   -0.7145    1.4438    0.0000 C   0  0  0  0  0  0  0  2  0  0  0  0
   -0.0000    1.8563    0.0000 C   0  0  0  0  0  0  0  2  0  0  0  0
  1  2  2  0        0
  2  3  1  0        0
  3  4  1  0        0
  4  5  4  0        0
  5  6  4  0        0
  6  7  4  0        0
  7  8  4  0        0
  8  9  4  0        0
  4  9  4  0        0
  2 10  1  0        0
 10 11  1  0        0
 11 12  4  0        0
 12 13  4  0        0
 13 14  4  0        0
 14 15  4  0        0
 15 16  4  0        0
 11 16  4  0        0
  2 17  1  0        0
 17 18  1  0        0
 18 19  4  0        0
 19 20  4  0        0
 20 21  4  0        0
 21 22  4  0        0
 22 23  4  0        0
 18 23  4  0        0
 23 24  1  0        0
M  END
$$$$

CDXL12

 22 22  0  0  0  0  0  0  0  0999 V2000
    1.7862    2.4750    0.0000 Cl  0  0  0  0  0  0  0  2  0  0  0  0
    1.0717    2.0625    0.0000 C   0  0  0  0  0  0  0  2  0  0  0  0
    1.0717    2.8875    0.0000 Cl  0  0  0  0  0  0  0  2  0  0  0  0
    1.7862    1.6500    0.0000 Cl  0  0  0  0  0  0  0  2  0  0  0  0
    0.3572    1.6500    0.0000 C   0  0  0  0  0  0  0  2  0  0  0  0
   -0.3572    2.0625    0.0000 N   0  0  0  0  0  0  0  2  0  0  0  0
   -1.0717    1.6500    0.0000 C   0  0  0  0  0  0  0  2  0  0  0  0
   -1.7862    2.0625    0.0000 O   0  0  0  0  0  0  0  2  0  0  0  0
    0.3572    0.8250    0.0000 N   0  0  0  0  0  0  0  2  0  0  0  0
    1.0717    0.4125    0.0000 C   0  0  0  0  0  0  0  2  0  0  0  0
    1.0717   -0.4125    0.0000 C   0  0  0  0  0  0  0  2  0  0  0  0
    0.3572   -0.8250    0.0000 N   0  0  0  0  0  0  0  2  0  0  0  0
   -0.3572   -0.4125    0.0000 C   0  0  0  0  0  0  0  2  0  0  0  0
   -0.3572    0.4125    0.0000 C   0  0  0  0  0  0  0  2  0  0  0  0
    0.3572   -1.6500    0.0000 C   0  0  0  0  0  0  0  2  0  0  0  0
   -0.3572   -2.0625    0.0000 N   0  0  0  0  0  0  0  2  0  0  0  0
   -1.0717   -1.6500    0.0000 C   0  0  0  0  0  0  0  2  0  0  0  0
   -1.7862   -2.0625    0.0000 O   0  0  0  0  0  0  0  2  0  0  0  0
    1.0717   -2.0625    0.0000 C   0  0  0  0  0  0  0  2  0  0  0  0
    1.7862   -1.6500    0.0000 Cl  0  0  0  0  0  0  0  2  0  0  0  0
    1.0717   -2.8875    0.0000 Cl  0  0  0  0  0  0  0  2  0  0  0  0
    1.7862   -2.4750    0.0000 Cl  0  0  0  0  0  0  0  2  0  0  0  0
  1  2  1  0        0
  2  3  1  0        0
  2  4  1  0        0
  2  5  1  0        0
  5  6  1  0        0
  6  7  1  0        0
  7  8  2  0        0
  5  9  1  0        0
  9 10  1  0        0
 10 11  1  0        0
 11 12  1  0        0
 12 13  1  0        0
 13 14  1  0        0
  9 14  1  0        0
 12 15  1  0        0
 15 16  1  0        0
 16 17  1  0        0
 17 18  2  0        0
 15 19  1  0        0
 19 20  1  0        0
 19 21  1  0        0
 19 22  1  0        0
M  END
$$$$

CDXL12

 15 15  0  0  0  0  0  0  0  0999 V2000
    1.2679    0.8925    0.0000 O   0  0  0  0  0  0  0  2  0  0  0  0
    1.8810    0.3405    0.0000 C   0  0  0  0  0  0  0  2  0  0  0  0
    2.6880    0.5120    0.0000 O   0  0  0  0  0  0  0  2  0  0  0  0
    3.1005   -0.2025    0.0000 C   0  0  0  0  0  0  0  2  0  0  0  0
    3.9210   -0.2887    0.0000 O   0  0  0  0  0  0  0  2  0  0  0  0
    2.5485   -0.8156    0.0000 C   0  0  0  0  0  0  0  2  0  0  0  0
    1.7948   -0.4800    0.0000 C   0  0  0  0  0  0  0  2  0  0  0  0
    1.0803   -0.8925    0.0000 C   0  0  0  0  0  0  0  2  0  0  0  0
    0.3658   -0.4800    0.0000 C   0  0  0  0  0  0  0  2  0  0  0  0
   -0.3486   -0.8925    0.0000 C   0  0  0  0  0  0  0  2  0  0  0  0
   -1.0631   -0.4800    0.0000 C   0  0  0  0  0  0  0  2  0  0  0  0
   -1.7776   -0.8925    0.0000 C   0  0  0  0  0  0  0  2  0  0  0  0
   -2.4920   -0.4800    0.0000 C   0  0  0  0  0  0  0  2  0  0  0  0
   -3.2065   -0.8925    0.0000 C   0  0  0  0  0  0  0  2  0  0  0  0
   -3.9210   -0.4800    0.0000 C   0  0  0  0  0  0  0  2  0  0  0  0
  1  2  2  0        0
  2  3  1  0        0
  3  4  1  0        0
  4  5  2  0        0
  4  6  1  0        0
  6  7  1  0        0
  2  7  1  0        0
  7  8  1  0        0
  8  9  1  0        0
  9 10  1  0        0
 10 11  1  0        0
 11 12  1  0        0
 12 13  1  0        0
 13 14  1  0        0
 14 15  2  0        0
M  END
$$$$

CDXL12

 25 26  0  0  0  0  0  0  0  0999 V2000
   -2.8579    1.2375    0.0000 O   0  0  0  0  0  0  0  2  0  0  0  0
   -2.8579    0.4125    0.0000 C   0  0  0  0  0  0  0  2  0  0  0  0
   -3.5724    0.0000    0.0000 C   0  0  0  0  0  0  0  2  0  0  0  0
   -3.5724   -0.8250    0.0000 C   0  0  0  0  0  0  0  2  0  0  0  0
   -4.2868   -1.2375    0.0000 C   0  0  0  0  0  0  0  2  0  0  0  0
   -5.0013   -0.8250    0.0000 C   0  0  0  0  0  0  0  2  0  0  0  0
   -5.0013    0.0000    0.0000 C   0  0  0  0  0  0  0  2  0  0  0  0
   -4.2868    0.4125    0.0000 C   0  0  0  0  0  0  0  2  0  0  0  0
   -2.1434    0.0000    0.0000 O   0  0  0  0  0  0  0  2  0  0  0  0
   -1.4289    0.4125    0.0000 C   0  0  0  0  0  0  0  2  0  0  0  0
   -0.7145   -0.0000    0.0000 C   0  0  0  0  0  0  0  2  0  0  0  0
   -0.0000    0.4125    0.0000 O   0  0  0  0  0  0  0  2  0  0  0  0
    0.7145   -0.0000    0.0000 C   0  0  0  0  0  0  0  2  0  0  0  0
    1.4289    0.4125    0.0000 C   0  0  0  0  0  0  0  2  0  0  0  0
    2.1434   -0.0000    0.0000 O   0  0  0  0  0  0  0  2  0  0  0  0
    2.8579    0.4125    0.0000 C   0  0  0  0  0  0  0  2  0  0  0  0
    2.8579    1.2375    0.0000 O   0  0  0  0  0  0  0  2  0  0  0  0
    3.5724   -0.0000    0.0000 C   0  0  0  0  0  0  0  2  0  0  0  0
    4.2868    0.4125    0.0000 C   0  0  0  0  0  0  0  2  0  0  0  0
    5.0013   -0.0000    0.0000 C   0  0  0  0  0  0  0  2  0  0  0  0
    5.0013   -0.8250    0.0000 C   0  0  0  0  0  0  0  2  0  0  0  0
    4.2868   -1.2375    0.0000 C   0  0  0  0  0  0  0  2  0  0  0  0
    3.5724   -0.8250    0.0000 C   0  0  0  0  0  0  0  2  0  0  0  0
    0.7145   -0.8250    0.0000 C   0  0  0  0  0  0  0  2  0  0  0  0
   -0.7145   -0.8250    0.0000 C   0  0  0  0  0  0  0  2  0  0  0  0
  1  2  2  0        0
  2  3  1  0        0
  3  4  4  0        0
  4  5  4  0        0
  5  6  4  0        0
  6  7  4  0        0
  7  8  4  0        0
  3  8  4  0        0
  2  9  1  0        0
  9 10  1  0        0
 10 11  1  0        0
 11 12  1  0        0
 12 13  1  0        0
 13 14  1  0        0
 14 15  1  0        0
 15 16  1  0        0
 16 17  2  0        0
 16 18  1  0        0
 18 19  4  0        0
 19 20  4  0        0
 20 21  4  0        0
 21 22  4  0        0
 22 23  4  0        0
 18 23  4  0        0
 13 24  1  0        0
 11 25  1  0        0
M  END
$$$$

CDXL12

 21 23  0  0  0  0  0  0  0  0999 V2000
    0.3572    0.4125    0.0000 C   0  0  0  0  0  0  0  2  0  0  0  0
    1.0717    0.8250    0.0000 C   0  0  0  0  0  0  0  2  0  0  0  0
    1.0717    1.6500    0.0000 O   0  0  0  0  0  0  0  2  0  0  0  0
    1.7862    0.4125    0.0000 C   0  0  0  0  0  0  0  2  0  0  0  0
    2.5006    0.8250    0.0000 Br  0  0  0  0  0  0  0  2  0  0  0  0
    1.7862   -0.4125    0.0000 C   0  0  0  0  0  0  0  2  0  0  0  0
    1.0717   -0.8250    0.0000 C   0  0  0  0  0  0  0  2  0  0  0  0
    1.0717   -1.6500    0.0000 N   0  0  0  0  0  0  0  2  0  0  0  0
    0.3572   -0.4125    0.0000 C   0  0  0  0  0  0  0  2  0  0  0  0
   -0.3572   -0.8250    0.0000 C   0  0  0  0  0  0  0  2  0  0  0  0
   -0.3572   -1.6500    0.0000 O   0  0  0  0  0  0  0  2  0  0  0  0
   -1.0717   -0.4125    0.0000 C   0  0  0  0  0  0  0  2  0  0  0  0
   -1.7862   -0.8250    0.0000 C   0  0  0  0  0  0  0  2  0  0  0  0
   -1.7862   -1.6500    0.0000 O   0  0  0  0  0  0  0  2  0  0  0  0
   -2.5006   -0.4125    0.0000 C   0  0  0  0  0  0  0  2  0  0  0  0
   -2.5006    0.4125    0.0000 C   0  0  0  0  0  0  0  2  0  0  0  0
   -1.7862    0.8250    0.0000 C   0  0  0  0  0  0  0  2  0  0  0  0
   -1.7862    1.6500    0.0000 N   0  0  0  0  0  0  0  2  0  0  0  0
   -1.0717    0.4125    0.0000 C   0  0  0  0  0  0  0  2  0  0  0  0
   -0.3572    0.8250    0.0000 C   0  0  0  0  0  0  0  2  0  0  0  0
   -0.3572    1.6500    0.0000 O   0  0  0  0  0  0  0  2  0  0  0  0
  1  2  4  0        0
  2  3  1  0        0
  2  4  4  0        0
  4  5  1  0        0
  4  6  4  0        0
  6  7  4  0        0
  7  8  1  0        0
  7  9  4  0        0
  1  9  4  0        0
  9 10  1  0        0
 10 11  2  0        0
 10 12  1  0        0
 12 13  4  0        0
 13 14  1  0        0
 13 15  4  0        0
 15 16  4  0        0
 16 17  4  0        0
 17 18  1  0        0
 17 19  4  0        0
 12 19  4  0        0
 19 20  1  0        0
  1 20  1  0        0
 20 21  2  0        0
M  END
$$$$

CDXL12

 20 21  0  0  0  0  0  0  0  0999 V2000
   -1.0717    0.2062    0.0000 C   0  0  0  0  0  0  0  2  0  0  0  0
   -1.7862   -0.2062    0.0000 C   0  0  0  0  0  0  0  2  0  0  0  0
   -2.5006    0.2062    0.0000 C   0  0  0  0  0  0  0  2  0  0  0  0
   -2.5006    1.0312    0.0000 F   0  0  0  0  0  0  0  2  0  0  0  0
   -3.2151    0.6187    0.0000 F   0  0  0  0  0  0  0  2  0  0  0  0
   -3.2151   -0.2062    0.0000 F   0  0  0  0  0  0  0  2  0  0  0  0
   -1.7862   -1.0313    0.0000 C   0  0  0  0  0  0  0  2  0  0  0  0
   -1.0717   -1.4438    0.0000 C   0  0  0  0  0  0  0  2  0  0  0  0
   -0.3572   -1.0313    0.0000 C   0  0  0  0  0  0  0  2  0  0  0  0
   -0.3572   -0.2062    0.0000 C   0  0  0  0  0  0  0  2  0  0  0  0
    0.3572    0.2062    0.0000 N   0  0  0  0  0  0  0  2  0  0  0  0
    1.0717   -0.2062    0.0000 C   0  0  0  0  0  0  0  2  0  0  0  0
    1.0717   -1.0312    0.0000 O   0  0  0  0  0  0  0  2  0  0  0  0
    1.7862    0.2062    0.0000 C   0  0  0  0  0  0  0  2  0  0  0  0
    2.5006   -0.2062    0.0000 Cl  0  0  0  0  0  0  0  2  0  0  0  0
    1.7862    1.0313    0.0000 C   0  0  0  0  0  0  0  2  0  0  0  0
    2.5006    1.4438    0.0000 N   0  0  0  0  0  0  0  2  0  0  0  0
    3.2151    1.0313    0.0000 C   0  0  0  0  0  0  0  2  0  0  0  0
    1.0717    1.4438    0.0000 C   0  0  0  0  0  0  0  2  0  0  0  0
    0.3572    1.0313    0.0000 N   0  0  0  0  0  0  0  2  0  0  0  0
  1  2  4  0        0
  2  3  1  0        0
  3  4  1  0        0
  3  5  1  0        0
  3  6  1  0        0
  2  7  4  0        0
  7  8  4  0        0
  8  9  4  0        0
  9 10  4  0        0
  1 10  4  0        0
 10 11  1  0        0
 11 12  1  0        0
 12 13  2  0        0
 12 14  1  0        0
 14 15  1  0        0
 14 16  2  0        0
 16 17  1  0        0
 17 18  1  0        0
 16 19  1  0        0
 19 20  2  0        0
 11 20  1  0        0
M  END
$$$$

CDXL12

 14 15  0  0  0  0  0  0  0  0999 V2000
   -1.7065    0.8250    0.0000 Cl  0  0  0  0  0  0  0  2  0  0  0  0
   -0.9920    0.4125    0.0000 C   0  0  0  0  0  0  0  2  0  0  0  0
   -0.9920   -0.4125    0.0000 C   0  0  0  0  0  0  0  2  0  0  0  0
   -1.7065   -0.8250    0.0000 Cl  0  0  0  0  0  0  0  2  0  0  0  0
   -0.2775   -0.8250    0.0000 C   0  0  0  0  0  0  0  2  0  0  0  0
   -0.2775   -1.6500    0.0000 Cl  0  0  0  0  0  0  0  2  0  0  0  0
    0.4369   -0.4125    0.0000 C   0  0  0  0  0  0  0  2  0  0  0  0
    1.2216   -0.6674    0.0000 C   0  0  0  0  0  0  0  2  0  0  0  0
    1.7065   -0.0000    0.0000 O   0  0  0  0  0  0  0  2  0  0  0  0
    1.2216    0.6674    0.0000 C   0  0  0  0  0  0  0  2  0  0  0  0
    1.4765    1.4521    0.0000 O   0  0  0  0  0  0  0  2  0  0  0  0
    0.4369    0.4125    0.0000 C   0  0  0  0  0  0  0  2  0  0  0  0
   -0.2775    0.8250    0.0000 C   0  0  0  0  0  0  0  2  0  0  0  0
   -0.2775    1.6500    0.0000 Cl  0  0  0  0  0  0  0  2  0  0  0  0
  1  2  1  0        0
  2  3  4  0        0
  3  4  1  0        0
  3  5  4  0        0
  5  6  1  0        0
  5  7  4  0        0
  7  8  1  0        0
  8  9  1  0        0
  9 10  1  0        0
 10 11  2  0        0
 10 12  1  0        0
  7 12  4  0        0
 12 13  4  0        0
  2 13  4  0        0
 13 14  1  0        0
M  END
$$$$

CDXL12

 19 20  0  0  0  0  0  0  0  0999 V2000
   -2.8579   -0.4125    0.0000 C   0  0  0  0  0  0  0  2  0  0  0  0
   -2.8579    0.4125    0.0000 C   0  0  0  0  0  0  0  2  0  0  0  0
   -2.1434    0.8250    0.0000 C   0  0  0  0  0  0  0  2  0  0  0  0
   -1.4289    0.4125    0.0000 C   0  0  0  0  0  0  0  2  0  0  0  0
   -0.7145    0.8250    0.0000 C   0  0  0  0  0  0  0  2  0  0  0  0
   -0.7145    1.6500    0.0000 O   0  0  0  0  0  0  0  2  0  0  0  0
   -0.0000    0.4125    0.0000 C   0  0  0  0  0  0  0  2  0  0  0  0
    0.7145    0.8250    0.0000 Cl  0  0  0  0  0  0  0  2  0  0  0  0
   -0.0000   -0.4125    0.0000 C   0  0  0  0  0  0  0  2  0  0  0  0
    0.7145   -0.8250    0.0000 N   0  0  0  0  0  0  0  2  0  0  0  0
    1.4289   -0.4125    0.0000 C   0  0  0  0  0  0  0  2  0  0  0  0
    1.4289    0.4125    0.0000 O   0  0  0  0  0  0  0  2  0  0  0  0
    2.1434   -0.8250    0.0000 C   0  0  0  0  0  0  0  2  0  0  0  0
    2.1434   -1.6500    0.0000 Cl  0  0  0  0  0  0  0  2  0  0  0  0
    2.8579   -0.4125    0.0000 Cl  0  0  0  0  0  0  0  2  0  0  0  0
   -0.7145   -0.8250    0.0000 C   0  0  0  0  0  0  0  2  0  0  0  0
   -0.7145   -1.6500    0.0000 O   0  0  0  0  0  0  0  2  0  0  0  0
   -1.4289   -0.4125    0.0000 C   0  0  0  0  0  0  0  2  0  0  0  0
   -2.1434   -0.8250    0.0000 C   0  0  0  0  0  0  0  2  0  0  0  0
  1  2  4  0        0
  2  3  4  0        0
  3  4  4  0        0
  4  5  1  0        0
  5  6  2  0        0
  5  7  1  0        0
  7  8  1  0        0
  7  9  2  0        0
  9 10  1  0        0
 10 11  1  0        0
 11 12  2  0        0
 11 13  1  0        0
 13 14  1  0        0
 13 15  1  0        0
  9 16  1  0        0
 16 17  2  0        0
 16 18  1  0        0
  4 18  4  0        0
 18 19  4  0        0
  1 19  4  0        0
M  END
$$$$

CDXL12

 26 28  0  0  0  0  0  0  0  0999 V2000
   -2.1434   -0.6188    0.0000 C   0  0  0  0  0  0  0  2  0  0  0  0
   -2.8579   -1.0313    0.0000 C   0  0  0  0  0  0  0  2  0  0  0  0
   -2.8579   -1.8563    0.0000 C   0  0  0  0  0  0  0  2  0  0  0  0
   -2.1434   -2.2687    0.0000 C   0  0  0  0  0  0  0  2  0  0  0  0
   -1.4289   -1.8563    0.0000 C   0  0  0  0  0  0  0  2  0  0  0  0
   -0.7145   -2.2687    0.0000 C   0  0  0  0  0  0  0  2  0  0  0  0
   -0.7145   -3.0938    0.0000 O   0  0  0  0  0  0  0  2  0  0  0  0
    0.0000   -1.8563    0.0000 O   0  0  0  0  0  0  0  2  0  0  0  0
    0.7145   -2.2687    0.0000 C   0  0  0  0  0  0  0  2  0  0  0  0
    1.4289   -1.8563    0.0000 C   0  0  0  0  0  0  0  2  0  0  0  0
    2.1434   -2.2687    0.0000 C   0  0  0  0  0  0  0  2  0  0  0  0
    2.8579   -1.8563    0.0000 C   0  0  0  0  0  0  0  2  0  0  0  0
    2.8579   -1.0313    0.0000 C   0  0  0  0  0  0  0  2  0  0  0  0
    2.1434   -0.6188    0.0000 C   0  0  0  0  0  0  0  2  0  0  0  0
    1.4289   -1.0313    0.0000 C   0  0  0  0  0  0  0  2  0  0  0  0
   -1.4289   -1.0313    0.0000 C   0  0  0  0  0  0  0  2  0  0  0  0
   -0.7145   -0.6188    0.0000 C   0  0  0  0  0  0  0  2  0  0  0  0
    0.0000   -1.0313    0.0000 O   0  0  0  0  0  0  0  2  0  0  0  0
   -0.7145    0.2062    0.0000 O   0  0  0  0  0  0  0  2  0  0  0  0
    0.0000    0.6188    0.0000 C   0  0  0  0  0  0  0  2  0  0  0  0
    0.0000    1.4438    0.0000 C   0  0  0  0  0  0  0  2  0  0  0  0
    0.7145    1.8563    0.0000 C   0  0  0  0  0  0  0  2  0  0  0  0
    0.7145    2.6812    0.0000 C   0  0  0  0  0  0  0  2  0  0  0  0
    0.0000    3.0938    0.0000 C   0  0  0  0  0  0  0  2  0  0  0  0
   -0.7145    2.6812    0.0000 C   0  0  0  0  0  0  0  2  0  0  0  0
   -0.7145    1.8563    0.0000 C   0  0  0  0  0  0  0  2  0  0  0  0
  1  2  4  0        0
  2  3  4  0        0
  3  4  4  0        0
  4  5  4  0        0
  5  6  1  0        0
  6  7  2  0        0
  6  8  1  0        0
  8  9  1  0        0
  9 10  1  0        0
 10 11  1  0        0
 11 12  1  0        0
 12 13  1  0        0
 13 14  1  0        0
 14 15  1  0        0
 10 15  1  0        0
  5 16  4  0        0
  1 16  4  0        0
 16 17  1  0        0
 17 18  2  0        0
 17 19  1  0        0
 19 20  1  0        0
 20 21  1  0        0
 21 22  1  0        0
 22 23  1  0        0
 23 24  1  0        0
 24 25  1  0        0
 25 26  1  0        0
 21 26  1  0        0
M  END
$$$$

CDXL12

 10 10  0  0  0  0  0  0  0  0999 V2000
    2.1434   -0.4125    0.0000 C   0  0  0  0  0  0  0  2  0  0  0  0
    1.4289   -0.8250    0.0000 C   0  0  0  0  0  0  0  2  0  0  0  0
    0.7145   -0.4125    0.0000 C   0  0  0  0  0  0  0  2  0  0  0  0
    0.0000   -0.8250    0.0000 C   0  0  0  0  0  0  0  2  0  0  0  0
   -0.7145   -0.4125    0.0000 C   0  0  0  0  0  0  0  2  0  0  0  0
   -0.7145    0.4125    0.0000 C   0  0  0  0  0  0  0  2  0  0  0  0
    0.0000    0.8250    0.0000 C   0  0  0  0  0  0  0  2  0  0  0  0
    0.7145    0.4125    0.0000 C   0  0  0  0  0  0  0  2  0  0  0  0
   -1.4289    0.8250    0.0000 C   0  0  0  0  0  0  0  2  0  0  0  0
   -2.1434    0.4125    0.0000 C   0  0  0  0  0  0  0  2  0  0  0  0
  1  2  2  0        0
  2  3  1  0        0
  3  4  4  0        0
  4  5  4  0        0
  5  6  4  0        0
  6  7  4  0        0
  7  8  4  0        0
  3  8  4  0        0
  6  9  1  0        0
  9 10  1  0        0
M  END
$$$$

CDXL12

 26 28  0  0  0  0  0  0  0  0999 V2000
    0.7145   -1.4438    0.0000 O   0  0  0  0  0  0  0  2  0  0  0  0
    0.7145   -0.6188    0.0000 P   0  0  0  0  0  0  0  2  0  0  0  0
    0.0000   -0.2062    0.0000 O   0  0  0  0  0  0  0  2  0  0  0  0
   -0.7145   -0.6188    0.0000 C   0  0  0  0  0  0  0  2  0  0  0  0
   -1.4289   -0.2062    0.0000 C   0  0  0  0  0  0  0  2  0  0  0  0
   -2.1434   -0.6187    0.0000 C   0  0  0  0  0  0  0  2  0  0  0  0
   -2.1434   -1.4437    0.0000 C   0  0  0  0  0  0  0  2  0  0  0  0
   -1.4289   -1.8562    0.0000 C   0  0  0  0  0  0  0  2  0  0  0  0
   -0.7145   -1.4438    0.0000 C   0  0  0  0  0  0  0  2  0  0  0  0
   -2.8579   -0.2062    0.0000 C   0  0  0  0  0  0  0  2  0  0  0  0
   -2.8579    0.6188    0.0000 C   0  0  0  0  0  0  0  2  0  0  0  0
   -3.5724   -0.6187    0.0000 C   0  0  0  0  0  0  0  2  0  0  0  0
    1.4289   -0.2062    0.0000 O   0  0  0  0  0  0  0  2  0  0  0  0
    2.1434   -0.6188    0.0000 C   0  0  0  0  0  0  0  2  0  0  0  0
    2.8579   -0.2062    0.0000 C   0  0  0  0  0  0  0  2  0  0  0  0
    3.5724   -0.6188    0.0000 C   0  0  0  0  0  0  0  2  0  0  0  0
    3.5724   -1.4438    0.0000 C   0  0  0  0  0  0  0  2  0  0  0  0
    2.8579   -1.8563    0.0000 C   0  0  0  0  0  0  0  2  0  0  0  0
    2.1434   -1.4438    0.0000 C   0  0  0  0  0  0  0  2  0  0  0  0
    0.7145    0.2062    0.0000 O   0  0  0  0  0  0  0  2  0  0  0  0
    0.0000    0.6188    0.0000 C   0  0  0  0  0  0  0  2  0  0  0  0
   -0.7145    0.2062    0.0000 C   0  0  0  0  0  0  0  2  0  0  0  0
   -1.4289    0.6187    0.0000 C   0  0  0  0  0  0  0  2  0  0  0  0
   -1.4289    1.4438    0.0000 C   0  0  0  0  0  0  0  2  0  0  0  0
   -0.7145    1.8563    0.0000 C   0  0  0  0  0  0  0  2  0  0  0  0
    0.0000    1.4438    0.0000 C   0  0  0  0  0  0  0  2  0  0  0  0
  1  2  2  0        0
  2  3  1  0        0
  3  4  1  0        0
  4  5  4  0        0
  5  6  4  0        0
  6  7  4  0        0
  7  8  4  0        0
  8  9  4  0        0
  4  9  4  0        0
  6 10  1  0        0
 10 11  1  0        0
 10 12  1  0        0
  2 13  1  0        0
 13 14  1  0        0
 14 15  4  0        0
 15 16  4  0        0
 16 17  4  0        0
 17 18  4  0        0
 18 19  4  0        0
 14 19  4  0        0
  2 20  1  0        0
 20 21  1  0        0
 21 22  4  0        0
 22 23  4  0        0
 23 24  4  0        0
 24 25  4  0        0
 25 26  4  0        0
 21 26  4  0        0
M  END
$$$$

CDXL12

 17 18  0  0  0  0  0  0  0  0999 V2000
    0.7697    0.2062    0.0000 N   0  0  0  0  0  0  0  2  0  0  0  0
    0.0553   -0.2062    0.0000 C   0  0  0  0  0  0  0  2  0  0  0  0
    0.0553   -1.0312    0.0000 S   0  0  0  0  0  0  0  2  0  0  0  0
   -0.6592   -1.4437    0.0000 C   0  0  0  0  0  0  0  2  0  0  0  0
   -0.6592    0.2062    0.0000 N   0  0  0  0  0  0  0  2  0  0  0  0
   -0.6592    1.0312    0.0000 C   0  0  0  0  0  0  0  2  0  0  0  0
   -1.3737    1.4437    0.0000 N   0  0  0  0  0  0  0  2  0  0  0  0
   -2.0881    1.0312    0.0000 C   0  0  0  0  0  0  0  2  0  0  0  0
   -2.5006    0.3168    0.0000 C   0  0  0  0  0  0  0  2  0  0  0  0
   -2.9131    1.0312    0.0000 C   0  0  0  0  0  0  0  2  0  0  0  0
    0.0553    1.4437    0.0000 N   0  0  0  0  0  0  0  2  0  0  0  0
    0.7697    1.0312    0.0000 C   0  0  0  0  0  0  0  2  0  0  0  0
    1.4842    1.4437    0.0000 N   0  0  0  0  0  0  0  2  0  0  0  0
    2.1987    1.0312    0.0000 C   0  0  0  0  0  0  0  2  0  0  0  0
    2.9131    0.6187    0.0000 C   0  0  0  0  0  0  0  2  0  0  0  0
    2.1987    0.2062    0.0000 C   0  0  0  0  0  0  0  2  0  0  0  0
    2.9131    1.4437    0.0000 C   0  0  0  0  0  0  0  2  0  0  0  0
  1  2  4  0        0
  2  3  1  0        0
  3  4  1  0        0
  2  5  4  0        0
  5  6  4  0        0
  6  7  1  0        0
  7  8  1  0        0
  8  9  1  0        0
  9 10  1  0        0
  8 10  1  0        0
  6 11  4  0        0
 11 12  4  0        0
  1 12  4  0        0
 12 13  1  0        0
 13 14  1  0        0
 14 15  1  0        0
 14 16  1  0        0
 14 17  1  0        0
M  END
$$$$

CDXL12

 14 14  0  0  0  0  0  0  0  0999 V2000
    1.0717   -0.4125    0.0000 C   0  0  0  0  0  0  0  2  0  0  0  0
    1.7862    0.0000    0.0000 C   0  0  0  0  0  0  0  2  0  0  0  0
    1.7862    0.8250    0.0000 C   0  0  0  0  0  0  0  2  0  0  0  0
    2.5006    1.2375    0.0000 Cl  0  0  0  0  0  0  0  2  0  0  0  0
    1.0717    1.2375    0.0000 C   0  0  0  0  0  0  0  2  0  0  0  0
    0.3572    0.8250    0.0000 C   0  0  0  0  0  0  0  2  0  0  0  0
   -0.3572    1.2375    0.0000 C   0  0  0  0  0  0  0  2  0  0  0  0
    0.3572    0.0000    0.0000 C   0  0  0  0  0  0  0  2  0  0  0  0
   -0.3572   -0.4125    0.0000 N   0  0  0  0  0  0  0  2  0  0  0  0
   -1.0717    0.0000    0.0000 C   0  0  0  0  0  0  0  2  0  0  0  0
   -1.0717    0.8250    0.0000 S   0  0  0  0  0  0  0  2  0  0  0  0
   -1.7862   -0.4125    0.0000 N   0  0  0  0  0  0  0  2  0  0  0  0
   -1.7862   -1.2375    0.0000 C   0  0  0  0  0  0  0  2  0  0  0  0
   -2.5006    0.0000    0.0000 C   0  0  0  0  0  0  0  2  0  0  0  0
  1  2  4  0        0
  2  3  4  0        0
  3  4  1  0        0
  3  5  4  0        0
  5  6  4  0        0
  6  7  1  0        0
  6  8  4  0        0
  1  8  4  0        0
  8  9  1  0        0
  9 10  1  0        0
 10 11  2  0        0
 10 12  1  0        0
 12 13  1  0        0
 12 14  1  0        0
M  END
$$$$

CDXL12

 16 16  0  0  0  0  0  0  0  0999 V2000
   -3.2151   -0.0000    0.0000 C   0  0  0  0  0  0  0  2  0  0  0  0
   -2.5006    0.4125    0.0000 C   0  0  0  0  0  0  0  2  0  0  0  0
   -1.7862   -0.0000    0.0000 N   0  0  0  0  0  0  0  2  0  0  0  0
   -1.7862   -0.8250    0.0000 C   0  0  0  0  0  0  0  2  0  0  0  0
   -2.5006   -1.2375    0.0000 C   0  0  0  0  0  0  0  2  0  0  0  0
   -1.0717    0.4125    0.0000 C   0  0  0  0  0  0  0  2  0  0  0  0
   -1.0717    1.2375    0.0000 O   0  0  0  0  0  0  0  2  0  0  0  0
   -0.3572   -0.0000    0.0000 S   0  0  0  0  0  0  0  2  0  0  0  0
    0.3572    0.4125    0.0000 C   0  0  0  0  0  0  0  2  0  0  0  0
    1.0717   -0.0000    0.0000 C   0  0  0  0  0  0  0  2  0  0  0  0
    1.7862    0.4125    0.0000 C   0  0  0  0  0  0  0  2  0  0  0  0
    2.5006   -0.0000    0.0000 C   0  0  0  0  0  0  0  2  0  0  0  0
    2.5006   -0.8250    0.0000 C   0  0  0  0  0  0  0  2  0  0  0  0
    3.2151   -1.2375    0.0000 Cl  0  0  0  0  0  0  0  2  0  0  0  0
    1.7862   -1.2375    0.0000 C   0  0  0  0  0  0  0  2  0  0  0  0
    1.0717   -0.8250    0.0000 C   0  0  0  0  0  0  0  2  0  0  0  0
  1  2  1  0        0
  2  3  1  0        0
  3  4  1  0        0
  4  5  1  0        0
  3  6  1  0        0
  6  7  2  0        0
  6  8  1  0        0
  8  9  1  0        0
  9 10  1  0        0
 10 11  4  0        0
 11 12  4  0        0
 12 13  4  0        0
 13 14  1  0        0
 13 15  4  0        0
 15 16  4  0        0
 10 16  4  0        0
M  END
$$$$

CDXL12

 12 13  0  0  0  0  0  0  0  0999 V2000
    2.1434    0.4125    0.0000 K   0  0  0  0  0  0  0  2  0  0  0  0
    1.4289   -0.0000    0.0000 O   0  0  0  0  0  0  0  2  0  0  0  0
    0.7145    0.4125    0.0000 C   0  0  0  0  0  0  0  2  0  0  0  0
    0.7145    1.2375    0.0000 O   0  0  0  0  0  0  0  2  0  0  0  0
    0.0000   -0.0000    0.0000 C   0  0  0  0  0  0  0  2  0  0  0  0
    0.0000   -0.8250    0.0000 O   0  0  0  0  0  0  0  2  0  0  0  0
   -0.7145   -1.2375    0.0000 Sb  0  0  0  0  0  0  0  2  0  0  0  0
   -1.0510   -0.4125    0.0000 O   0  0  0  0  0  0  0  2  0  0  0  0
   -0.7145    0.4125    0.0000 C   0  0  0  0  0  0  0  2  0  0  0  0
   -1.4289   -0.0000    0.0000 C   0  0  0  0  0  0  0  2  0  0  0  0
   -2.1434    0.4125    0.0000 O   0  0  0  0  0  0  0  2  0  0  0  0
   -1.4289   -0.8250    0.0000 O   0  0  0  0  0  0  0  2  0  0  0  0
  1  2  1  0        0
  2  3  1  0        0
  3  4  2  0        0
  3  5  1  0        0
  5  6  1  0        0
  6  7  1  0        0
  7  8  1  0        0
  8  9  1  0        0
  5  9  1  0        0
  9 10  1  0        0
 10 11  2  0        0
 10 12  1  0        0
  7 12  1  0        0
M  END
$$$$

CDXL12

 35 39  0  0  0  0  0  0  0  0999 V2000
    2.8579    2.2687    0.0000 C   0  0  0  0  0  0  0  2  0  0  0  0
    3.5724    2.6812    0.0000 C   0  0  0  0  0  0  0  2  0  0  0  0
    4.2868    2.2687    0.0000 C   0  0  0  0  0  0  0  2  0  0  0  0
    5.0013    2.6812    0.0000 Br  0  0  0  0  0  0  0  2  0  0  0  0
    4.2868    1.4437    0.0000 C   0  0  0  0  0  0  0  2  0  0  0  0
    3.5724    1.0312    0.0000 C   0  0  0  0  0  0  0  2  0  0  0  0
    2.8579    1.4437    0.0000 C   0  0  0  0  0  0  0  2  0  0  0  0
    2.1434    1.0312    0.0000 C   0  0  0  0  0  0  0  2  0  0  0  0
    2.1434    0.2063    0.0000 C   0  0  0  0  0  0  0  2  0  0  0  0
    1.4289   -0.2062    0.0000 C   0  0  0  0  0  0  0  2  0  0  0  0
    0.7145    0.2063    0.0000 C   0  0  0  0  0  0  0  2  0  0  0  0
    0.7145    1.0312    0.0000 C   0  0  0  0  0  0  0  2  0  0  0  0
    1.4289    1.4437    0.0000 C   0  0  0  0  0  0  0  2  0  0  0  0
    0.0000   -0.2062    0.0000 C   0  0  0  0  0  0  0  2  0  0  0  0
    0.0000   -1.0312    0.0000 O   0  0  0  0  0  0  0  2  0  0  0  0
   -0.7145    0.2063    0.0000 C   0  0  0  0  0  0  0  2  0  0  0  0
   -1.4289   -0.2062    0.0000 C   0  0  0  0  0  0  0  2  0  0  0  0
   -1.4289   -1.0312    0.0000 C   0  0  0  0  0  0  0  2  0  0  0  0
   -0.7145   -1.4437    0.0000 C   0  0  0  0  0  0  0  2  0  0  0  0
   -0.7145   -2.2687    0.0000 C   0  0  0  0  0  0  0  2  0  0  0  0
   -1.4289   -2.6812    0.0000 C   0  0  0  0  0  0  0  2  0  0  0  0
   -2.1434   -2.2687    0.0000 C   0  0  0  0  0  0  0  2  0  0  0  0
   -2.1434   -1.4437    0.0000 C   0  0  0  0  0  0  0  2  0  0  0  0
   -2.1434    0.2063    0.0000 C   0  0  0  0  0  0  0  2  0  0  0  0
   -2.8579   -0.2062    0.0000 C   0  0  0  0  0  0  0  2  0  0  0  0
   -2.8579   -1.0312    0.0000 O   0  0  0  0  0  0  0  2  0  0  0  0
   -3.5724    0.2063    0.0000 C   0  0  0  0  0  0  0  2  0  0  0  0
   -4.2868   -0.2062    0.0000 C   0  0  0  0  0  0  0  2  0  0  0  0
   -5.0013    0.2063    0.0000 C   0  0  0  0  0  0  0  2  0  0  0  0
   -5.0013    1.0313    0.0000 C   0  0  0  0  0  0  0  2  0  0  0  0
   -4.2868    1.4438    0.0000 C   0  0  0  0  0  0  0  2  0  0  0  0
   -3.5724    1.0313    0.0000 C   0  0  0  0  0  0  0  2  0  0  0  0
   -2.8579    1.4437    0.0000 O   0  0  0  0  0  0  0  2  0  0  0  0
   -2.1434    1.0312    0.0000 C   0  0  0  0  0  0  0  2  0  0  0  0
   -1.4289    1.4437    0.0000 O   0  0  0  0  0  0  0  2  0  0  0  0
  1  2  4  0        0
  2  3  4  0        0
  3  4  1  0        0
  3  5  4  0        0
  5  6  4  0        0
  6  7  4  0        0
  1  7  4  0        0
  7  8  1  0        0
  8  9  4  0        0
  9 10  4  0        0
 10 11  4  0        0
 11 12  4  0        0
 12 13  4  0        0
  8 13  4  0        0
 11 14  1  0        0
 14 15  1  0        0
 14 16  1  0        0
 16 17  1  0        0
 17 18  1  0        0
 18 19  4  0        0
 19 20  4  0        0
 20 21  4  0        0
 21 22  4  0        0
 22 23  4  0        0
 18 23  4  0        0
 17 24  1  0        0
 24 25  2  0        0
 25 26  1  0        0
 25 27  1  0        0
 27 28  4  0        0
 28 29  4  0        0
 29 30  4  0        0
 30 31  4  0        0
 31 32  4  0        0
 27 32  4  0        0
 32 33  1  0        0
 33 34  1  0        0
 24 34  1  0        0
 34 35  2  0        0
M  END
$$$$

CDXL12

 16 18  0  0  0  0  0  0  0  0999 V2000
   -1.3492    0.8250    0.0000 O   0  0  0  0  0  0  0  2  0  0  0  0
   -1.3492    0.0000    0.0000 C   0  0  0  0  0  0  0  2  0  0  0  0
   -0.6348   -0.4125    0.0000 N   0  0  0  0  0  0  0  2  0  0  0  0
    0.0797    0.0000    0.0000 C   0  0  0  0  0  0  0  2  0  0  0  0
    0.7942   -0.4125    0.0000 C   0  0  0  0  0  0  0  2  0  0  0  0
    1.5086    0.0000    0.0000 C   0  0  0  0  0  0  0  2  0  0  0  0
    2.2933   -0.2549    0.0000 C   0  0  0  0  0  0  0  2  0  0  0  0
    2.7782    0.4125    0.0000 C   0  0  0  0  0  0  0  2  0  0  0  0
    2.2933    1.0799    0.0000 C   0  0  0  0  0  0  0  2  0  0  0  0
    1.5086    0.8250    0.0000 C   0  0  0  0  0  0  0  2  0  0  0  0
    0.7942    1.2375    0.0000 C   0  0  0  0  0  0  0  2  0  0  0  0
    0.0797    0.8250    0.0000 C   0  0  0  0  0  0  0  2  0  0  0  0
    0.4576    0.4125    0.0000 C   0  0  0  0  0  0  0  2  0  0  0  0
   -2.0637   -0.4125    0.0000 N   0  0  0  0  0  0  0  2  0  0  0  0
   -2.0637   -1.2375    0.0000 C   0  0  0  0  0  0  0  2  0  0  0  0
   -2.7782    0.0000    0.0000 C   0  0  0  0  0  0  0  2  0  0  0  0
  1  2  2  0        0
  2  3  1  0        0
  3  4  1  0        0
  4  5  1  0        0
  5  6  1  0        0
  6  7  1  0        0
  7  8  1  0        0
  8  9  1  0        0
  9 10  1  0        0
  6 10  1  0        0
 10 11  1  0        0
 11 12  1  0        0
  4 12  1  0        0
 11 13  1  0        0
  5 13  1  0        0
  2 14  1  0        0
 14 15  1  0        0
 14 16  1  0        0
M  END
$$$$

CDXL12

 16 16  0  0  0  0  0  0  0  0999 V2000
   -2.1434    0.8250    0.0000 Cl  0  0  0  0  0  0  0  2  0  0  0  0
   -1.4289    0.4125    0.0000 C   0  0  0  0  0  0  0  2  0  0  0  0
   -0.7145    0.8250    0.0000 C   0  0  0  0  0  0  0  2  0  0  0  0
   -0.7145    1.6500    0.0000 Cl  0  0  0  0  0  0  0  2  0  0  0  0
    0.0000    0.4125    0.0000 C   0  0  0  0  0  0  0  2  0  0  0  0
    0.7145    0.8250    0.0000 Cl  0  0  0  0  0  0  0  2  0  0  0  0
    0.0000   -0.4125    0.0000 C   0  0  0  0  0  0  0  2  0  0  0  0
    0.7145   -0.8250    0.0000 C   0  0  0  0  0  0  0  2  0  0  0  0
    0.7145   -1.6500    0.0000 Cl  0  0  0  0  0  0  0  2  0  0  0  0
    1.4289   -0.4125    0.0000 C   0  0  0  0  0  0  0  2  0  0  0  0
    1.4289    0.4125    0.0000 Cl  0  0  0  0  0  0  0  2  0  0  0  0
    2.1434   -0.8250    0.0000 Cl  0  0  0  0  0  0  0  2  0  0  0  0
   -0.7145   -0.8250    0.0000 C   0  0  0  0  0  0  0  2  0  0  0  0
   -1.4289   -0.4125    0.0000 C   0  0  0  0  0  0  0  2  0  0  0  0
   -2.1434   -0.8250    0.0000 Cl  0  0  0  0  0  0  0  2  0  0  0  0
   -0.7145   -1.6500    0.0000 Cl  0  0  0  0  0  0  0  2  0  0  0  0
  1  2  1  0        0
  2  3  4  0        0
  3  4  1  0        0
  3  5  4  0        0
  5  6  1  0        0
  5  7  4  0        0
  7  8  1  0        0
  8  9  1  0        0
  8 10  2  0        0
 10 11  1  0        0
 10 12  1  0        0
  7 13  4  0        0
 13 14  4  0        0
  2 14  4  0        0
 14 15  1  0        0
 13 16  1  0        0
M  END
$$$$

CDXL12

 22 22  0  0  0  0  0  0  0  0999 V2000
   -0.7145    2.6812    0.0000 C   0  0  0  0  0  0  0  2  0  0  0  0
   -0.7145    1.8562    0.0000 C   0  0  0  0  0  0  0  2  0  0  0  0
    0.0000    1.4438    0.0000 N   0  0  0  0  0  0  0  2  0  0  0  0
    0.7145    1.8563    0.0000 C   0  0  0  0  0  0  0  2  0  0  0  0
    0.7145    2.6812    0.0000 C   0  0  0  0  0  0  0  2  0  0  0  0
    0.0000    0.6188    0.0000 C   0  0  0  0  0  0  0  2  0  0  0  0
    0.7145    0.2062    0.0000 C   0  0  0  0  0  0  0  2  0  0  0  0
    0.7145   -0.6188    0.0000 C   0  0  0  0  0  0  0  2  0  0  0  0
    0.0000   -1.0313    0.0000 C   0  0  0  0  0  0  0  2  0  0  0  0
   -0.7145   -0.6188    0.0000 C   0  0  0  0  0  0  0  2  0  0  0  0
   -1.4289   -1.0313    0.0000 N   0  0  0  0  0  0  0  2  0  0  0  0
   -0.7145    0.2062    0.0000 C   0  0  0  0  0  0  0  2  0  0  0  0
   -1.4289    0.6188    0.0000 N   0  0  0  0  0  0  0  2  0  0  0  0
   -1.4289    1.4438    0.0000 O   0  0  0  0  0  0  0  2  0  0  0  0
   -2.1434    0.2062    0.0000 O   0  0  0  0  0  0  0  2  0  0  0  0
    0.0000   -1.8563    0.0000 C   0  0  0  0  0  0  0  2  0  0  0  0
   -0.7145   -2.2687    0.0000 F   0  0  0  0  0  0  0  2  0  0  0  0
    0.0000   -2.6812    0.0000 F   0  0  0  0  0  0  0  2  0  0  0  0
    0.7145   -2.2687    0.0000 F   0  0  0  0  0  0  0  2  0  0  0  0
    1.4289    0.6188    0.0000 N   0  0  0  0  0  0  0  2  0  0  0  0
    1.4289    1.4438    0.0000 O   0  0  0  0  0  0  0  2  0  0  0  0
    2.1434    0.2062    0.0000 O   0  0  0  0  0  0  0  2  0  0  0  0
  1  2  1  0        0
  2  3  1  0        0
  3  4  1  0        0
  4  5  1  0        0
  3  6  1  0        0
  6  7  4  0        0
  7  8  4  0        0
  8  9  4  0        0
  9 10  4  0        0
 10 11  1  0        0
 10 12  4  0        0
  6 12  4  0        0
 12 13  1  0        0
 13 14  2  0        0
 13 15  2  0        0
  9 16  1  0        0
 16 17  1  0        0
 16 18  1  0        0
 16 19  1  0        0
  7 20  1  0        0
 20 21  2  0        0
 20 22  2  0        0
M  END
$$$$

CDXL12

 24 24  0  0  0  0  0  0  0  0999 V2000
   -1.4289    1.2375    0.0000 O   0  0  0  0  0  0  0  2  0  0  0  0
   -1.4289    0.4125    0.0000 N   0  0  0  0  0  0  0  2  0  0  0  0
   -2.1434    0.0000    0.0000 O   0  0  0  0  0  0  0  2  0  0  0  0
   -0.7145    0.0000    0.0000 C   0  0  0  0  0  0  0  2  0  0  0  0
    0.0000    0.4125    0.0000 C   0  0  0  0  0  0  0  2  0  0  0  0
    0.0000    1.2375    0.0000 N   0  0  0  0  0  0  0  2  0  0  0  0
    0.7145    1.6500    0.0000 C   0  0  0  0  0  0  0  2  0  0  0  0
    0.7145    2.4750    0.0000 C   0  0  0  0  0  0  0  2  0  0  0  0
    1.4289    2.8875    0.0000 C   0  0  0  0  0  0  0  2  0  0  0  0
   -0.7145    1.6500    0.0000 C   0  0  0  0  0  0  0  2  0  0  0  0
   -0.7145    2.4750    0.0000 C   0  0  0  0  0  0  0  2  0  0  0  0
   -1.4289    2.8875    0.0000 C   0  0  0  0  0  0  0  2  0  0  0  0
    0.7145    0.0000    0.0000 C   0  0  0  0  0  0  0  2  0  0  0  0
    1.4289    0.4125    0.0000 N   0  0  0  0  0  0  0  2  0  0  0  0
    1.4289    1.2375    0.0000 O   0  0  0  0  0  0  0  2  0  0  0  0
    2.1434    0.0000    0.0000 O   0  0  0  0  0  0  0  2  0  0  0  0
    0.7145   -0.8250    0.0000 C   0  0  0  0  0  0  0  2  0  0  0  0
    1.4289   -1.2375    0.0000 N   0  0  0  0  0  0  0  2  0  0  0  0
    0.0000   -1.2375    0.0000 C   0  0  0  0  0  0  0  2  0  0  0  0
    0.0000   -2.0625    0.0000 C   0  0  0  0  0  0  0  2  0  0  0  0
   -0.7145   -2.4750    0.0000 F   0  0  0  0  0  0  0  2  0  0  0  0
    0.0000   -2.8875    0.0000 F   0  0  0  0  0  0  0  2  0  0  0  0
    0.7145   -2.4750    0.0000 F   0  0  0  0  0  0  0  2  0  0  0  0
   -0.7145   -0.8250    0.0000 C   0  0  0  0  0  0  0  2  0  0  0  0
  1  2  2  0        0
  2  3  2  0        0
  2  4  1  0        0
  4  5  4  0        0
  5  6  1  0        0
  6  7  1  0        0
  7  8  1  0        0
  8  9  1  0        0
  6 10  1  0        0
 10 11  1  0        0
 11 12  1  0        0
  5 13  4  0        0
 13 14  1  0        0
 14 15  2  0        0
 14 16  2  0        0
 13 17  4  0        0
 17 18  1  0        0
 17 19  4  0        0
 19 20  1  0        0
 20 21  1  0        0
 20 22  1  0        0
 20 23  1  0        0
 19 24  4  0        0
  4 24  4  0        0
M  END
$$$$

CDXL12

 15 14  0  0  0  0  0  0  0  0999 V2000
    3.2151    0.2062    0.0000 C   0  0  0  0  0  0  0  2  0  0  0  0
    2.5006   -0.2062    0.0000 O   0  0  0  0  0  0  0  2  0  0  0  0
    1.7862    0.2062    0.0000 C   0  0  0  0  0  0  0  2  0  0  0  0
    1.7862    1.0313    0.0000 O   0  0  0  0  0  0  0  2  0  0  0  0
    1.0717   -0.2062    0.0000 N   0  0  0  0  0  0  0  2  0  0  0  0
    1.0717   -1.0313    0.0000 C   0  0  0  0  0  0  0  2  0  0  0  0
    0.3572    0.2062    0.0000 C   0  0  0  0  0  0  0  2  0  0  0  0
    0.3572    1.0313    0.0000 O   0  0  0  0  0  0  0  2  0  0  0  0
   -0.3572   -0.2062    0.0000 C   0  0  0  0  0  0  0  2  0  0  0  0
   -1.0717    0.2062    0.0000 S   0  0  0  0  0  0  0  2  0  0  0  0
   -1.7862   -0.2062    0.0000 P   0  0  0  0  0  0  0  2  0  0  0  0
   -1.7862   -1.0313    0.0000 S   0  0  0  0  0  0  0  2  0  0  0  0
   -1.7862    0.6187    0.0000 C   0  0  0  0  0  0  0  2  0  0  0  0
   -2.5006    0.2062    0.0000 O   0  0  0  0  0  0  0  2  0  0  0  0
   -3.2151   -0.2062    0.0000 C   0  0  0  0  0  0  0  2  0  0  0  0
  1  2  1  0        0
  2  3  1  0        0
  3  4  2  0        0
  3  5  1  0        0
  5  6  1  0        0
  5  7  1  0        0
  7  8  2  0        0
  7  9  1  0        0
  9 10  1  0        0
 10 11  1  0        0
 11 12  2  0        0
 11 13  1  0        0
 11 14  1  0        0
 14 15  1  0        0
M  END
$$$$

CDXL12

 13 14  0  0  0  0  0  0  0  0999 V2000
    0.0000    1.4438    0.0000 C   0  0  0  0  0  0  0  2  0  0  0  0
    0.7145    1.0313    0.0000 C   0  0  0  0  0  0  0  2  0  0  0  0
    0.7145    0.2062    0.0000 C   0  0  0  0  0  0  0  2  0  0  0  0
    1.4289   -0.2062    0.0000 C   0  0  0  0  0  0  0  2  0  0  0  0
    1.4289   -1.0312    0.0000 C   0  0  0  0  0  0  0  2  0  0  0  0
    0.7145   -1.4437    0.0000 C   0  0  0  0  0  0  0  2  0  0  0  0
    0.0000   -1.0313    0.0000 C   0  0  0  0  0  0  0  2  0  0  0  0
    0.0000   -0.2062    0.0000 C   0  0  0  0  0  0  0  2  0  0  0  0
   -0.7145    0.2062    0.0000 C   0  0  0  0  0  0  0  2  0  0  0  0
   -1.4289   -0.2063    0.0000 C   0  0  0  0  0  0  0  2  0  0  0  0
   -1.4289   -1.0313    0.0000 C   0  0  0  0  0  0  0  2  0  0  0  0
   -0.7145   -1.4438    0.0000 C   0  0  0  0  0  0  0  2  0  0  0  0
    1.4289    1.4438    0.0000 C   0  0  0  0  0  0  0  2  0  0  0  0
  1  2  1  0        0
  2  3  1  0        0
  3  4  4  0        0
  4  5  4  0        0
  5  6  4  0        0
  6  7  4  0        0
  7  8  4  0        0
  3  8  4  0        0
  8  9  4  0        0
  9 10  4  0        0
 10 11  4  0        0
 11 12  4  0        0
  7 12  4  0        0
  2 13  1  0        0
M  END
$$$$

CDXL12

 10  9  0  0  0  0  0  0  0  0999 V2000
   -2.1434   -0.0000    0.0000 C   0  0  0  0  0  0  0  2  0  0  0  0
   -1.4289    0.4125    0.0000 C   0  0  0  0  0  0  0  2  0  0  0  0
   -0.7145   -0.0000    0.0000 N   0  0  0  0  0  0  0  2  0  0  0  0
   -0.7145   -0.8250    0.0000 C   0  0  0  0  0  0  0  2  0  0  0  0
   -1.4289   -1.2375    0.0000 C   0  0  0  0  0  0  0  2  0  0  0  0
    0.0000    0.4125    0.0000 C   0  0  0  0  0  0  0  2  0  0  0  0
    0.0000    1.2375    0.0000 S   0  0  0  0  0  0  0  2  0  0  0  0
    0.7145   -0.0000    0.0000 N   0  0  0  0  0  0  0  2  0  0  0  0
    1.4289    0.4125    0.0000 C   0  0  0  0  0  0  0  2  0  0  0  0
    2.1434   -0.0000    0.0000 C   0  0  0  0  0  0  0  2  0  0  0  0
  1  2  1  0        0
  2  3  1  0        0
  3  4  1  0        0
  4  5  1  0        0
  3  6  1  0        0
  6  7  2  0        0
  6  8  1  0        0
  8  9  1  0        0
  9 10  1  0        0
M  END
$$$$

CDXL12

 16 18  0  0  0  0  0  0  0  0999 V2000
   -2.5006   -0.4125    0.0000 C   0  0  0  0  0  0  0  2  0  0  0  0
   -2.5006    0.4125    0.0000 C   0  0  0  0  0  0  0  2  0  0  0  0
   -1.7862    0.8250    0.0000 C   0  0  0  0  0  0  0  2  0  0  0  0
   -1.0717    0.4125    0.0000 C   0  0  0  0  0  0  0  2  0  0  0  0
   -0.3572    0.8250    0.0000 O   0  0  0  0  0  0  0  2  0  0  0  0
    0.3572    0.4125    0.0000 C   0  0  0  0  0  0  0  2  0  0  0  0
    1.0717    0.8250    0.0000 C   0  0  0  0  0  0  0  2  0  0  0  0
    1.7862    0.4125    0.0000 C   0  0  0  0  0  0  0  2  0  0  0  0
    2.5006    0.8250    0.0000 Cl  0  0  0  0  0  0  0  2  0  0  0  0
    1.7862   -0.4125    0.0000 C   0  0  0  0  0  0  0  2  0  0  0  0
    2.5006   -0.8250    0.0000 Cl  0  0  0  0  0  0  0  2  0  0  0  0
    1.0717   -0.8250    0.0000 C   0  0  0  0  0  0  0  2  0  0  0  0
    0.3572   -0.4125    0.0000 C   0  0  0  0  0  0  0  2  0  0  0  0
   -0.3572   -0.8250    0.0000 O   0  0  0  0  0  0  0  2  0  0  0  0
   -1.0717   -0.4125    0.0000 C   0  0  0  0  0  0  0  2  0  0  0  0
   -1.7862   -0.8250    0.0000 C   0  0  0  0  0  0  0  2  0  0  0  0
  1  2  4  0        0
  2  3  4  0        0
  3  4  4  0        0
  4  5  1  0        0
  5  6  1  0        0
  6  7  4  0        0
  7  8  4  0        0
  8  9  1  0        0
  8 10  4  0        0
 10 11  1  0        0
 10 12  4  0        0
 12 13  4  0        0
  6 13  4  0        0
 13 14  1  0        0
 14 15  1  0        0
  4 15  4  0        0
 15 16  4  0        0
  1 16  4  0        0
M  END
$$$$

CDXL12

 27 28  0  0  0  0  0  0  0  0999 V2000
   -2.1434   -1.4437    0.0000 O   0  0  0  0  0  0  0  2  0  0  0  0
   -2.1434   -0.6187    0.0000 P   0  0  0  0  0  0  0  2  0  0  0  0
   -2.8579   -0.2062    0.0000 O   0  0  0  0  0  0  0  2  0  0  0  0
   -3.5724   -0.6187    0.0000 C   0  0  0  0  0  0  0  2  0  0  0  0
   -3.5724   -1.4437    0.0000 C   0  0  0  0  0  0  0  2  0  0  0  0
   -4.2868   -1.8563    0.0000 C   0  0  0  0  0  0  0  2  0  0  0  0
   -5.0013   -1.4438    0.0000 C   0  0  0  0  0  0  0  2  0  0  0  0
   -5.0013   -0.6188    0.0000 C   0  0  0  0  0  0  0  2  0  0  0  0
   -4.2868   -0.2062    0.0000 C   0  0  0  0  0  0  0  2  0  0  0  0
   -2.1434    0.2062    0.0000 O   0  0  0  0  0  0  0  2  0  0  0  0
   -2.8579    0.6188    0.0000 C   0  0  0  0  0  0  0  2  0  0  0  0
   -3.5724    0.2062    0.0000 C   0  0  0  0  0  0  0  2  0  0  0  0
   -4.2868    0.6188    0.0000 C   0  0  0  0  0  0  0  2  0  0  0  0
   -4.2868    1.4438    0.0000 C   0  0  0  0  0  0  0  2  0  0  0  0
   -3.5724    1.8563    0.0000 C   0  0  0  0  0  0  0  2  0  0  0  0
   -2.8579    1.4438    0.0000 C   0  0  0  0  0  0  0  2  0  0  0  0
   -1.4289   -0.2062    0.0000 O   0  0  0  0  0  0  0  2  0  0  0  0
   -0.7145   -0.6187    0.0000 C   0  0  0  0  0  0  0  2  0  0  0  0
    0.0000   -0.2062    0.0000 C   0  0  0  0  0  0  0  2  0  0  0  0
    0.7145   -0.6187    0.0000 C   0  0  0  0  0  0  0  2  0  0  0  0
    1.4289   -0.2062    0.0000 C   0  0  0  0  0  0  0  2  0  0  0  0
    2.1434   -0.6187    0.0000 C   0  0  0  0  0  0  0  2  0  0  0  0
    2.8579   -0.2062    0.0000 C   0  0  0  0  0  0  0  2  0  0  0  0
    3.5724   -0.6187    0.0000 C   0  0  0  0  0  0  0  2  0  0  0  0
    4.2868   -0.2062    0.0000 C   0  0  0  0  0  0  0  2  0  0  0  0
    4.2868    0.6188    0.0000 C   0  0  0  0  0  0  0  2  0  0  0  0
    5.0013   -0.6187    0.0000 C   0  0  0  0  0  0  0  2  0  0  0  0
  1  2  2  0        0
  2  3  1  0        0
  3  4  1  0        0
  4  5  4  0        0
  5  6  4  0        0
  6  7  4  0        0
  7  8  4  0        0
  8  9  4  0        0
  4  9  4  0        0
  2 10  1  0        0
 10 11  1  0        0
 11 12  4  0        0
 12 13  4  0        0
 13 14  4  0        0
 14 15  4  0        0
 15 16  4  0        0
 11 16  4  0        0
  2 17  1  0        0
 17 18  1  0        0
 18 19  1  0        0
 19 20  1  0        0
 20 21  1  0        0
 21 22  1  0        0
 22 23  1  0        0
 23 24  1  0        0
 24 25  1  0        0
 25 26  1  0        0
 25 27  1  0        0
M  END
$$$$

CDXL12

 15 15  0  0  0  0  0  0  0  0999 V2000
   -2.1434   -0.8250    0.0000 C   0  0  0  0  0  0  0  2  0  0  0  0
   -1.4289   -0.4125    0.0000 C   0  0  0  0  0  0  0  2  0  0  0  0
   -0.7145   -0.8250    0.0000 S   0  0  0  0  0  0  0  2  0  0  0  0
    0.0000   -0.4125    0.0000 C   0  0  0  0  0  0  0  2  0  0  0  0
    0.7145   -0.8250    0.0000 C   0  0  0  0  0  0  0  2  0  0  0  0
    0.7145   -1.6500    0.0000 C   0  0  0  0  0  0  0  2  0  0  0  0
    1.4289   -2.0625    0.0000 C   0  0  0  0  0  0  0  2  0  0  0  0
    2.1434   -1.6500    0.0000 C   0  0  0  0  0  0  0  2  0  0  0  0
    2.1434   -0.8250    0.0000 C   0  0  0  0  0  0  0  2  0  0  0  0
    1.4289   -0.4125    0.0000 C   0  0  0  0  0  0  0  2  0  0  0  0
    1.4289    0.4125    0.0000 O   0  0  0  0  0  0  0  2  0  0  0  0
    0.7145    0.8250    0.0000 C   0  0  0  0  0  0  0  2  0  0  0  0
    0.0000    0.4125    0.0000 O   0  0  0  0  0  0  0  2  0  0  0  0
    0.7145    1.6500    0.0000 N   0  0  0  0  0  0  0  2  0  0  0  0
    0.0000    2.0625    0.0000 C   0  0  0  0  0  0  0  2  0  0  0  0
  1  2  1  0        0
  2  3  1  0        0
  3  4  1  0        0
  4  5  1  0        0
  5  6  4  0        0
  6  7  4  0        0
  7  8  4  0        0
  8  9  4  0        0
  9 10  4  0        0
  5 10  4  0        0
 10 11  1  0        0
 11 12  1  0        0
 12 13  2  0        0
 12 14  1  0        0
 14 15  1  0        0
M  END
$$$$

CDXL12

  6  7  0  0  0  0  0  0  0  0999 V2000
   -0.3572    0.2062    0.0000 C   0  0  0  0  0  0  0  2  0  0  0  0
    0.3572   -0.2062    0.0000 C   0  0  0  0  0  0  0  2  0  0  0  0
    1.1822   -0.2062    0.0000 O   0  0  0  0  0  0  0  2  0  0  0  0
    0.7697   -0.9207    0.0000 C   0  0  0  0  0  0  0  2  0  0  0  0
   -1.1822    0.2062    0.0000 O   0  0  0  0  0  0  0  2  0  0  0  0
   -0.7697    0.9207    0.0000 C   0  0  0  0  0  0  0  2  0  0  0  0
  1  2  1  0        0
  2  3  1  0        0
  3  4  1  0        0
  2  4  1  0        0
  1  5  1  0        0
  5  6  1  0        0
  1  6  1  0        0
M  END
$$$$

CDXL12

 16 16  0  0  0  0  0  0  0  0999 V2000
   -3.1447   -0.8854    0.0000 C   0  0  0  0  0  0  0  2  0  0  0  0
   -2.6598   -0.2179    0.0000 C   0  0  0  0  0  0  0  2  0  0  0  0
   -1.8393   -0.3042    0.0000 S   0  0  0  0  0  0  0  2  0  0  0  0
   -1.7531    0.5163    0.0000 O   0  0  0  0  0  0  0  2  0  0  0  0
   -1.9256   -1.1246    0.0000 O   0  0  0  0  0  0  0  2  0  0  0  0
   -1.0189   -0.3904    0.0000 C   0  0  0  0  0  0  0  2  0  0  0  0
   -0.6064   -1.1049    0.0000 N   0  0  0  0  0  0  0  2  0  0  0  0
    0.2006   -0.9333    0.0000 N   0  0  0  0  0  0  0  2  0  0  0  0
    0.2869   -0.1129    0.0000 C   0  0  0  0  0  0  0  2  0  0  0  0
    1.0013    0.2996    0.0000 N   0  0  0  0  0  0  0  2  0  0  0  0
    1.0013    1.1246    0.0000 C   0  0  0  0  0  0  0  2  0  0  0  0
    1.7158   -0.1129    0.0000 C   0  0  0  0  0  0  0  2  0  0  0  0
    1.7158   -0.9379    0.0000 O   0  0  0  0  0  0  0  2  0  0  0  0
    2.4303    0.2996    0.0000 N   0  0  0  0  0  0  0  2  0  0  0  0
    3.1447   -0.1129    0.0000 C   0  0  0  0  0  0  0  2  0  0  0  0
   -0.4668    0.2227    0.0000 S   0  0  0  0  0  0  0  2  0  0  0  0
  1  2  1  0        0
  2  3  1  0        0
  3  4  2  0        0
  3  5  2  0        0
  3  6  1  0        0
  6  7  4  0        0
  7  8  4  0        0
  8  9  4  0        0
  9 10  1  0        0
 10 11  1  0        0
 10 12  1  0        0
 12 13  2  0        0
 12 14  1  0        0
 14 15  1  0        0
  9 16  4  0        0
  6 16  4  0        0
M  END
$$$$

CDXL12

 15 15  0  0  0  0  0  0  0  0999 V2000
    2.8579   -1.0313    0.0000 C   0  0  0  0  0  0  0  2  0  0  0  0
    2.1434   -1.4438    0.0000 C   0  0  0  0  0  0  0  2  0  0  0  0
    1.4289   -1.0313    0.0000 C   0  0  0  0  0  0  0  2  0  0  0  0
    1.4289   -0.2063    0.0000 C   0  0  0  0  0  0  0  2  0  0  0  0
    0.7145    0.2062    0.0000 C   0  0  0  0  0  0  0  2  0  0  0  0
    0.7145    1.0313    0.0000 C   0  0  0  0  0  0  0  2  0  0  0  0
    1.4289    1.4438    0.0000 C   0  0  0  0  0  0  0  2  0  0  0  0
   -0.0000   -0.2062    0.0000 C   0  0  0  0  0  0  0  2  0  0  0  0
   -0.0000   -1.0313    0.0000 C   0  0  0  0  0  0  0  2  0  0  0  0
   -0.7145   -1.4438    0.0000 O   0  0  0  0  0  0  0  2  0  0  0  0
   -1.4289   -1.0313    0.0000 C   0  0  0  0  0  0  0  2  0  0  0  0
   -1.4289   -0.2062    0.0000 O   0  0  0  0  0  0  0  2  0  0  0  0
   -2.1434   -1.4438    0.0000 N   0  0  0  0  0  0  0  2  0  0  0  0
   -2.8579   -1.0313    0.0000 C   0  0  0  0  0  0  0  2  0  0  0  0
    0.7145   -1.4438    0.0000 C   0  0  0  0  0  0  0  2  0  0  0  0
  1  2  1  0        0
  2  3  1  0        0
  3  4  4  0        0
  4  5  4  0        0
  5  6  1  0        0
  6  7  1  0        0
  5  8  4  0        0
  8  9  4  0        0
  9 10  1  0        0
 10 11  1  0        0
 11 12  2  0        0
 11 13  1  0        0
 13 14  1  0        0
  9 15  4  0        0
  3 15  4  0        0
M  END
$$$$

CDXL12

  6  7  0  0  0  0  0  0  0  0999 V2000
   -0.3572    0.2062    0.0000 C   0  0  0  0  0  0  0  2  0  0  0  0
    0.3572   -0.2062    0.0000 C   0  0  0  0  0  0  0  2  0  0  0  0
    1.1822   -0.2062    0.0000 O   0  0  0  0  0  0  0  2  0  0  0  0
    0.7697   -0.9207    0.0000 C   0  0  0  0  0  0  0  2  0  0  0  0
   -1.1822    0.2062    0.0000 O   0  0  0  0  0  0  0  2  0  0  0  0
   -0.7697    0.9207    0.0000 C   0  0  0  0  0  0  0  2  0  0  0  0
  1  2  1  0        0
  2  3  1  0        0
  3  4  1  0        0
  2  4  1  0        0
  1  5  1  0        0
  5  6  1  0        0
  1  6  1  0        0
M  END
$$$$

CDXL12

  2  1  0  0  0  0  0  0  0  0999 V2000
    0.4125    0.0000    0.0000 O   0  0  0  0  0  0  0  2  0  0  0  0
   -0.4125    0.0000    0.0000 C   0  0  0  0  0  0  0  2  0  0  0  0
  1  2  1  0        0
M  END
$$$$

CDXL12

 10  9  0  0  0  0  0  0  0  0999 V2000
    1.7862    0.2062    0.0000 C   0  0  0  0  0  0  0  2  0  0  0  0
    1.0717   -0.2062    0.0000 O   0  0  0  0  0  0  0  2  0  0  0  0
    0.3572    0.2062    0.0000 P   0  0  0  0  0  0  0  2  0  0  0  0
    0.3572    1.0313    0.0000 O   0  0  0  0  0  0  0  2  0  0  0  0
   -0.3572   -0.2062    0.0000 N   0  0  0  0  0  0  0  2  0  0  0  0
   -1.0717    0.2062    0.0000 C   0  0  0  0  0  0  0  2  0  0  0  0
   -1.7862   -0.2062    0.0000 C   0  0  0  0  0  0  0  2  0  0  0  0
   -1.0717    1.0313    0.0000 O   0  0  0  0  0  0  0  2  0  0  0  0
    0.3572   -0.6188    0.0000 S   0  0  0  0  0  0  0  2  0  0  0  0
    1.0717   -1.0313    0.0000 C   0  0  0  0  0  0  0  2  0  0  0  0
  1  2  1  0        0
  2  3  1  0        0
  3  4  2  0        0
  3  5  1  0        0
  5  6  1  0        0
  6  7  1  0        0
  6  8  2  0        0
  3  9  1  0        0
  9 10  1  0        0
M  END
$$$$

CDXL12

 18 20  0  0  0  0  0  0  0  0999 V2000
    2.5006   -0.8250    0.0000 Cl  0  0  0  0  0  0  0  2  0  0  0  0
    1.7862   -0.4125    0.0000 C   0  0  0  0  0  0  0  2  0  0  0  0
    1.7862    0.4125    0.0000 C   0  0  0  0  0  0  0  2  0  0  0  0
    2.5006    0.8250    0.0000 Cl  0  0  0  0  0  0  0  2  0  0  0  0
    1.0717    0.8250    0.0000 C   0  0  0  0  0  0  0  2  0  0  0  0
    1.0717    1.6500    0.0000 Cl  0  0  0  0  0  0  0  2  0  0  0  0
    0.3572    0.4125    0.0000 C   0  0  0  0  0  0  0  2  0  0  0  0
   -0.3572    0.8250    0.0000 O   0  0  0  0  0  0  0  2  0  0  0  0
   -1.0717    0.4125    0.0000 C   0  0  0  0  0  0  0  2  0  0  0  0
   -1.7862    0.8250    0.0000 C   0  0  0  0  0  0  0  2  0  0  0  0
   -2.5006    0.4125    0.0000 C   0  0  0  0  0  0  0  2  0  0  0  0
   -2.5006   -0.4125    0.0000 C   0  0  0  0  0  0  0  2  0  0  0  0
   -1.7862   -0.8250    0.0000 C   0  0  0  0  0  0  0  2  0  0  0  0
   -1.0717   -0.4125    0.0000 C   0  0  0  0  0  0  0  2  0  0  0  0
   -0.3572   -0.8250    0.0000 O   0  0  0  0  0  0  0  2  0  0  0  0
    0.3572   -0.4125    0.0000 C   0  0  0  0  0  0  0  2  0  0  0  0
    1.0717   -0.8250    0.0000 C   0  0  0  0  0  0  0  2  0  0  0  0
    1.0717   -1.6500    0.0000 Cl  0  0  0  0  0  0  0  2  0  0  0  0
  1  2  1  0        0
  2  3  4  0        0
  3  4  1  0        0
  3  5  4  0        0
  5  6  1  0        0
  5  7  4  0        0
  7  8  1  0        0
  8  9  1  0        0
  9 10  4  0        0
 10 11  4  0        0
 11 12  4  0        0
 12 13  4  0        0
 13 14  4  0        0
  9 14  4  0        0
 14 15  1  0        0
 15 16  1  0        0
  7 16  4  0        0
 16 17  4  0        0
  2 17  4  0        0
 17 18  1  0        0
M  END
$$$$

CDXL12

 17 20  0  0  0  0  0  0  0  0999 V2000
    0.1365    0.1350    0.0000 C   0  0  0  0  0  0  0  2  0  0  0  0
    0.9435    0.3065    0.0000 C   0  0  0  0  0  0  0  2  0  0  0  0
    1.1984    1.0912    0.0000 C   0  0  0  0  0  0  0  2  0  0  0  0
    2.0054    1.2627    0.0000 C   0  0  0  0  0  0  0  2  0  0  0  0
    2.5574    0.6496    0.0000 C   0  0  0  0  0  0  0  2  0  0  0  0
    2.3025   -0.1350    0.0000 C   0  0  0  0  0  0  0  2  0  0  0  0
    1.4955   -0.3065    0.0000 C   0  0  0  0  0  0  0  2  0  0  0  0
    1.2405   -1.0912    0.0000 C   0  0  0  0  0  0  0  2  0  0  0  0
    0.4336   -1.2627    0.0000 C   0  0  0  0  0  0  0  2  0  0  0  0
   -0.1185   -0.6496    0.0000 C   0  0  0  0  0  0  0  2  0  0  0  0
   -0.9435   -0.6496    0.0000 C   0  0  0  0  0  0  0  2  0  0  0  0
   -1.4955   -1.2627    0.0000 C   0  0  0  0  0  0  0  2  0  0  0  0
   -2.3025   -1.0912    0.0000 C   0  0  0  0  0  0  0  2  0  0  0  0
   -2.5574   -0.3065    0.0000 C   0  0  0  0  0  0  0  2  0  0  0  0
   -2.0054    0.3065    0.0000 C   0  0  0  0  0  0  0  2  0  0  0  0
   -1.1984    0.1350    0.0000 C   0  0  0  0  0  0  0  2  0  0  0  0
   -0.5310    0.6199    0.0000 C   0  0  0  0  0  0  0  2  0  0  0  0
  1  2  4  0        0
  2  3  4  0        0
  3  4  4  0        0
  4  5  4  0        0
  5  6  4  0        0
  6  7  4  0        0
  2  7  4  0        0
  7  8  4  0        0
  8  9  4  0        0
  9 10  4  0        0
  1 10  4  0        0
 10 11  1  0        0
 11 12  4  0        0
 12 13  4  0        0
 13 14  4  0        0
 14 15  4  0        0
 15 16  4  0        0
 11 16  4  0        0
 16 17  1  0        0
  1 17  1  0        0
M  END
$$$$

CDXL12

 13 13  0  0  0  0  0  0  0  0999 V2000
   -0.6065   -1.3050    0.0000 O   0  0  0  0  0  0  0  2  0  0  0  0
   -1.2196   -0.7530    0.0000 C   0  0  0  0  0  0  0  2  0  0  0  0
   -2.0265   -0.9245    0.0000 N   0  0  0  0  0  0  0  2  0  0  0  0
   -2.4390   -0.2100    0.0000 C   0  0  0  0  0  0  0  2  0  0  0  0
   -1.8870    0.4031    0.0000 C   0  0  0  0  0  0  0  2  0  0  0  0
   -1.1333    0.0675    0.0000 N   0  0  0  0  0  0  0  2  0  0  0  0
   -0.4189    0.4800    0.0000 C   0  0  0  0  0  0  0  2  0  0  0  0
   -0.4189    1.3050    0.0000 O   0  0  0  0  0  0  0  2  0  0  0  0
    0.2956    0.0675    0.0000 N   0  0  0  0  0  0  0  2  0  0  0  0
    1.0101    0.4800    0.0000 C   0  0  0  0  0  0  0  2  0  0  0  0
    1.7246    0.0675    0.0000 C   0  0  0  0  0  0  0  2  0  0  0  0
    2.4390    0.4800    0.0000 C   0  0  0  0  0  0  0  2  0  0  0  0
    1.7246   -0.7575    0.0000 C   0  0  0  0  0  0  0  2  0  0  0  0
  1  2  2  0        0
  2  3  1  0        0
  3  4  1  0        0
  4  5  1  0        0
  5  6  1  0        0
  2  6  1  0        0
  6  7  1  0        0
  7  8  2  0        0
  7  9  1  0        0
  9 10  1  0        0
 10 11  1  0        0
 11 12  1  0        0
 11 13  1  0        0
M  END
$$$$

CDXL12

 28 31  0  0  0  0  0  0  0  0999 V2000
   -2.2848   -2.1434    0.0000 F   0  0  0  0  0  0  0  2  0  0  0  0
   -1.8723   -1.4289    0.0000 C   0  0  0  0  0  0  0  2  0  0  0  0
   -1.4598   -2.1434    0.0000 F   0  0  0  0  0  0  0  2  0  0  0  0
   -2.6973   -1.4289    0.0000 F   0  0  0  0  0  0  0  2  0  0  0  0
   -1.4598   -0.7145    0.0000 C   0  0  0  0  0  0  0  2  0  0  0  0
   -1.8723   -0.0000    0.0000 C   0  0  0  0  0  0  0  2  0  0  0  0
   -1.4598    0.7145    0.0000 C   0  0  0  0  0  0  0  2  0  0  0  0
   -0.6348    0.7145    0.0000 C   0  0  0  0  0  0  0  2  0  0  0  0
   -0.2223   -0.0000    0.0000 C   0  0  0  0  0  0  0  2  0  0  0  0
    0.6027   -0.0000    0.0000 C   0  0  0  0  0  0  0  2  0  0  0  0
    1.4277   -0.0000    0.0000 N   0  0  0  0  0  0  0  2  0  0  0  0
    1.9127    0.6674    0.0000 N   0  0  0  0  0  0  0  2  0  0  0  0
    2.6973    0.4125    0.0000 C   0  0  0  0  0  0  0  2  0  0  0  0
    2.6973   -0.4125    0.0000 N   0  0  0  0  0  0  0  2  0  0  0  0
    1.9127   -0.6674    0.0000 C   0  0  0  0  0  0  0  2  0  0  0  0
    0.6027   -0.8250    0.0000 C   0  0  0  0  0  0  0  2  0  0  0  0
    1.3172   -1.2375    0.0000 C   0  0  0  0  0  0  0  2  0  0  0  0
    1.3172   -2.0625    0.0000 C   0  0  0  0  0  0  0  2  0  0  0  0
    0.6027   -2.4750    0.0000 C   0  0  0  0  0  0  0  2  0  0  0  0
   -0.1117   -2.0625    0.0000 C   0  0  0  0  0  0  0  2  0  0  0  0
   -0.1117   -1.2375    0.0000 C   0  0  0  0  0  0  0  2  0  0  0  0
    0.6027    0.8250    0.0000 C   0  0  0  0  0  0  0  2  0  0  0  0
   -0.1117    1.2375    0.0000 C   0  0  0  0  0  0  0  2  0  0  0  0
   -0.1117    2.0625    0.0000 C   0  0  0  0  0  0  0  2  0  0  0  0
    0.6027    2.4750    0.0000 C   0  0  0  0  0  0  0  2  0  0  0  0
    1.3172    2.0625    0.0000 C   0  0  0  0  0  0  0  2  0  0  0  0
    1.3172    1.2375    0.0000 C   0  0  0  0  0  0  0  2  0  0  0  0
   -0.6348   -0.7145    0.0000 C   0  0  0  0  0  0  0  2  0  0  0  0
  1  2  1  0        0
  2  3  1  0        0
  2  4  1  0        0
  2  5  1  0        0
  5  6  4  0        0
  6  7  4  0        0
  7  8  4  0        0
  8  9  4  0        0
  9 10  1  0        0
 10 11  1  0        0
 11 12  4  0        0
 12 13  4  0        0
 13 14  4  0        0
 14 15  4  0        0
 11 15  4  0        0
 10 16  1  0        0
 16 17  4  0        0
 17 18  4  0        0
 18 19  4  0        0
 19 20  4  0        0
 20 21  4  0        0
 16 21  4  0        0
 10 22  1  0        0
 22 23  4  0        0
 23 24  4  0        0
 24 25  4  0        0
 25 26  4  0        0
 26 27  4  0        0
 22 27  4  0        0
  9 28  4  0        0
  5 28  4  0        0
M  END
$$$$

CDXL12

 23 25  0  0  0  0  0  0  0  0999 V2000
   -1.1578    0.5115    0.0000 C   0  0  0  0  0  0  0  2  0  0  0  0
   -1.1578   -0.3135    0.0000 C   0  0  0  0  0  0  0  2  0  0  0  0
   -1.8723   -0.7260    0.0000 C   0  0  0  0  0  0  0  2  0  0  0  0
   -1.8723   -1.5510    0.0000 O   0  0  0  0  0  0  0  2  0  0  0  0
   -2.5867   -0.3135    0.0000 C   0  0  0  0  0  0  0  2  0  0  0  0
   -3.3012   -0.7260    0.0000 C   0  0  0  0  0  0  0  2  0  0  0  0
   -4.0157   -0.3135    0.0000 C   0  0  0  0  0  0  0  2  0  0  0  0
   -4.0157    0.5115    0.0000 C   0  0  0  0  0  0  0  2  0  0  0  0
   -3.3012    0.9240    0.0000 C   0  0  0  0  0  0  0  2  0  0  0  0
   -2.5867    0.5115    0.0000 C   0  0  0  0  0  0  0  2  0  0  0  0
   -0.4433   -0.7260    0.0000 C   0  0  0  0  0  0  0  2  0  0  0  0
    0.2711   -0.3135    0.0000 C   0  0  0  0  0  0  0  2  0  0  0  0
    1.0558   -0.5685    0.0000 N   0  0  0  0  0  0  0  2  0  0  0  0
    1.5407    0.0990    0.0000 C   0  0  0  0  0  0  0  2  0  0  0  0
    2.3657    0.0990    0.0000 N   0  0  0  0  0  0  0  2  0  0  0  0
    2.7782   -0.6155    0.0000 C   0  0  0  0  0  0  0  2  0  0  0  0
    2.3657   -1.3300    0.0000 O   0  0  0  0  0  0  0  2  0  0  0  0
    3.6032   -0.6155    0.0000 O   0  0  0  0  0  0  0  2  0  0  0  0
    4.0157   -1.3300    0.0000 C   0  0  0  0  0  0  0  2  0  0  0  0
    1.0558    0.7664    0.0000 N   0  0  0  0  0  0  0  2  0  0  0  0
    1.3107    1.5510    0.0000 H   0  0  0  0  0  0  0  2  0  0  0  0
    0.2711    0.5115    0.0000 C   0  0  0  0  0  0  0  2  0  0  0  0
   -0.4433    0.9240    0.0000 C   0  0  0  0  0  0  0  2  0  0  0  0
  1  2  4  0        0
  2  3  1  0        0
  3  4  2  0        0
  3  5  1  0        0
  5  6  4  0        0
  6  7  4  0        0
  7  8  4  0        0
  8  9  4  0        0
  9 10  4  0        0
  5 10  4  0        0
  2 11  4  0        0
 11 12  4  0        0
 12 13  4  0        0
 13 14  4  0        0
 14 15  1  0        0
 15 16  1  0        0
 16 17  2  0        0
 16 18  1  0        0
 18 19  1  0        0
 14 20  4  0        0
 20 21  1  0        0
 20 22  4  0        0
 12 22  4  0        0
 22 23  4  0        0
  1 23  4  0        0
M  END
$$$$

CDXL12

 17 18  0  0  0  0  0  0  0  0999 V2000
    2.5006   -1.4438    0.0000 Cl  0  0  0  0  0  0  0  2  0  0  0  0
    1.7862   -1.0313    0.0000 C   0  0  0  0  0  0  0  2  0  0  0  0
    1.0717   -1.4438    0.0000 C   0  0  0  0  0  0  0  2  0  0  0  0
    0.3572   -1.0313    0.0000 C   0  0  0  0  0  0  0  2  0  0  0  0
    0.3572   -0.2062    0.0000 C   0  0  0  0  0  0  0  2  0  0  0  0
    1.0717    0.2062    0.0000 C   0  0  0  0  0  0  0  2  0  0  0  0
    1.7862   -0.2062    0.0000 C   0  0  0  0  0  0  0  2  0  0  0  0
    2.5006    0.2062    0.0000 Cl  0  0  0  0  0  0  0  2  0  0  0  0
   -0.3572    0.2062    0.0000 C   0  0  0  0  0  0  0  2  0  0  0  0
   -1.0717   -0.2062    0.0000 C   0  0  0  0  0  0  0  2  0  0  0  0
   -1.7862    0.2062    0.0000 C   0  0  0  0  0  0  0  2  0  0  0  0
   -2.5006   -0.2062    0.0000 Cl  0  0  0  0  0  0  0  2  0  0  0  0
   -1.7862    1.0313    0.0000 C   0  0  0  0  0  0  0  2  0  0  0  0
   -2.5006    1.4438    0.0000 Cl  0  0  0  0  0  0  0  2  0  0  0  0
   -1.0717    1.4438    0.0000 C   0  0  0  0  0  0  0  2  0  0  0  0
   -0.3572    1.0313    0.0000 C   0  0  0  0  0  0  0  2  0  0  0  0
    0.3572    1.4438    0.0000 Cl  0  0  0  0  0  0  0  2  0  0  0  0
  1  2  1  0        0
  2  3  4  0        0
  3  4  4  0        0
  4  5  4  0        0
  5  6  4  0        0
  6  7  4  0        0
  2  7  4  0        0
  7  8  1  0        0
  5  9  1  0        0
  9 10  4  0        0
 10 11  4  0        0
 11 12  1  0        0
 11 13  4  0        0
 13 14  1  0        0
 13 15  4  0        0
 15 16  4  0        0
  9 16  4  0        0
 16 17  1  0        0
M  END
$$$$

CDXL12

 22 22  0  0  0  0  0  0  0  0999 V2000
    0.0000   -1.2375    0.0000 O   0  0  0  0  0  0  0  2  0  0  0  0
    0.0000   -0.4125    0.0000 C   0  0  0  0  0  0  0  2  0  0  0  0
    0.7145    0.0000    0.0000 O   0  0  0  0  0  0  0  2  0  0  0  0
    1.4289   -0.4125    0.0000 C   0  0  0  0  0  0  0  2  0  0  0  0
    2.1434   -0.0000    0.0000 C   0  0  0  0  0  0  0  2  0  0  0  0
    2.8579   -0.4125    0.0000 O   0  0  0  0  0  0  0  2  0  0  0  0
    3.5724   -0.0000    0.0000 C   0  0  0  0  0  0  0  2  0  0  0  0
    4.2868   -0.4125    0.0000 C   0  0  0  0  0  0  0  2  0  0  0  0
    5.0013   -0.0000    0.0000 C   0  0  0  0  0  0  0  2  0  0  0  0
    5.7158   -0.4125    0.0000 C   0  0  0  0  0  0  0  2  0  0  0  0
   -0.7145    0.0000    0.0000 C   0  0  0  0  0  0  0  2  0  0  0  0
   -1.4289   -0.4125    0.0000 C   0  0  0  0  0  0  0  2  0  0  0  0
   -2.1434    0.0000    0.0000 C   0  0  0  0  0  0  0  2  0  0  0  0
   -2.8579   -0.4125    0.0000 O   0  0  0  0  0  0  0  2  0  0  0  0
   -3.5724   -0.0000    0.0000 C   0  0  0  0  0  0  0  2  0  0  0  0
   -3.5724    0.8250    0.0000 C   0  0  0  0  0  0  0  2  0  0  0  0
   -4.2868    1.2375    0.0000 C   0  0  0  0  0  0  0  2  0  0  0  0
   -5.0013    0.8250    0.0000 C   0  0  0  0  0  0  0  2  0  0  0  0
   -5.0013    0.0000    0.0000 C   0  0  0  0  0  0  0  2  0  0  0  0
   -4.2868   -0.4125    0.0000 C   0  0  0  0  0  0  0  2  0  0  0  0
   -5.7158    1.2375    0.0000 Cl  0  0  0  0  0  0  0  2  0  0  0  0
   -2.8579    1.2375    0.0000 Cl  0  0  0  0  0  0  0  2  0  0  0  0
  1  2  2  0        0
  2  3  1  0        0
  3  4  1  0        0
  4  5  1  0        0
  5  6  1  0        0
  6  7  1  0        0
  7  8  1  0        0
  8  9  1  0        0
  9 10  1  0        0
  2 11  1  0        0
 11 12  1  0        0
 12 13  1  0        0
 13 14  1  0        0
 14 15  1  0        0
 15 16  4  0        0
 16 17  4  0        0
 17 18  4  0        0
 18 19  4  0        0
 19 20  4  0        0
 15 20  4  0        0
 18 21  1  0        0
 16 22  1  0        0
M  END
$$$$

CDXL12

 16 17  0  0  0  0  0  0  0  0999 V2000
   -2.5006   -1.4437    0.0000 Cl  0  0  0  0  0  0  0  2  0  0  0  0
   -1.7862   -1.0312    0.0000 C   0  0  0  0  0  0  0  2  0  0  0  0
   -1.7862   -0.2062    0.0000 C   0  0  0  0  0  0  0  2  0  0  0  0
   -1.0717    0.2063    0.0000 C   0  0  0  0  0  0  0  2  0  0  0  0
   -0.3572   -0.2063    0.0000 C   0  0  0  0  0  0  0  2  0  0  0  0
   -0.3572   -1.0312    0.0000 C   0  0  0  0  0  0  0  2  0  0  0  0
    0.3572   -1.4437    0.0000 Cl  0  0  0  0  0  0  0  2  0  0  0  0
   -1.0717   -1.4437    0.0000 C   0  0  0  0  0  0  0  2  0  0  0  0
    0.3572    0.2062    0.0000 C   0  0  0  0  0  0  0  2  0  0  0  0
    0.3572    1.0312    0.0000 C   0  0  0  0  0  0  0  2  0  0  0  0
    1.0717    1.4437    0.0000 C   0  0  0  0  0  0  0  2  0  0  0  0
    1.7862    1.0312    0.0000 C   0  0  0  0  0  0  0  2  0  0  0  0
    2.5006    1.4437    0.0000 Cl  0  0  0  0  0  0  0  2  0  0  0  0
    1.7862    0.2063    0.0000 C   0  0  0  0  0  0  0  2  0  0  0  0
    2.5006   -0.2063    0.0000 Cl  0  0  0  0  0  0  0  2  0  0  0  0
    1.0717   -0.2063    0.0000 C   0  0  0  0  0  0  0  2  0  0  0  0
  1  2  1  0        0
  2  3  4  0        0
  3  4  4  0        0
  4  5  4  0        0
  5  6  4  0        0
  6  7  1  0        0
  6  8  4  0        0
  2  8  4  0        0
  5  9  1  0        0
  9 10  4  0        0
 10 11  4  0        0
 11 12  4  0        0
 12 13  1  0        0
 12 14  4  0        0
 14 15  1  0        0
 14 16  4  0        0
  9 16  4  0        0
M  END
$$$$

CDXL12

 16 17  0  0  0  0  0  0  0  0999 V2000
    2.5006    1.4438    0.0000 Cl  0  0  0  0  0  0  0  2  0  0  0  0
    1.7862    1.0313    0.0000 C   0  0  0  0  0  0  0  2  0  0  0  0
    1.0717    1.4438    0.0000 C   0  0  0  0  0  0  0  2  0  0  0  0
    0.3572    1.0312    0.0000 C   0  0  0  0  0  0  0  2  0  0  0  0
    0.3572    0.2062    0.0000 C   0  0  0  0  0  0  0  2  0  0  0  0
    1.0717   -0.2062    0.0000 C   0  0  0  0  0  0  0  2  0  0  0  0
    1.7862    0.2062    0.0000 C   0  0  0  0  0  0  0  2  0  0  0  0
    2.5006   -0.2062    0.0000 Cl  0  0  0  0  0  0  0  2  0  0  0  0
   -0.3572   -0.2062    0.0000 C   0  0  0  0  0  0  0  2  0  0  0  0
   -0.3572   -1.0313    0.0000 C   0  0  0  0  0  0  0  2  0  0  0  0
   -1.0717   -1.4438    0.0000 C   0  0  0  0  0  0  0  2  0  0  0  0
   -1.7862   -1.0313    0.0000 C   0  0  0  0  0  0  0  2  0  0  0  0
   -2.5006   -1.4438    0.0000 Cl  0  0  0  0  0  0  0  2  0  0  0  0
   -1.7862   -0.2062    0.0000 C   0  0  0  0  0  0  0  2  0  0  0  0
   -2.5006    0.2062    0.0000 Cl  0  0  0  0  0  0  0  2  0  0  0  0
   -1.0717    0.2062    0.0000 C   0  0  0  0  0  0  0  2  0  0  0  0
  1  2  1  0        0
  2  3  4  0        0
  3  4  4  0        0
  4  5  4  0        0
  5  6  4  0        0
  6  7  4  0        0
  2  7  4  0        0
  7  8  1  0        0
  5  9  1  0        0
  9 10  4  0        0
 10 11  4  0        0
 11 12  4  0        0
 12 13  1  0        0
 12 14  4  0        0
 14 15  1  0        0
 14 16  4  0        0
  9 16  4  0        0
M  END
$$$$

CDXL12

 18 19  0  0  0  0  0  0  0  0999 V2000
    2.5006   -0.2063    0.0000 Cl  0  0  0  0  0  0  0  2  0  0  0  0
    1.7862    0.2062    0.0000 C   0  0  0  0  0  0  0  2  0  0  0  0
    1.0717   -0.2063    0.0000 C   0  0  0  0  0  0  0  2  0  0  0  0
    0.3572    0.2062    0.0000 C   0  0  0  0  0  0  0  2  0  0  0  0
    0.3572    1.0312    0.0000 C   0  0  0  0  0  0  0  2  0  0  0  0
    1.0717    1.4437    0.0000 C   0  0  0  0  0  0  0  2  0  0  0  0
    1.0717    2.2687    0.0000 Cl  0  0  0  0  0  0  0  2  0  0  0  0
    1.7862    1.0312    0.0000 C   0  0  0  0  0  0  0  2  0  0  0  0
    2.5006    1.4437    0.0000 Cl  0  0  0  0  0  0  0  2  0  0  0  0
   -0.3572   -0.2062    0.0000 C   0  0  0  0  0  0  0  2  0  0  0  0
   -1.0717    0.2062    0.0000 C   0  0  0  0  0  0  0  2  0  0  0  0
   -1.7862   -0.2062    0.0000 C   0  0  0  0  0  0  0  2  0  0  0  0
   -2.5006    0.2062    0.0000 Cl  0  0  0  0  0  0  0  2  0  0  0  0
   -1.7862   -1.0312    0.0000 C   0  0  0  0  0  0  0  2  0  0  0  0
   -2.5006   -1.4437    0.0000 Cl  0  0  0  0  0  0  0  2  0  0  0  0
   -1.0717   -1.4437    0.0000 C   0  0  0  0  0  0  0  2  0  0  0  0
   -1.0717   -2.2687    0.0000 Cl  0  0  0  0  0  0  0  2  0  0  0  0
   -0.3572   -1.0312    0.0000 C   0  0  0  0  0  0  0  2  0  0  0  0
  1  2  1  0        0
  2  3  4  0        0
  3  4  4  0        0
  4  5  4  0        0
  5  6  4  0        0
  6  7  1  0        0
  6  8  4  0        0
  2  8  4  0        0
  8  9  1  0        0
  4 10  1  0        0
 10 11  4  0        0
 11 12  4  0        0
 12 13  1  0        0
 12 14  4  0        0
 14 15  1  0        0
 14 16  4  0        0
 16 17  1  0        0
 16 18  4  0        0
 10 18  4  0        0
M  END
$$$$

CDXL12

 18 20  0  0  0  0  0  0  0  0999 V2000
   -0.9920   -0.7145    0.0000 C   0  0  0  0  0  0  0  2  0  0  0  0
   -1.8170   -0.7145    0.0000 C   0  0  0  0  0  0  0  2  0  0  0  0
   -2.2295   -1.4289    0.0000 Cl  0  0  0  0  0  0  0  2  0  0  0  0
   -2.2295   -0.0000    0.0000 C   0  0  0  0  0  0  0  2  0  0  0  0
   -1.8170    0.7145    0.0000 C   0  0  0  0  0  0  0  2  0  0  0  0
   -2.2295    1.4289    0.0000 Cl  0  0  0  0  0  0  0  2  0  0  0  0
   -0.9920    0.7145    0.0000 C   0  0  0  0  0  0  0  2  0  0  0  0
   -0.5795   -0.0000    0.0000 C   0  0  0  0  0  0  0  2  0  0  0  0
    0.2455   -0.0000    0.0000 N   0  0  0  0  0  0  0  2  0  0  0  0
    0.7304   -0.6674    0.0000 C   0  0  0  0  0  0  0  2  0  0  0  0
    0.4755   -1.4521    0.0000 O   0  0  0  0  0  0  0  2  0  0  0  0
    1.5150   -0.4125    0.0000 C   0  0  0  0  0  0  0  2  0  0  0  0
    1.8506   -1.1662    0.0000 C   0  0  0  0  0  0  0  2  0  0  0  0
    2.2295   -0.0000    0.0000 C   0  0  0  0  0  0  0  2  0  0  0  0
    1.5150    0.4125    0.0000 C   0  0  0  0  0  0  0  2  0  0  0  0
    1.8506    1.1662    0.0000 C   0  0  0  0  0  0  0  2  0  0  0  0
    0.7304    0.6674    0.0000 C   0  0  0  0  0  0  0  2  0  0  0  0
    0.4755    1.4521    0.0000 O   0  0  0  0  0  0  0  2  0  0  0  0
  1  2  4  0        0
  2  3  1  0        0
  2  4  4  0        0
  4  5  4  0        0
  5  6  1  0        0
  5  7  4  0        0
  7  8  4  0        0
  1  8  4  0        0
  8  9  1  0        0
  9 10  1  0        0
 10 11  2  0        0
 10 12  1  0        0
 12 13  1  0        0
 12 14  1  0        0
 14 15  1  0        0
 12 15  1  0        0
 15 16  1  0        0
 15 17  1  0        0
  9 17  1  0        0
 17 18  2  0        0
M  END
$$$$

CDXL12

 20 21  0  0  0  0  0  0  0  0999 V2000
   -1.7862   -1.2375    0.0000 C   0  0  0  0  0  0  0  2  0  0  0  0
   -2.5006   -0.8250    0.0000 C   0  0  0  0  0  0  0  2  0  0  0  0
   -2.5006   -0.0000    0.0000 C   0  0  0  0  0  0  0  2  0  0  0  0
   -3.2151    0.4125    0.0000 Cl  0  0  0  0  0  0  0  2  0  0  0  0
   -1.7862    0.4125    0.0000 C   0  0  0  0  0  0  0  2  0  0  0  0
   -1.0717   -0.0000    0.0000 C   0  0  0  0  0  0  0  2  0  0  0  0
   -0.3572    0.4125    0.0000 Cl  0  0  0  0  0  0  0  2  0  0  0  0
   -1.0717   -0.8250    0.0000 C   0  0  0  0  0  0  0  2  0  0  0  0
   -0.3572   -1.2375    0.0000 O   0  0  0  0  0  0  0  2  0  0  0  0
    0.3572   -0.8250    0.0000 C   0  0  0  0  0  0  0  2  0  0  0  0
    1.0717   -1.2375    0.0000 C   0  0  0  0  0  0  0  2  0  0  0  0
    1.7862   -0.8250    0.0000 C   0  0  0  0  0  0  0  2  0  0  0  0
    2.5006   -1.2375    0.0000 O   0  0  0  0  0  0  0  2  0  0  0  0
    3.2151   -0.8250    0.0000 C   0  0  0  0  0  0  0  2  0  0  0  0
    1.7862    0.0000    0.0000 C   0  0  0  0  0  0  0  2  0  0  0  0
    2.5006    0.4125    0.0000 N   0  0  0  0  0  0  0  2  0  0  0  0
    2.5006    1.2375    0.0000 O   0  0  0  0  0  0  0  2  0  0  0  0
    3.2151    0.0000    0.0000 O   0  0  0  0  0  0  0  2  0  0  0  0
    1.0717    0.4125    0.0000 C   0  0  0  0  0  0  0  2  0  0  0  0
    0.3572    0.0000    0.0000 C   0  0  0  0  0  0  0  2  0  0  0  0
  1  2  4  0        0
  2  3  4  0        0
  3  4  1  0        0
  3  5  4  0        0
  5  6  4  0        0
  6  7  1  0        0
  6  8  4  0        0
  1  8  4  0        0
  8  9  1  0        0
  9 10  1  0        0
 10 11  4  0        0
 11 12  4  0        0
 12 13  1  0        0
 13 14  1  0        0
 12 15  4  0        0
 15 16  1  0        0
 16 17  2  0        0
 16 18  2  0        0
 15 19  4  0        0
 19 20  4  0        0
 10 20  4  0        0
M  END
$$$$

CDXL12

 12 12  0  0  0  0  0  0  0  0999 V2000
    1.7862    1.2375    0.0000 O   0  0  0  0  0  0  0  2  0  0  0  0
    1.7862    0.4125    0.0000 C   0  0  0  0  0  0  0  2  0  0  0  0
    2.5006    0.0000    0.0000 O   0  0  0  0  0  0  0  2  0  0  0  0
    1.0717    0.0000    0.0000 C   0  0  0  0  0  0  0  2  0  0  0  0
    0.3572    0.4125    0.0000 C   0  0  0  0  0  0  0  2  0  0  0  0
   -0.3572    0.0000    0.0000 C   0  0  0  0  0  0  0  2  0  0  0  0
   -0.3572   -0.8250    0.0000 C   0  0  0  0  0  0  0  2  0  0  0  0
   -1.0717   -1.2375    0.0000 C   0  0  0  0  0  0  0  2  0  0  0  0
   -1.7862   -0.8250    0.0000 C   0  0  0  0  0  0  0  2  0  0  0  0
   -1.7862   -0.0000    0.0000 C   0  0  0  0  0  0  0  2  0  0  0  0
   -2.5006    0.4125    0.0000 Br  0  0  0  0  0  0  0  2  0  0  0  0
   -1.0717    0.4125    0.0000 C   0  0  0  0  0  0  0  2  0  0  0  0
  1  2  2  0        0
  2  3  1  0        0
  2  4  1  0        0
  4  5  2  0        0
  5  6  1  0        0
  6  7  4  0        0
  7  8  4  0        0
  8  9  4  0        0
  9 10  4  0        0
 10 11  1  0        0
 10 12  4  0        0
  6 12  4  0        0
M  END
$$$$

CDXL12

 16 17  0  0  0  0  0  0  0  0999 V2000
   -2.5006   -1.4437    0.0000 Cl  0  0  0  0  0  0  0  2  0  0  0  0
   -1.7862   -1.0312    0.0000 C   0  0  0  0  0  0  0  2  0  0  0  0
   -1.7862   -0.2062    0.0000 C   0  0  0  0  0  0  0  2  0  0  0  0
   -1.0717    0.2062    0.0000 C   0  0  0  0  0  0  0  2  0  0  0  0
   -0.3572   -0.2062    0.0000 C   0  0  0  0  0  0  0  2  0  0  0  0
   -0.3572   -1.0312    0.0000 C   0  0  0  0  0  0  0  2  0  0  0  0
   -1.0717   -1.4437    0.0000 C   0  0  0  0  0  0  0  2  0  0  0  0
    0.3572    0.2062    0.0000 C   0  0  0  0  0  0  0  2  0  0  0  0
    0.3572    1.0312    0.0000 C   0  0  0  0  0  0  0  2  0  0  0  0
    1.0717    1.4437    0.0000 C   0  0  0  0  0  0  0  2  0  0  0  0
    1.7862    1.0312    0.0000 C   0  0  0  0  0  0  0  2  0  0  0  0
    2.5006    1.4437    0.0000 Cl  0  0  0  0  0  0  0  2  0  0  0  0
    1.7862    0.2062    0.0000 C   0  0  0  0  0  0  0  2  0  0  0  0
    2.5006   -0.2063    0.0000 Cl  0  0  0  0  0  0  0  2  0  0  0  0
    1.0717   -0.2062    0.0000 C   0  0  0  0  0  0  0  2  0  0  0  0
    1.0717   -1.0312    0.0000 Cl  0  0  0  0  0  0  0  2  0  0  0  0
  1  2  1  0        0
  2  3  4  0        0
  3  4  4  0        0
  4  5  4  0        0
  5  6  4  0        0
  6  7  4  0        0
  2  7  4  0        0
  5  8  1  0        0
  8  9  4  0        0
  9 10  4  0        0
 10 11  4  0        0
 11 12  1  0        0
 11 13  4  0        0
 13 14  1  0        0
 13 15  4  0        0
  8 15  4  0        0
 15 16  1  0        0
M  END
$$$$

CDXL12

 22 23  0  0  0  0  0  0  0  0999 V2000
    0.0000   -1.2375    0.0000 C   0  0  0  0  0  0  0  2  0  0  0  0
    0.0000   -0.4125    0.0000 N   0  0  0  0  0  0  0  2  0  0  0  0
    0.7145    0.0000    0.0000 C   0  0  0  0  0  0  0  2  0  0  0  0
    1.4289   -0.4125    0.0000 N   0  0  0  0  0  0  0  2  0  0  0  0
    2.1434   -0.0000    0.0000 C   0  0  0  0  0  0  0  2  0  0  0  0
    2.8579   -0.4125    0.0000 C   0  0  0  0  0  0  0  2  0  0  0  0
    3.5724   -0.0000    0.0000 C   0  0  0  0  0  0  0  2  0  0  0  0
    3.5724    0.8250    0.0000 C   0  0  0  0  0  0  0  2  0  0  0  0
    4.2868    1.2375    0.0000 C   0  0  0  0  0  0  0  2  0  0  0  0
    2.8579    1.2375    0.0000 C   0  0  0  0  0  0  0  2  0  0  0  0
    2.1434    0.8250    0.0000 C   0  0  0  0  0  0  0  2  0  0  0  0
    1.4289    1.2375    0.0000 C   0  0  0  0  0  0  0  2  0  0  0  0
   -0.7145   -0.0000    0.0000 C   0  0  0  0  0  0  0  2  0  0  0  0
   -1.4289   -0.4125    0.0000 N   0  0  0  0  0  0  0  2  0  0  0  0
   -2.1434   -0.0000    0.0000 C   0  0  0  0  0  0  0  2  0  0  0  0
   -2.8579   -0.4125    0.0000 C   0  0  0  0  0  0  0  2  0  0  0  0
   -3.5724    0.0000    0.0000 C   0  0  0  0  0  0  0  2  0  0  0  0
   -3.5724    0.8250    0.0000 C   0  0  0  0  0  0  0  2  0  0  0  0
   -4.2868    1.2375    0.0000 C   0  0  0  0  0  0  0  2  0  0  0  0
   -2.8579    1.2375    0.0000 C   0  0  0  0  0  0  0  2  0  0  0  0
   -2.1434    0.8250    0.0000 C   0  0  0  0  0  0  0  2  0  0  0  0
   -1.4289    1.2375    0.0000 C   0  0  0  0  0  0  0  2  0  0  0  0
  1  2  1  0        0
  2  3  1  0        0
  3  4  2  0        0
  4  5  1  0        0
  5  6  4  0        0
  6  7  4  0        0
  7  8  4  0        0
  8  9  1  0        0
  8 10  4  0        0
 10 11  4  0        0
  5 11  4  0        0
 11 12  1  0        0
  2 13  1  0        0
 13 14  2  0        0
 14 15  1  0        0
 15 16  4  0        0
 16 17  4  0        0
 17 18  4  0        0
 18 19  1  0        0
 18 20  4  0        0
 20 21  4  0        0
 15 21  4  0        0
 21 22  1  0        0
M  END
$$$$

CDXL12

 20 21  0  0  0  0  0  0  0  0999 V2000
   -0.3572   -1.0313    0.0000 C   0  0  0  0  0  0  0  2  0  0  0  0
    0.3572   -1.4438    0.0000 Cl  0  0  0  0  0  0  0  2  0  0  0  0
   -1.0717   -1.4437    0.0000 C   0  0  0  0  0  0  0  2  0  0  0  0
   -1.7862   -1.0313    0.0000 C   0  0  0  0  0  0  0  2  0  0  0  0
   -2.5006   -1.4437    0.0000 Cl  0  0  0  0  0  0  0  2  0  0  0  0
   -1.7862   -0.2062    0.0000 C   0  0  0  0  0  0  0  2  0  0  0  0
   -2.5006    0.2062    0.0000 Cl  0  0  0  0  0  0  0  2  0  0  0  0
   -1.0717    0.2062    0.0000 C   0  0  0  0  0  0  0  2  0  0  0  0
   -1.0717    1.0313    0.0000 Cl  0  0  0  0  0  0  0  2  0  0  0  0
   -0.3572   -0.2062    0.0000 C   0  0  0  0  0  0  0  2  0  0  0  0
    0.3572    0.2062    0.0000 C   0  0  0  0  0  0  0  2  0  0  0  0
    1.0717   -0.2063    0.0000 C   0  0  0  0  0  0  0  2  0  0  0  0
    1.0717   -1.0313    0.0000 Cl  0  0  0  0  0  0  0  2  0  0  0  0
    1.7862    0.2062    0.0000 C   0  0  0  0  0  0  0  2  0  0  0  0
    2.5006   -0.2063    0.0000 Cl  0  0  0  0  0  0  0  2  0  0  0  0
    1.7862    1.0312    0.0000 C   0  0  0  0  0  0  0  2  0  0  0  0
    2.5006    1.4437    0.0000 Cl  0  0  0  0  0  0  0  2  0  0  0  0
    1.0717    1.4437    0.0000 C   0  0  0  0  0  0  0  2  0  0  0  0
    0.3572    1.0312    0.0000 C   0  0  0  0  0  0  0  2  0  0  0  0
   -0.3572    1.4438    0.0000 Cl  0  0  0  0  0  0  0  2  0  0  0  0
  1  2  1  0        0
  1  3  4  0        0
  3  4  4  0        0
  4  5  1  0        0
  4  6  4  0        0
  6  7  1  0        0
  6  8  4  0        0
  8  9  1  0        0
  8 10  4  0        0
  1 10  4  0        0
 10 11  1  0        0
 11 12  4  0        0
 12 13  1  0        0
 12 14  4  0        0
 14 15  1  0        0
 14 16  4  0        0
 16 17  1  0        0
 16 18  4  0        0
 18 19  4  0        0
 11 19  4  0        0
 19 20  1  0        0
M  END
$$$$

CDXL12

 14 15  0  0  0  0  0  0  0  0999 V2000
    0.3572   -1.4438    0.0000 Cl  0  0  0  0  0  0  0  2  0  0  0  0
   -0.3572   -1.0313    0.0000 C   0  0  0  0  0  0  0  2  0  0  0  0
   -1.0717   -1.4437    0.0000 C   0  0  0  0  0  0  0  2  0  0  0  0
   -1.7862   -1.0313    0.0000 C   0  0  0  0  0  0  0  2  0  0  0  0
   -1.7862   -0.2062    0.0000 C   0  0  0  0  0  0  0  2  0  0  0  0
   -1.0717    0.2062    0.0000 C   0  0  0  0  0  0  0  2  0  0  0  0
   -1.0717    1.0313    0.0000 Cl  0  0  0  0  0  0  0  2  0  0  0  0
   -0.3572   -0.2062    0.0000 C   0  0  0  0  0  0  0  2  0  0  0  0
    0.3572    0.2062    0.0000 C   0  0  0  0  0  0  0  2  0  0  0  0
    0.3572    1.0313    0.0000 C   0  0  0  0  0  0  0  2  0  0  0  0
    1.0717    1.4438    0.0000 C   0  0  0  0  0  0  0  2  0  0  0  0
    1.7862    1.0313    0.0000 C   0  0  0  0  0  0  0  2  0  0  0  0
    1.7862    0.2062    0.0000 C   0  0  0  0  0  0  0  2  0  0  0  0
    1.0717   -0.2062    0.0000 C   0  0  0  0  0  0  0  2  0  0  0  0
  1  2  1  0        0
  2  3  4  0        0
  3  4  4  0        0
  4  5  4  0        0
  5  6  4  0        0
  6  7  1  0        0
  6  8  4  0        0
  2  8  4  0        0
  8  9  1  0        0
  9 10  4  0        0
 10 11  4  0        0
 11 12  4  0        0
 12 13  4  0        0
 13 14  4  0        0
  9 14  4  0        0
M  END
$$$$

CDXL12

 14 15  0  0  0  0  0  0  0  0999 V2000
   -2.1434   -1.4437    0.0000 Cl  0  0  0  0  0  0  0  2  0  0  0  0
   -1.4289   -1.0312    0.0000 C   0  0  0  0  0  0  0  2  0  0  0  0
   -1.4289   -0.2062    0.0000 C   0  0  0  0  0  0  0  2  0  0  0  0
   -0.7145    0.2063    0.0000 C   0  0  0  0  0  0  0  2  0  0  0  0
    0.0000   -0.2063    0.0000 C   0  0  0  0  0  0  0  2  0  0  0  0
    0.0000   -1.0312    0.0000 C   0  0  0  0  0  0  0  2  0  0  0  0
    0.7145   -1.4437    0.0000 Cl  0  0  0  0  0  0  0  2  0  0  0  0
   -0.7145   -1.4437    0.0000 C   0  0  0  0  0  0  0  2  0  0  0  0
    0.7145    0.2062    0.0000 C   0  0  0  0  0  0  0  2  0  0  0  0
    0.7145    1.0312    0.0000 C   0  0  0  0  0  0  0  2  0  0  0  0
    1.4289    1.4437    0.0000 C   0  0  0  0  0  0  0  2  0  0  0  0
    2.1434    1.0312    0.0000 C   0  0  0  0  0  0  0  2  0  0  0  0
    2.1434    0.2063    0.0000 C   0  0  0  0  0  0  0  2  0  0  0  0
    1.4289   -0.2063    0.0000 C   0  0  0  0  0  0  0  2  0  0  0  0
  1  2  1  0        0
  2  3  4  0        0
  3  4  4  0        0
  4  5  4  0        0
  5  6  4  0        0
  6  7  1  0        0
  6  8  4  0        0
  2  8  4  0        0
  5  9  1  0        0
  9 10  4  0        0
 10 11  4  0        0
 11 12  4  0        0
 12 13  4  0        0
 13 14  4  0        0
  9 14  4  0        0
M  END
$$$$

CDXL12

 16 17  0  0  0  0  0  0  0  0999 V2000
    2.5006    0.2062    0.0000 Cl  0  0  0  0  0  0  0  2  0  0  0  0
    1.7862   -0.2063    0.0000 C   0  0  0  0  0  0  0  2  0  0  0  0
    1.7862   -1.0313    0.0000 C   0  0  0  0  0  0  0  2  0  0  0  0
    1.0717   -1.4437    0.0000 C   0  0  0  0  0  0  0  2  0  0  0  0
    1.0717   -2.2687    0.0000 Cl  0  0  0  0  0  0  0  2  0  0  0  0
    0.3572   -1.0313    0.0000 C   0  0  0  0  0  0  0  2  0  0  0  0
    0.3572   -0.2063    0.0000 C   0  0  0  0  0  0  0  2  0  0  0  0
    1.0717    0.2062    0.0000 C   0  0  0  0  0  0  0  2  0  0  0  0
   -0.3572    0.2062    0.0000 C   0  0  0  0  0  0  0  2  0  0  0  0
   -0.3572    1.0312    0.0000 C   0  0  0  0  0  0  0  2  0  0  0  0
   -1.0717    1.4437    0.0000 C   0  0  0  0  0  0  0  2  0  0  0  0
   -1.0717    2.2687    0.0000 Cl  0  0  0  0  0  0  0  2  0  0  0  0
   -1.7862    1.0312    0.0000 C   0  0  0  0  0  0  0  2  0  0  0  0
   -1.7862    0.2062    0.0000 C   0  0  0  0  0  0  0  2  0  0  0  0
   -2.5006   -0.2063    0.0000 Cl  0  0  0  0  0  0  0  2  0  0  0  0
   -1.0717   -0.2063    0.0000 C   0  0  0  0  0  0  0  2  0  0  0  0
  1  2  1  0        0
  2  3  4  0        0
  3  4  4  0        0
  4  5  1  0        0
  4  6  4  0        0
  6  7  4  0        0
  7  8  4  0        0
  2  8  4  0        0
  7  9  1  0        0
  9 10  4  0        0
 10 11  4  0        0
 11 12  1  0        0
 11 13  4  0        0
 13 14  4  0        0
 14 15  1  0        0
 14 16  4  0        0
  9 16  4  0        0
M  END
$$$$

CDXL12

 16 17  0  0  0  0  0  0  0  0999 V2000
   -2.1434   -0.6187    0.0000 Cl  0  0  0  0  0  0  0  2  0  0  0  0
   -1.4289   -0.2062    0.0000 C   0  0  0  0  0  0  0  2  0  0  0  0
   -1.4289    0.6188    0.0000 C   0  0  0  0  0  0  0  2  0  0  0  0
   -0.7145    1.0313    0.0000 C   0  0  0  0  0  0  0  2  0  0  0  0
   -0.7145    1.8563    0.0000 Cl  0  0  0  0  0  0  0  2  0  0  0  0
    0.0000    0.6187    0.0000 C   0  0  0  0  0  0  0  2  0  0  0  0
    0.7145    1.0312    0.0000 Cl  0  0  0  0  0  0  0  2  0  0  0  0
    0.0000   -0.2062    0.0000 C   0  0  0  0  0  0  0  2  0  0  0  0
    0.7145   -0.6188    0.0000 C   0  0  0  0  0  0  0  2  0  0  0  0
    1.4289   -0.2062    0.0000 C   0  0  0  0  0  0  0  2  0  0  0  0
    2.1434   -0.6187    0.0000 C   0  0  0  0  0  0  0  2  0  0  0  0
    2.1434   -1.4438    0.0000 C   0  0  0  0  0  0  0  2  0  0  0  0
    1.4289   -1.8563    0.0000 C   0  0  0  0  0  0  0  2  0  0  0  0
    0.7145   -1.4438    0.0000 C   0  0  0  0  0  0  0  2  0  0  0  0
   -0.7145   -0.6187    0.0000 C   0  0  0  0  0  0  0  2  0  0  0  0
   -0.7145   -1.4437    0.0000 Cl  0  0  0  0  0  0  0  2  0  0  0  0
  1  2  1  0        0
  2  3  4  0        0
  3  4  4  0        0
  4  5  1  0        0
  4  6  4  0        0
  6  7  1  0        0
  6  8  4  0        0
  8  9  1  0        0
  9 10  4  0        0
 10 11  4  0        0
 11 12  4  0        0
 12 13  4  0        0
 13 14  4  0        0
  9 14  4  0        0
  8 15  4  0        0
  2 15  4  0        0
 15 16  1  0        0
M  END
$$$$

CDXL12

 23 23  0  0  0  0  0  0  0  0999 V2000
   -3.2151    0.8250    0.0000 C   0  0  0  0  0  0  0  2  0  0  0  0
   -3.9296    0.4125    0.0000 C   0  0  0  0  0  0  0  2  0  0  0  0
   -3.9296   -0.4125    0.0000 C   0  0  0  0  0  0  0  2  0  0  0  0
   -3.2151   -0.8250    0.0000 C   0  0  0  0  0  0  0  2  0  0  0  0
   -2.5006   -0.4125    0.0000 C   0  0  0  0  0  0  0  2  0  0  0  0
   -1.7862   -0.8250    0.0000 C   0  0  0  0  0  0  0  2  0  0  0  0
   -1.7862   -1.6500    0.0000 O   0  0  0  0  0  0  0  2  0  0  0  0
   -1.0717   -0.4125    0.0000 O   0  0  0  0  0  0  0  2  0  0  0  0
   -0.3572   -0.8250    0.0000 C   0  0  0  0  0  0  0  2  0  0  0  0
    0.3572   -0.4125    0.0000 C   0  0  0  0  0  0  0  2  0  0  0  0
    1.0717   -0.8250    0.0000 O   0  0  0  0  0  0  0  2  0  0  0  0
    1.7862   -0.4125    0.0000 C   0  0  0  0  0  0  0  2  0  0  0  0
    2.5006   -0.8250    0.0000 C   0  0  0  0  0  0  0  2  0  0  0  0
    3.2151   -0.4125    0.0000 C   0  0  0  0  0  0  0  2  0  0  0  0
    3.9296   -0.8250    0.0000 C   0  0  0  0  0  0  0  2  0  0  0  0
   -2.5006    0.4125    0.0000 C   0  0  0  0  0  0  0  2  0  0  0  0
   -1.7862    0.8250    0.0000 C   0  0  0  0  0  0  0  2  0  0  0  0
   -1.7862    1.6500    0.0000 O   0  0  0  0  0  0  0  2  0  0  0  0
   -1.0717    0.4125    0.0000 O   0  0  0  0  0  0  0  2  0  0  0  0
   -0.3572    0.8250    0.0000 C   0  0  0  0  0  0  0  2  0  0  0  0
    0.3572    0.4125    0.0000 C   0  0  0  0  0  0  0  2  0  0  0  0
    1.0717    0.8250    0.0000 C   0  0  0  0  0  0  0  2  0  0  0  0
    1.7862    0.4125    0.0000 C   0  0  0  0  0  0  0  2  0  0  0  0
  1  2  4  0        0
  2  3  4  0        0
  3  4  4  0        0
  4  5  4  0        0
  5  6  1  0        0
  6  7  2  0        0
  6  8  1  0        0
  8  9  1  0        0
  9 10  1  0        0
 10 11  1  0        0
 11 12  1  0        0
 12 13  1  0        0
 13 14  1  0        0
 14 15  1  0        0
  5 16  4  0        0
  1 16  4  0        0
 16 17  1  0        0
 17 18  2  0        0
 17 19  1  0        0
 19 20  1  0        0
 20 21  1  0        0
 21 22  1  0        0
 22 23  1  0        0
M  END
$$$$

CDXL12

 16 16  0  0  0  0  0  0  0  0999 V2000
    0.0000    1.0313    0.0000 O   0  0  0  0  0  0  0  2  0  0  0  0
    0.0000    0.2062    0.0000 C   0  0  0  0  0  0  0  2  0  0  0  0
   -0.7145   -0.2062    0.0000 N   0  0  0  0  0  0  0  2  0  0  0  0
   -0.7145   -1.0313    0.0000 C   0  0  0  0  0  0  0  2  0  0  0  0
    0.0000   -1.4438    0.0000 N   0  0  0  0  0  0  0  2  0  0  0  0
    0.7145   -1.0313    0.0000 C   0  0  0  0  0  0  0  2  0  0  0  0
    1.4289   -1.4438    0.0000 N   0  0  0  0  0  0  0  2  0  0  0  0
    2.1434   -1.0313    0.0000 C   0  0  0  0  0  0  0  2  0  0  0  0
    2.1434   -0.2062    0.0000 C   0  0  0  0  0  0  0  2  0  0  0  0
    2.8579   -0.6188    0.0000 C   0  0  0  0  0  0  0  2  0  0  0  0
    2.8579   -1.4438    0.0000 C   0  0  0  0  0  0  0  2  0  0  0  0
    0.7145   -0.2063    0.0000 N   0  0  0  0  0  0  0  2  0  0  0  0
   -1.4289   -1.4438    0.0000 N   0  0  0  0  0  0  0  2  0  0  0  0
   -2.1434   -1.0313    0.0000 C   0  0  0  0  0  0  0  2  0  0  0  0
   -2.8579   -1.4438    0.0000 C   0  0  0  0  0  0  0  2  0  0  0  0
   -0.7145    1.4438    0.0000 C   0  0  0  0  0  0  0  2  0  0  0  0
  1  2  1  0        0
  2  3  4  0        0
  3  4  4  0        0
  4  5  4  0        0
  5  6  4  0        0
  6  7  1  0        0
  7  8  1  0        0
  8  9  1  0        0
  8 10  1  0        0
  8 11  1  0        0
  6 12  4  0        0
  2 12  4  0        0
  4 13  1  0        0
 13 14  1  0        0
 14 15  1  0        0
  1 16  1  0        0
M  END
$$$$

CDXL12

 32 34  0  0  0  0  0  0  0  0999 V2000
    1.0948   -0.8239    0.0000 C   0  0  0  0  0  0  0  2  0  0  0  0
    1.9198   -0.8239    0.0000 N   0  0  0  0  0  0  0  2  0  0  0  0
    1.4349   -1.4913    0.0000 C   0  0  0  0  0  0  0  2  0  0  0  0
    2.2054   -1.5979    0.0000 C   0  0  0  0  0  0  0  2  0  0  0  0
    2.7220   -1.0164    0.0000 C   0  0  0  0  0  0  0  2  0  0  0  0
    3.4255   -0.5854    0.0000 C   0  0  0  0  0  0  0  2  0  0  0  0
    3.6181    0.2168    0.0000 O   0  0  0  0  0  0  0  2  0  0  0  0
    3.1870    0.9202    0.0000 P   0  0  0  0  0  0  0  2  0  0  0  0
    3.2732    1.7407    0.0000 O   0  0  0  0  0  0  0  2  0  0  0  0
    3.9407    1.2558    0.0000 O   0  0  0  0  0  0  0  2  0  0  0  0
    4.6081    0.7709    0.0000 Na  0  0  0  0  0  0  0  2  0  0  0  0
    2.3848    1.1128    0.0000 O   0  0  0  0  0  0  0  2  0  0  0  0
    1.6814    0.6818    0.0000 P   0  0  0  0  0  0  0  2  0  0  0  0
    1.3458    1.4355    0.0000 O   0  0  0  0  0  0  0  2  0  0  0  0
    1.4888   -0.1204    0.0000 O   0  0  0  0  0  0  0  2  0  0  0  0
    0.8609    0.7680    0.0000 O   0  0  0  0  0  0  0  2  0  0  0  0
    0.3760    0.1006    0.0000 C   0  0  0  0  0  0  0  2  0  0  0  0
   -0.4445    0.1868    0.0000 C   0  0  0  0  0  0  0  2  0  0  0  0
   -0.8570    0.9013    0.0000 C   0  0  0  0  0  0  0  2  0  0  0  0
   -0.5215    1.6550    0.0000 O   0  0  0  0  0  0  0  2  0  0  0  0
   -1.6640    0.7298    0.0000 C   0  0  0  0  0  0  0  2  0  0  0  0
   -2.2771    1.2818    0.0000 O   0  0  0  0  0  0  0  2  0  0  0  0
   -1.7502   -0.0907    0.0000 C   0  0  0  0  0  0  0  2  0  0  0  0
   -2.4647   -0.5032    0.0000 N   0  0  0  0  0  0  0  2  0  0  0  0
   -2.4647   -1.3282    0.0000 C   0  0  0  0  0  0  0  2  0  0  0  0
   -1.7502   -1.7407    0.0000 O   0  0  0  0  0  0  0  2  0  0  0  0
   -3.1792   -1.7407    0.0000 N   0  0  0  0  0  0  0  2  0  0  0  0
   -3.8936   -1.3282    0.0000 C   0  0  0  0  0  0  0  2  0  0  0  0
   -4.6081   -1.7407    0.0000 N   0  0  0  0  0  0  0  2  0  0  0  0
   -3.8936   -0.5032    0.0000 C   0  0  0  0  0  0  0  2  0  0  0  0
   -3.1792   -0.0907    0.0000 C   0  0  0  0  0  0  0  2  0  0  0  0
   -0.9966   -0.4263    0.0000 O   0  0  0  0  0  0  0  2  0  0  0  0
  1  2  1  0        0
  2  3  1  0        0
  2  4  1  0        0
  2  5  1  0        0
  5  6  1  0        0
  6  7  1  0        0
  7  8  1  0        0
  8  9  2  0        0
  8 10  1  0        0
 10 11  1  0        0
  8 12  1  0        0
 12 13  1  0        0
 13 14  2  0        0
 13 15  1  0        0
  2 15  1  0        0
 13 16  1  0        0
 16 17  1  0        0
 17 18  1  0        0
 18 19  1  0        0
 19 20  1  0        0
 19 21  1  0        0
 21 22  1  0        0
 21 23  1  0        0
 23 24  1  0        0
 24 25  1  0        0
 25 26  2  0        0
 25 27  1  0        0
 27 28  2  0        0
 28 29  1  0        0
 28 30  1  0        0
 30 31  2  0        0
 24 31  1  0        0
 23 32  1  0        0
 18 32  1  0        0
M  END
$$$$

CDXL12

 18 19  0  0  0  0  0  0  0  0999 V2000
   -2.5006   -1.4437    0.0000 Cl  0  0  0  0  0  0  0  2  0  0  0  0
   -1.7862   -1.0312    0.0000 C   0  0  0  0  0  0  0  2  0  0  0  0
   -1.7862   -0.2062    0.0000 C   0  0  0  0  0  0  0  2  0  0  0  0
   -1.0717    0.2063    0.0000 C   0  0  0  0  0  0  0  2  0  0  0  0
   -1.0717    1.0313    0.0000 Cl  0  0  0  0  0  0  0  2  0  0  0  0
   -0.3572   -0.2063    0.0000 C   0  0  0  0  0  0  0  2  0  0  0  0
   -0.3572   -1.0312    0.0000 C   0  0  0  0  0  0  0  2  0  0  0  0
    0.3572   -1.4437    0.0000 Cl  0  0  0  0  0  0  0  2  0  0  0  0
   -1.0717   -1.4437    0.0000 C   0  0  0  0  0  0  0  2  0  0  0  0
    0.3572    0.2062    0.0000 C   0  0  0  0  0  0  0  2  0  0  0  0
    0.3572    1.0312    0.0000 C   0  0  0  0  0  0  0  2  0  0  0  0
   -0.3572    1.4437    0.0000 Cl  0  0  0  0  0  0  0  2  0  0  0  0
    1.0717    1.4437    0.0000 C   0  0  0  0  0  0  0  2  0  0  0  0
    1.7862    1.0312    0.0000 C   0  0  0  0  0  0  0  2  0  0  0  0
    2.5006    1.4437    0.0000 Cl  0  0  0  0  0  0  0  2  0  0  0  0
    1.7862    0.2063    0.0000 C   0  0  0  0  0  0  0  2  0  0  0  0
    1.0717   -0.2063    0.0000 C   0  0  0  0  0  0  0  2  0  0  0  0
    1.0717   -1.0312    0.0000 Cl  0  0  0  0  0  0  0  2  0  0  0  0
  1  2  1  0        0
  2  3  4  0        0
  3  4  4  0        0
  4  5  1  0        0
  4  6  4  0        0
  6  7  4  0        0
  7  8  1  0        0
  7  9  4  0        0
  2  9  4  0        0
  6 10  1  0        0
 10 11  4  0        0
 11 12  1  0        0
 11 13  4  0        0
 13 14  4  0        0
 14 15  1  0        0
 14 16  4  0        0
 16 17  4  0        0
 10 17  4  0        0
 17 18  1  0        0
M  END
$$$$

CDXL12

 15 15  0  0  0  0  0  0  0  0999 V2000
    2.9023    0.1227    0.0000 C   0  0  0  0  0  0  0  2  0  0  0  0
    2.1878   -0.2898    0.0000 N   0  0  0  0  0  0  0  2  0  0  0  0
    1.4733    0.1227    0.0000 C   0  0  0  0  0  0  0  2  0  0  0  0
    1.4733    0.9477    0.0000 O   0  0  0  0  0  0  0  2  0  0  0  0
    0.7589   -0.2898    0.0000 N   0  0  0  0  0  0  0  2  0  0  0  0
    0.7589   -1.1148    0.0000 C   0  0  0  0  0  0  0  2  0  0  0  0
    0.0444    0.1227    0.0000 C   0  0  0  0  0  0  0  2  0  0  0  0
   -0.0418    0.9432    0.0000 N   0  0  0  0  0  0  0  2  0  0  0  0
   -0.8488    1.1148    0.0000 N   0  0  0  0  0  0  0  2  0  0  0  0
   -1.2613    0.4003    0.0000 C   0  0  0  0  0  0  0  2  0  0  0  0
   -0.7093   -0.2128    0.0000 S   0  0  0  0  0  0  0  2  0  0  0  0
   -2.0818    0.3140    0.0000 C   0  0  0  0  0  0  0  2  0  0  0  0
   -2.4174   -0.4396    0.0000 C   0  0  0  0  0  0  0  2  0  0  0  0
   -2.9023    0.2278    0.0000 C   0  0  0  0  0  0  0  2  0  0  0  0
   -2.5667    0.9815    0.0000 C   0  0  0  0  0  0  0  2  0  0  0  0
  1  2  1  0        0
  2  3  1  0        0
  3  4  2  0        0
  3  5  1  0        0
  5  6  1  0        0
  5  7  1  0        0
  7  8  4  0        0
  8  9  4  0        0
  9 10  4  0        0
 10 11  4  0        0
  7 11  4  0        0
 10 12  1  0        0
 12 13  1  0        0
 12 14  1  0        0
 12 15  1  0        0
M  END
$$$$

CDXL12

 15 15  0  0  0  0  0  0  0  0999 V2000
    2.1434    1.6500    0.0000 C   0  0  0  0  0  0  0  2  0  0  0  0
    2.1434    0.8250    0.0000 C   0  0  0  0  0  0  0  2  0  0  0  0
    2.8579    0.4125    0.0000 C   0  0  0  0  0  0  0  2  0  0  0  0
    1.4289    0.4125    0.0000 C   0  0  0  0  0  0  0  2  0  0  0  0
    1.4289   -0.4125    0.0000 C   0  0  0  0  0  0  0  2  0  0  0  0
    0.7145   -0.8250    0.0000 C   0  0  0  0  0  0  0  2  0  0  0  0
    0.0000   -0.4125    0.0000 C   0  0  0  0  0  0  0  2  0  0  0  0
   -0.7145   -0.8250    0.0000 N   0  0  0  0  0  0  0  2  0  0  0  0
   -1.4289   -0.4125    0.0000 C   0  0  0  0  0  0  0  2  0  0  0  0
   -1.4289    0.4125    0.0000 O   0  0  0  0  0  0  0  2  0  0  0  0
   -2.1434   -0.8250    0.0000 N   0  0  0  0  0  0  0  2  0  0  0  0
   -2.1434   -1.6500    0.0000 C   0  0  0  0  0  0  0  2  0  0  0  0
   -2.8579   -0.4125    0.0000 C   0  0  0  0  0  0  0  2  0  0  0  0
    0.0000    0.4125    0.0000 C   0  0  0  0  0  0  0  2  0  0  0  0
    0.7145    0.8250    0.0000 C   0  0  0  0  0  0  0  2  0  0  0  0
  1  2  1  0        0
  2  3  1  0        0
  2  4  1  0        0
  4  5  4  0        0
  5  6  4  0        0
  6  7  4  0        0
  7  8  1  0        0
  8  9  1  0        0
  9 10  2  0        0
  9 11  1  0        0
 11 12  1  0        0
 11 13  1  0        0
  7 14  4  0        0
 14 15  4  0        0
  4 15  4  0        0
M  END
$$$$

CDXL12

 21 22  0  0  0  0  0  0  0  0999 V2000
    3.5724   -1.6500    0.0000 C   0  0  0  0  0  0  0  2  0  0  0  0
    2.8579   -1.2375    0.0000 C   0  0  0  0  0  0  0  2  0  0  0  0
    2.1434   -1.6500    0.0000 C   0  0  0  0  0  0  0  2  0  0  0  0
    1.4289   -1.2375    0.0000 C   0  0  0  0  0  0  0  2  0  0  0  0
    1.4289   -0.4125    0.0000 C   0  0  0  0  0  0  0  2  0  0  0  0
    0.7145    0.0000    0.0000 C   0  0  0  0  0  0  0  2  0  0  0  0
    0.0000   -0.4125    0.0000 C   0  0  0  0  0  0  0  2  0  0  0  0
    0.0000   -1.2375    0.0000 C   0  0  0  0  0  0  0  2  0  0  0  0
   -0.7145   -1.6500    0.0000 C   0  0  0  0  0  0  0  2  0  0  0  0
   -1.4289   -1.2375    0.0000 C   0  0  0  0  0  0  0  2  0  0  0  0
   -2.1434   -1.6500    0.0000 O   0  0  0  0  0  0  0  2  0  0  0  0
   -2.8579   -1.2375    0.0000 C   0  0  0  0  0  0  0  2  0  0  0  0
   -3.5724   -1.6500    0.0000 C   0  0  0  0  0  0  0  2  0  0  0  0
   -1.4289   -0.4125    0.0000 C   0  0  0  0  0  0  0  2  0  0  0  0
   -0.7145    0.0000    0.0000 C   0  0  0  0  0  0  0  2  0  0  0  0
    0.7145    0.8250    0.0000 C   0  0  0  0  0  0  0  2  0  0  0  0
    0.0000    1.2375    0.0000 Cl  0  0  0  0  0  0  0  2  0  0  0  0
    1.4289    1.2375    0.0000 Cl  0  0  0  0  0  0  0  2  0  0  0  0
    0.7145    1.6500    0.0000 Cl  0  0  0  0  0  0  0  2  0  0  0  0
    2.1434   -0.0000    0.0000 C   0  0  0  0  0  0  0  2  0  0  0  0
    2.8579   -0.4125    0.0000 C   0  0  0  0  0  0  0  2  0  0  0  0
  1  2  1  0        0
  2  3  4  0        0
  3  4  4  0        0
  4  5  4  0        0
  5  6  1  0        0
  6  7  1  0        0
  7  8  4  0        0
  8  9  4  0        0
  9 10  4  0        0
 10 11  1  0        0
 11 12  1  0        0
 12 13  1  0        0
 10 14  4  0        0
 14 15  4  0        0
  7 15  4  0        0
  6 16  1  0        0
 16 17  1  0        0
 16 18  1  0        0
 16 19  1  0        0
  5 20  4  0        0
 20 21  4  0        0
  2 21  4  0        0
M  END
$$$$

CDXL12

 21 22  0  0  0  0  0  0  0  0999 V2000
    2.5006    2.2687    0.0000 C   0  0  0  0  0  0  0  2  0  0  0  0
    1.7862    2.6812    0.0000 O   0  0  0  0  0  0  0  2  0  0  0  0
    1.0717    2.2687    0.0000 C   0  0  0  0  0  0  0  2  0  0  0  0
    1.0717    1.4437    0.0000 C   0  0  0  0  0  0  0  2  0  0  0  0
    0.3572    1.0313    0.0000 C   0  0  0  0  0  0  0  2  0  0  0  0
   -0.3572    1.4437    0.0000 C   0  0  0  0  0  0  0  2  0  0  0  0
   -0.3572    2.2687    0.0000 C   0  0  0  0  0  0  0  2  0  0  0  0
    0.3572    2.6812    0.0000 C   0  0  0  0  0  0  0  2  0  0  0  0
   -1.0717    1.0313    0.0000 C   0  0  0  0  0  0  0  2  0  0  0  0
   -1.0717    0.2063    0.0000 C   0  0  0  0  0  0  0  2  0  0  0  0
   -0.3572   -0.2062    0.0000 C   0  0  0  0  0  0  0  2  0  0  0  0
   -0.3572   -1.0312    0.0000 C   0  0  0  0  0  0  0  2  0  0  0  0
   -1.0717   -1.4437    0.0000 C   0  0  0  0  0  0  0  2  0  0  0  0
   -1.0717   -2.2687    0.0000 S   0  0  0  0  0  0  0  2  0  0  0  0
   -1.7862   -2.6812    0.0000 C   0  0  0  0  0  0  0  2  0  0  0  0
   -1.7862   -1.0312    0.0000 C   0  0  0  0  0  0  0  2  0  0  0  0
   -1.7862   -0.2062    0.0000 C   0  0  0  0  0  0  0  2  0  0  0  0
   -1.7862    1.4437    0.0000 C   0  0  0  0  0  0  0  2  0  0  0  0
   -2.5006    1.0313    0.0000 Cl  0  0  0  0  0  0  0  2  0  0  0  0
   -1.7862    2.2687    0.0000 Cl  0  0  0  0  0  0  0  2  0  0  0  0
   -2.5006    1.8562    0.0000 Cl  0  0  0  0  0  0  0  2  0  0  0  0
  1  2  1  0        0
  2  3  1  0        0
  3  4  4  0        0
  4  5  4  0        0
  5  6  4  0        0
  6  7  4  0        0
  7  8  4  0        0
  3  8  4  0        0
  6  9  1  0        0
  9 10  1  0        0
 10 11  4  0        0
 11 12  4  0        0
 12 13  4  0        0
 13 14  1  0        0
 14 15  1  0        0
 13 16  4  0        0
 16 17  4  0        0
 10 17  4  0        0
  9 18  1  0        0
 18 19  1  0        0
 18 20  1  0        0
 18 21  1  0        0
M  END
$$$$

CDXL12

 23 24  0  0  0  0  0  0  0  0999 V2000
    0.5005    1.9238    0.0000 O   0  0  0  0  0  0  0  2  0  0  0  0
    1.1136    1.3717    0.0000 C   0  0  0  0  0  0  0  2  0  0  0  0
    1.9205    1.5433    0.0000 O   0  0  0  0  0  0  0  2  0  0  0  0
    2.3330    0.8288    0.0000 C   0  0  0  0  0  0  0  2  0  0  0  0
    3.1535    0.7425    0.0000 C   0  0  0  0  0  0  0  2  0  0  0  0
    3.9740    0.6563    0.0000 C   0  0  0  0  0  0  0  2  0  0  0  0
    3.4891   -0.0111    0.0000 C   0  0  0  0  0  0  0  2  0  0  0  0
    3.6384    1.4100    0.0000 C   0  0  0  0  0  0  0  2  0  0  0  0
    1.7810    0.2157    0.0000 N   0  0  0  0  0  0  0  2  0  0  0  0
    1.0273    0.5512    0.0000 N   0  0  0  0  0  0  0  2  0  0  0  0
    0.3128    0.1387    0.0000 C   0  0  0  0  0  0  0  2  0  0  0  0
   -0.4016    0.5512    0.0000 C   0  0  0  0  0  0  0  2  0  0  0  0
   -1.1161    0.1387    0.0000 C   0  0  0  0  0  0  0  2  0  0  0  0
   -1.1161   -0.6863    0.0000 C   0  0  0  0  0  0  0  2  0  0  0  0
   -1.8306   -1.0988    0.0000 N   0  0  0  0  0  0  0  2  0  0  0  0
   -2.5450   -0.6863    0.0000 C   0  0  0  0  0  0  0  2  0  0  0  0
   -2.5450    0.1387    0.0000 O   0  0  0  0  0  0  0  2  0  0  0  0
   -3.2595   -1.0988    0.0000 N   0  0  0  0  0  0  0  2  0  0  0  0
   -3.2595   -1.9238    0.0000 C   0  0  0  0  0  0  0  2  0  0  0  0
   -3.9740   -0.6863    0.0000 C   0  0  0  0  0  0  0  2  0  0  0  0
   -0.4016   -1.0988    0.0000 C   0  0  0  0  0  0  0  2  0  0  0  0
    0.3128   -0.6863    0.0000 C   0  0  0  0  0  0  0  2  0  0  0  0
    1.0273   -1.0988    0.0000 Cl  0  0  0  0  0  0  0  2  0  0  0  0
  1  2  2  0        0
  2  3  1  0        0
  3  4  1  0        0
  4  5  1  0        0
  5  6  1  0        0
  5  7  1  0        0
  5  8  1  0        0
  4  9  2  0        0
  9 10  1  0        0
  2 10  1  0        0
 10 11  1  0        0
 11 12  4  0        0
 12 13  4  0        0
 13 14  4  0        0
 14 15  1  0        0
 15 16  1  0        0
 16 17  2  0        0
 16 18  1  0        0
 18 19  1  0        0
 18 20  1  0        0
 14 21  4  0        0
 21 22  4  0        0
 11 22  4  0        0
 22 23  1  0        0
M  END
$$$$

CDXL12

 18 18  0  0  0  0  0  0  0  0999 V2000
   -1.7862   -0.2062    0.0000 C   0  0  0  0  0  0  0  2  0  0  0  0
   -1.0717   -0.6188    0.0000 C   0  0  0  0  0  0  0  2  0  0  0  0
   -1.0717   -1.4438    0.0000 C   0  0  0  0  0  0  0  2  0  0  0  0
   -0.3572   -1.8563    0.0000 C   0  0  0  0  0  0  0  2  0  0  0  0
    0.3572   -1.4437    0.0000 C   0  0  0  0  0  0  0  2  0  0  0  0
    0.3572   -0.6187    0.0000 C   0  0  0  0  0  0  0  2  0  0  0  0
    1.0717   -0.2062    0.0000 C   0  0  0  0  0  0  0  2  0  0  0  0
    1.7862   -0.6187    0.0000 C   0  0  0  0  0  0  0  2  0  0  0  0
   -0.3572   -0.2062    0.0000 C   0  0  0  0  0  0  0  2  0  0  0  0
   -0.3572    0.6188    0.0000 N   0  0  0  0  0  0  0  2  0  0  0  0
   -1.0717    1.0313    0.0000 C   0  0  0  0  0  0  0  2  0  0  0  0
   -1.0717    1.8563    0.0000 O   0  0  0  0  0  0  0  2  0  0  0  0
   -1.7862    0.6188    0.0000 C   0  0  0  0  0  0  0  2  0  0  0  0
   -2.5006    1.0312    0.0000 Cl  0  0  0  0  0  0  0  2  0  0  0  0
    0.3572    1.0313    0.0000 C   0  0  0  0  0  0  0  2  0  0  0  0
    1.0717    0.6188    0.0000 O   0  0  0  0  0  0  0  2  0  0  0  0
    1.7862    1.0312    0.0000 C   0  0  0  0  0  0  0  2  0  0  0  0
    2.5006    0.6188    0.0000 C   0  0  0  0  0  0  0  2  0  0  0  0
  1  2  1  0        0
  2  3  4  0        0
  3  4  4  0        0
  4  5  4  0        0
  5  6  4  0        0
  6  7  1  0        0
  7  8  1  0        0
  6  9  4  0        0
  2  9  4  0        0
  9 10  1  0        0
 10 11  1  0        0
 11 12  2  0        0
 11 13  1  0        0
 13 14  1  0        0
 10 15  1  0        0
 15 16  1  0        0
 16 17  1  0        0
 17 18  1  0        0
M  END
$$$$

CDXL12

 18 18  0  0  0  0  0  0  0  0999 V2000
    0.0000    1.6500    0.0000 S   0  0  0  0  0  0  0  2  0  0  0  0
    0.0000    0.8250    0.0000 P   0  0  0  0  0  0  0  2  0  0  0  0
   -0.7145    0.4125    0.0000 O   0  0  0  0  0  0  0  2  0  0  0  0
   -1.4289    0.8250    0.0000 C   0  0  0  0  0  0  0  2  0  0  0  0
   -2.1434    0.4125    0.0000 C   0  0  0  0  0  0  0  2  0  0  0  0
    0.7145    0.4125    0.0000 S   0  0  0  0  0  0  0  2  0  0  0  0
    1.4289    0.8250    0.0000 C   0  0  0  0  0  0  0  2  0  0  0  0
    2.1434    0.4125    0.0000 C   0  0  0  0  0  0  0  2  0  0  0  0
    2.8579    0.8250    0.0000 C   0  0  0  0  0  0  0  2  0  0  0  0
    0.0000    0.0000    0.0000 O   0  0  0  0  0  0  0  2  0  0  0  0
   -0.7145   -0.4125    0.0000 C   0  0  0  0  0  0  0  2  0  0  0  0
   -1.4289    0.0000    0.0000 C   0  0  0  0  0  0  0  2  0  0  0  0
   -2.1434   -0.4125    0.0000 C   0  0  0  0  0  0  0  2  0  0  0  0
   -2.1434   -1.2375    0.0000 C   0  0  0  0  0  0  0  2  0  0  0  0
   -2.8579   -1.6500    0.0000 Cl  0  0  0  0  0  0  0  2  0  0  0  0
   -1.4289   -1.6500    0.0000 C   0  0  0  0  0  0  0  2  0  0  0  0
   -0.7145   -1.2375    0.0000 C   0  0  0  0  0  0  0  2  0  0  0  0
    0.0000   -1.6500    0.0000 Cl  0  0  0  0  0  0  0  2  0  0  0  0
  1  2  2  0        0
  2  3  1  0        0
  3  4  1  0        0
  4  5  1  0        0
  2  6  1  0        0
  6  7  1  0        0
  7  8  1  0        0
  8  9  1  0        0
  2 10  1  0        0
 10 11  1  0        0
 11 12  4  0        0
 12 13  4  0        0
 13 14  4  0        0
 14 15  1  0        0
 14 16  4  0        0
 16 17  4  0        0
 11 17  4  0        0
 17 18  1  0        0
M  END
$$$$

CDXL12

 14 13  0  0  0  0  0  0  0  0999 V2000
    2.8579   -0.6188    0.0000 C   0  0  0  0  0  0  0  2  0  0  0  0
    2.1434   -0.2062    0.0000 S   0  0  0  0  0  0  0  2  0  0  0  0
    1.7309   -0.9207    0.0000 O   0  0  0  0  0  0  0  2  0  0  0  0
    2.5559    0.5082    0.0000 O   0  0  0  0  0  0  0  2  0  0  0  0
    1.4289    0.2062    0.0000 C   0  0  0  0  0  0  0  2  0  0  0  0
    1.4289    1.0312    0.0000 C   0  0  0  0  0  0  0  2  0  0  0  0
    0.7145   -0.2062    0.0000 C   0  0  0  0  0  0  0  2  0  0  0  0
    0.7145   -1.0313    0.0000 C   0  0  0  0  0  0  0  2  0  0  0  0
   -0.0000    0.2062    0.0000 N   0  0  0  0  0  0  0  2  0  0  0  0
   -0.7145   -0.2062    0.0000 O   0  0  0  0  0  0  0  2  0  0  0  0
   -1.4289    0.2062    0.0000 C   0  0  0  0  0  0  0  2  0  0  0  0
   -1.4289    1.0313    0.0000 O   0  0  0  0  0  0  0  2  0  0  0  0
   -2.1434   -0.2062    0.0000 N   0  0  0  0  0  0  0  2  0  0  0  0
   -2.8579    0.2062    0.0000 C   0  0  0  0  0  0  0  2  0  0  0  0
  1  2  1  0        0
  2  3  2  0        0
  2  4  2  0        0
  2  5  1  0        0
  5  6  1  0        0
  5  7  1  0        0
  7  8  1  0        0
  7  9  2  0        0
  9 10  1  0        0
 10 11  1  0        0
 11 12  2  0        0
 11 13  1  0        0
 13 14  1  0        0
M  END
$$$$

CDXL12

 14 15  0  0  0  0  0  0  0  0999 V2000
    0.7145    1.4438    0.0000 C   0  0  0  0  0  0  0  2  0  0  0  0
    1.4289    1.8562    0.0000 C   0  0  0  0  0  0  0  2  0  0  0  0
    2.1434    1.4437    0.0000 C   0  0  0  0  0  0  0  2  0  0  0  0
    2.1434    0.6187    0.0000 C   0  0  0  0  0  0  0  2  0  0  0  0
    1.4289    0.2062    0.0000 C   0  0  0  0  0  0  0  2  0  0  0  0
    0.7145    0.6188    0.0000 C   0  0  0  0  0  0  0  2  0  0  0  0
    0.0000    0.2062    0.0000 C   0  0  0  0  0  0  0  2  0  0  0  0
    0.0000   -0.6188    0.0000 C   0  0  0  0  0  0  0  2  0  0  0  0
   -0.7145   -1.0312    0.0000 C   0  0  0  0  0  0  0  2  0  0  0  0
   -0.7145   -1.8562    0.0000 Cl  0  0  0  0  0  0  0  2  0  0  0  0
   -1.4289   -0.6188    0.0000 C   0  0  0  0  0  0  0  2  0  0  0  0
   -1.4289    0.2062    0.0000 C   0  0  0  0  0  0  0  2  0  0  0  0
   -2.1434    0.6188    0.0000 Cl  0  0  0  0  0  0  0  2  0  0  0  0
   -0.7145    0.6188    0.0000 C   0  0  0  0  0  0  0  2  0  0  0  0
  1  2  4  0        0
  2  3  4  0        0
  3  4  4  0        0
  4  5  4  0        0
  5  6  4  0        0
  1  6  4  0        0
  6  7  1  0        0
  7  8  4  0        0
  8  9  4  0        0
  9 10  1  0        0
  9 11  4  0        0
 11 12  4  0        0
 12 13  1  0        0
 12 14  4  0        0
  7 14  4  0        0
M  END
$$$$

CDXL12

 17 17  0  0  0  0  0  0  0  0999 V2000
    1.0717   -0.8250    0.0000 C   0  0  0  0  0  0  0  2  0  0  0  0
    1.7862   -1.2375    0.0000 C   0  0  0  0  0  0  0  2  0  0  0  0
    2.5006   -0.8250    0.0000 C   0  0  0  0  0  0  0  2  0  0  0  0
    2.5006    0.0000    0.0000 C   0  0  0  0  0  0  0  2  0  0  0  0
    1.7862    0.4125    0.0000 C   0  0  0  0  0  0  0  2  0  0  0  0
    1.0717    0.0000    0.0000 C   0  0  0  0  0  0  0  2  0  0  0  0
    0.3572    0.4125    0.0000 C   0  0  0  0  0  0  0  2  0  0  0  0
   -0.3572    0.0000    0.0000 N   0  0  0  0  0  0  0  2  0  0  0  0
   -1.0717    0.4125    0.0000 C   0  0  0  0  0  0  0  2  0  0  0  0
   -1.0717    1.2375    0.0000 O   0  0  0  0  0  0  0  2  0  0  0  0
   -1.7862    0.0000    0.0000 C   0  0  0  0  0  0  0  2  0  0  0  0
   -2.5006    0.4125    0.0000 C   0  0  0  0  0  0  0  2  0  0  0  0
   -2.5006   -0.4125    0.0000 C   0  0  0  0  0  0  0  2  0  0  0  0
   -1.7862   -0.8250    0.0000 C   0  0  0  0  0  0  0  2  0  0  0  0
   -0.3572   -0.8250    0.0000 C   0  0  0  0  0  0  0  2  0  0  0  0
   -1.0717   -1.2375    0.0000 C   0  0  0  0  0  0  0  2  0  0  0  0
    0.3572   -1.2375    0.0000 C   0  0  0  0  0  0  0  2  0  0  0  0
  1  2  4  0        0
  2  3  4  0        0
  3  4  4  0        0
  4  5  4  0        0
  5  6  4  0        0
  1  6  4  0        0
  6  7  1  0        0
  7  8  1  0        0
  8  9  1  0        0
  9 10  2  0        0
  9 11  1  0        0
 11 12  1  0        0
 11 13  1  0        0
 11 14  1  0        0
  8 15  1  0        0
 15 16  1  0        0
 15 17  1  0        0
M  END
$$$$

CDXL12

 21 22  0  0  0  0  0  0  0  0999 V2000
    0.0000    1.0313    0.0000 O   0  0  0  0  0  0  0  2  0  0  0  0
    0.0000    0.2062    0.0000 C   0  0  0  0  0  0  0  2  0  0  0  0
   -0.7145   -0.2062    0.0000 N   0  0  0  0  0  0  0  2  0  0  0  0
   -1.4289    0.2062    0.0000 C   0  0  0  0  0  0  0  2  0  0  0  0
   -1.4289    1.0313    0.0000 O   0  0  0  0  0  0  0  2  0  0  0  0
   -2.1434   -0.2062    0.0000 C   0  0  0  0  0  0  0  2  0  0  0  0
   -2.1434   -1.0312    0.0000 C   0  0  0  0  0  0  0  2  0  0  0  0
   -1.4289   -1.4437    0.0000 F   0  0  0  0  0  0  0  2  0  0  0  0
   -2.8579   -1.4438    0.0000 C   0  0  0  0  0  0  0  2  0  0  0  0
   -3.5724   -1.0313    0.0000 C   0  0  0  0  0  0  0  2  0  0  0  0
   -3.5724   -0.2062    0.0000 C   0  0  0  0  0  0  0  2  0  0  0  0
   -2.8579    0.2062    0.0000 C   0  0  0  0  0  0  0  2  0  0  0  0
   -2.8579    1.0313    0.0000 F   0  0  0  0  0  0  0  2  0  0  0  0
    0.7145   -0.2062    0.0000 N   0  0  0  0  0  0  0  2  0  0  0  0
    1.4289    0.2062    0.0000 C   0  0  0  0  0  0  0  2  0  0  0  0
    1.4289    1.0313    0.0000 C   0  0  0  0  0  0  0  2  0  0  0  0
    2.1434    1.4438    0.0000 C   0  0  0  0  0  0  0  2  0  0  0  0
    2.8579    1.0313    0.0000 C   0  0  0  0  0  0  0  2  0  0  0  0
    2.8579    0.2062    0.0000 C   0  0  0  0  0  0  0  2  0  0  0  0
    2.1434   -0.2062    0.0000 C   0  0  0  0  0  0  0  2  0  0  0  0
    3.5724    1.4438    0.0000 Cl  0  0  0  0  0  0  0  2  0  0  0  0
  1  2  2  0        0
  2  3  1  0        0
  3  4  1  0        0
  4  5  2  0        0
  4  6  1  0        0
  6  7  4  0        0
  7  8  1  0        0
  7  9  4  0        0
  9 10  4  0        0
 10 11  4  0        0
 11 12  4  0        0
  6 12  4  0        0
 12 13  1  0        0
  2 14  1  0        0
 14 15  1  0        0
 15 16  4  0        0
 16 17  4  0        0
 17 18  4  0        0
 18 19  4  0        0
 19 20  4  0        0
 15 20  4  0        0
 18 21  1  0        0
M  END
$$$$

CDXL12

 18 18  0  0  0  0  0  0  0  0999 V2000
    0.3572    1.6500    0.0000 S   0  0  0  0  0  0  0  2  0  0  0  0
    0.3572    0.8250    0.0000 P   0  0  0  0  0  0  0  2  0  0  0  0
   -0.3572    0.4125    0.0000 O   0  0  0  0  0  0  0  2  0  0  0  0
   -1.0717    0.8250    0.0000 C   0  0  0  0  0  0  0  2  0  0  0  0
   -1.7862    0.4125    0.0000 C   0  0  0  0  0  0  0  2  0  0  0  0
    1.0717    0.4125    0.0000 S   0  0  0  0  0  0  0  2  0  0  0  0
    1.7862    0.8250    0.0000 C   0  0  0  0  0  0  0  2  0  0  0  0
    2.5006    0.4125    0.0000 C   0  0  0  0  0  0  0  2  0  0  0  0
    3.2151    0.8250    0.0000 C   0  0  0  0  0  0  0  2  0  0  0  0
    0.3572    0.0000    0.0000 O   0  0  0  0  0  0  0  2  0  0  0  0
   -0.3572   -0.4125    0.0000 C   0  0  0  0  0  0  0  2  0  0  0  0
   -0.3572   -1.2375    0.0000 C   0  0  0  0  0  0  0  2  0  0  0  0
   -1.0717   -1.6500    0.0000 C   0  0  0  0  0  0  0  2  0  0  0  0
   -1.7862   -1.2375    0.0000 C   0  0  0  0  0  0  0  2  0  0  0  0
   -2.5006   -1.6500    0.0000 S   0  0  0  0  0  0  0  2  0  0  0  0
   -3.2151   -1.2375    0.0000 C   0  0  0  0  0  0  0  2  0  0  0  0
   -1.7862   -0.4125    0.0000 C   0  0  0  0  0  0  0  2  0  0  0  0
   -1.0717    0.0000    0.0000 C   0  0  0  0  0  0  0  2  0  0  0  0
  1  2  2  0        0
  2  3  1  0        0
  3  4  1  0        0
  4  5  1  0        0
  2  6  1  0        0
  6  7  1  0        0
  7  8  1  0        0
  8  9  1  0        0
  2 10  1  0        0
 10 11  1  0        0
 11 12  4  0        0
 12 13  4  0        0
 13 14  4  0        0
 14 15  1  0        0
 15 16  1  0        0
 14 17  4  0        0
 17 18  4  0        0
 11 18  4  0        0
M  END
$$$$

CDXL12

 19 20  0  0  0  0  0  0  0  0999 V2000
   -0.7761   -0.2062    0.0000 C   0  0  0  0  0  0  0  2  0  0  0  0
   -0.7761    0.6188    0.0000 C   0  0  0  0  0  0  0  2  0  0  0  0
   -0.0616    1.0313    0.0000 C   0  0  0  0  0  0  0  2  0  0  0  0
   -0.0616    1.8563    0.0000 Cl  0  0  0  0  0  0  0  2  0  0  0  0
    0.6529    0.6188    0.0000 C   0  0  0  0  0  0  0  2  0  0  0  0
    0.6529   -0.2062    0.0000 C   0  0  0  0  0  0  0  2  0  0  0  0
    1.3673   -0.6188    0.0000 Cl  0  0  0  0  0  0  0  2  0  0  0  0
   -0.0616   -0.6188    0.0000 C   0  0  0  0  0  0  0  2  0  0  0  0
   -0.0616   -1.4438    0.0000 C   0  0  0  0  0  0  0  2  0  0  0  0
    0.6529   -1.8563    0.0000 O   0  0  0  0  0  0  0  2  0  0  0  0
    1.3673   -1.4438    0.0000 C   0  0  0  0  0  0  0  2  0  0  0  0
    2.0818   -1.8563    0.0000 C   0  0  0  0  0  0  0  2  0  0  0  0
    2.7963   -1.4438    0.0000 C   0  0  0  0  0  0  0  2  0  0  0  0
   -0.7761   -1.8563    0.0000 C   0  0  0  0  0  0  0  2  0  0  0  0
   -1.4906   -1.4437    0.0000 N   0  0  0  0  0  0  0  2  0  0  0  0
   -2.2442   -1.7793    0.0000 C   0  0  0  0  0  0  0  2  0  0  0  0
   -2.7963   -1.1662    0.0000 N   0  0  0  0  0  0  0  2  0  0  0  0
   -2.3838   -0.4517    0.0000 C   0  0  0  0  0  0  0  2  0  0  0  0
   -1.5768   -0.6233    0.0000 C   0  0  0  0  0  0  0  2  0  0  0  0
  1  2  4  0        0
  2  3  4  0        0
  3  4  1  0        0
  3  5  4  0        0
  5  6  4  0        0
  6  7  1  0        0
  6  8  4  0        0
  1  8  4  0        0
  8  9  1  0        0
  9 10  1  0        0
 10 11  1  0        0
 11 12  1  0        0
 12 13  2  0        0
  9 14  1  0        0
 14 15  1  0        0
 15 16  4  0        0
 16 17  4  0        0
 17 18  4  0        0
 18 19  4  0        0
 15 19  4  0        0
M  END
$$$$

CDXL12

 19 20  0  0  0  0  0  0  0  0999 V2000
   -2.8019    2.0947    0.0000 Cl  0  0  0  0  0  0  0  2  0  0  0  0
   -2.0875    1.6822    0.0000 C   0  0  0  0  0  0  0  2  0  0  0  0
   -2.0875    0.8572    0.0000 C   0  0  0  0  0  0  0  2  0  0  0  0
   -1.3730    0.4447    0.0000 N   0  0  0  0  0  0  0  2  0  0  0  0
   -0.6585    0.8572    0.0000 C   0  0  0  0  0  0  0  2  0  0  0  0
    0.1261    0.6022    0.0000 N   0  0  0  0  0  0  0  2  0  0  0  0
    0.3810   -0.1824    0.0000 C   0  0  0  0  0  0  0  2  0  0  0  0
    1.1880   -0.3539    0.0000 S   0  0  0  0  0  0  0  2  0  0  0  0
    1.4429   -1.1385    0.0000 P   0  0  0  0  0  0  0  2  0  0  0  0
    0.8909   -1.7516    0.0000 O   0  0  0  0  0  0  0  2  0  0  0  0
    2.2499   -1.3101    0.0000 O   0  0  0  0  0  0  0  2  0  0  0  0
    2.5049   -2.0947    0.0000 C   0  0  0  0  0  0  0  2  0  0  0  0
    1.9950   -0.5254    0.0000 O   0  0  0  0  0  0  0  2  0  0  0  0
    2.8019   -0.6970    0.0000 C   0  0  0  0  0  0  0  2  0  0  0  0
    0.6110    1.2697    0.0000 C   0  0  0  0  0  0  0  2  0  0  0  0
    1.4360    1.2697    0.0000 O   0  0  0  0  0  0  0  2  0  0  0  0
    0.1261    1.9371    0.0000 O   0  0  0  0  0  0  0  2  0  0  0  0
   -0.6585    1.6822    0.0000 C   0  0  0  0  0  0  0  2  0  0  0  0
   -1.3730    2.0947    0.0000 C   0  0  0  0  0  0  0  2  0  0  0  0
  1  2  1  0        0
  2  3  4  0        0
  3  4  4  0        0
  4  5  4  0        0
  5  6  1  0        0
  6  7  1  0        0
  7  8  1  0        0
  8  9  1  0        0
  9 10  2  0        0
  9 11  1  0        0
 11 12  1  0        0
  9 13  1  0        0
 13 14  1  0        0
  6 15  1  0        0
 15 16  2  0        0
 15 17  1  0        0
 17 18  1  0        0
  5 18  4  0        0
 18 19  4  0        0
  2 19  4  0        0
M  END
$$$$

CDXL12

 16 17  0  0  0  0  0  0  0  0999 V2000
   -1.0717   -0.2062    0.0000 C   0  0  0  0  0  0  0  2  0  0  0  0
   -1.7862    0.2062    0.0000 C   0  0  0  0  0  0  0  2  0  0  0  0
   -2.5006   -0.2062    0.0000 Cl  0  0  0  0  0  0  0  2  0  0  0  0
   -1.7862    1.0313    0.0000 C   0  0  0  0  0  0  0  2  0  0  0  0
   -1.0717    1.4438    0.0000 C   0  0  0  0  0  0  0  2  0  0  0  0
   -0.3572    1.0312    0.0000 C   0  0  0  0  0  0  0  2  0  0  0  0
    0.3572    1.4438    0.0000 Cl  0  0  0  0  0  0  0  2  0  0  0  0
   -0.3572    0.2062    0.0000 C   0  0  0  0  0  0  0  2  0  0  0  0
    0.3572   -0.2062    0.0000 C   0  0  0  0  0  0  0  2  0  0  0  0
    0.3572   -1.0313    0.0000 C   0  0  0  0  0  0  0  2  0  0  0  0
   -0.3572   -1.4438    0.0000 Cl  0  0  0  0  0  0  0  2  0  0  0  0
    1.0717   -1.4438    0.0000 C   0  0  0  0  0  0  0  2  0  0  0  0
    1.7862   -1.0313    0.0000 C   0  0  0  0  0  0  0  2  0  0  0  0
    1.7862   -0.2062    0.0000 C   0  0  0  0  0  0  0  2  0  0  0  0
    2.5006    0.2062    0.0000 Cl  0  0  0  0  0  0  0  2  0  0  0  0
    1.0717    0.2062    0.0000 C   0  0  0  0  0  0  0  2  0  0  0  0
  1  2  4  0        0
  2  3  1  0        0
  2  4  4  0        0
  4  5  4  0        0
  5  6  4  0        0
  6  7  1  0        0
  6  8  4  0        0
  1  8  4  0        0
  8  9  1  0        0
  9 10  4  0        0
 10 11  1  0        0
 10 12  4  0        0
 12 13  4  0        0
 13 14  4  0        0
 14 15  1  0        0
 14 16  4  0        0
  9 16  4  0        0
M  END
$$$$

CDXL12

 18 19  0  0  0  0  0  0  0  0999 V2000
    0.3572    1.4438    0.0000 Cl  0  0  0  0  0  0  0  2  0  0  0  0
   -0.3572    1.0313    0.0000 C   0  0  0  0  0  0  0  2  0  0  0  0
   -0.3572    0.2062    0.0000 C   0  0  0  0  0  0  0  2  0  0  0  0
   -1.0717   -0.2062    0.0000 C   0  0  0  0  0  0  0  2  0  0  0  0
   -1.7862    0.2062    0.0000 C   0  0  0  0  0  0  0  2  0  0  0  0
   -1.7862    1.0313    0.0000 C   0  0  0  0  0  0  0  2  0  0  0  0
   -1.0717    1.4438    0.0000 C   0  0  0  0  0  0  0  2  0  0  0  0
   -1.0717    2.2687    0.0000 Cl  0  0  0  0  0  0  0  2  0  0  0  0
   -2.5006   -0.2062    0.0000 Cl  0  0  0  0  0  0  0  2  0  0  0  0
    0.3572   -0.2062    0.0000 C   0  0  0  0  0  0  0  2  0  0  0  0
    1.0717    0.2062    0.0000 C   0  0  0  0  0  0  0  2  0  0  0  0
    1.7862   -0.2062    0.0000 C   0  0  0  0  0  0  0  2  0  0  0  0
    1.7862   -1.0313    0.0000 C   0  0  0  0  0  0  0  2  0  0  0  0
    1.0717   -1.4438    0.0000 C   0  0  0  0  0  0  0  2  0  0  0  0
    0.3572   -1.0313    0.0000 C   0  0  0  0  0  0  0  2  0  0  0  0
   -0.3572   -1.4438    0.0000 Cl  0  0  0  0  0  0  0  2  0  0  0  0
    1.0717   -2.2687    0.0000 Cl  0  0  0  0  0  0  0  2  0  0  0  0
    2.5006    0.2062    0.0000 Cl  0  0  0  0  0  0  0  2  0  0  0  0
  1  2  1  0        0
  2  3  4  0        0
  3  4  4  0        0
  4  5  4  0        0
  5  6  4  0        0
  6  7  4  0        0
  2  7  4  0        0
  7  8  1  0        0
  5  9  1  0        0
  3 10  1  0        0
 10 11  4  0        0
 11 12  4  0        0
 12 13  4  0        0
 13 14  4  0        0
 14 15  4  0        0
 10 15  4  0        0
 15 16  1  0        0
 14 17  1  0        0
 12 18  1  0        0
M  END
$$$$

CDXL12

 23 25  0  0  0  0  0  0  0  0999 V2000
    0.3572    1.0865    0.0000 C   0  0  0  0  0  0  0  2  0  0  0  0
   -0.3572    0.6740    0.0000 N   0  0  0  0  0  0  0  2  0  0  0  0
   -0.3572   -0.1510    0.0000 C   0  0  0  0  0  0  0  2  0  0  0  0
   -1.0717   -0.5635    0.0000 C   0  0  0  0  0  0  0  2  0  0  0  0
   -1.0717   -1.3885    0.0000 O   0  0  0  0  0  0  0  2  0  0  0  0
   -1.7862   -0.1510    0.0000 C   0  0  0  0  0  0  0  2  0  0  0  0
   -2.5006   -0.5635    0.0000 C   0  0  0  0  0  0  0  2  0  0  0  0
   -3.2151   -0.1510    0.0000 C   0  0  0  0  0  0  0  2  0  0  0  0
   -3.2151    0.6740    0.0000 C   0  0  0  0  0  0  0  2  0  0  0  0
   -2.5006    1.0865    0.0000 C   0  0  0  0  0  0  0  2  0  0  0  0
   -1.7862    0.6740    0.0000 C   0  0  0  0  0  0  0  2  0  0  0  0
   -1.0717    1.0865    0.0000 S   0  0  0  0  0  0  0  2  0  0  0  0
   -0.6592    1.8010    0.0000 O   0  0  0  0  0  0  0  2  0  0  0  0
   -1.4842    1.8010    0.0000 O   0  0  0  0  0  0  0  2  0  0  0  0
    0.3572   -0.5635    0.0000 C   0  0  0  0  0  0  0  2  0  0  0  0
    0.3572   -1.3885    0.0000 O   0  0  0  0  0  0  0  2  0  0  0  0
    1.0717   -0.1510    0.0000 N   0  0  0  0  0  0  0  2  0  0  0  0
    1.7862   -0.5635    0.0000 C   0  0  0  0  0  0  0  2  0  0  0  0
    2.5006   -0.1510    0.0000 C   0  0  0  0  0  0  0  2  0  0  0  0
    3.2151   -0.5635    0.0000 C   0  0  0  0  0  0  0  2  0  0  0  0
    3.2151   -1.3885    0.0000 C   0  0  0  0  0  0  0  2  0  0  0  0
    2.5006   -1.8010    0.0000 C   0  0  0  0  0  0  0  2  0  0  0  0
    1.7862   -1.3885    0.0000 N   0  0  0  0  0  0  0  2  0  0  0  0
  1  2  1  0        0
  2  3  1  0        0
  3  4  2  0        0
  4  5  1  0        0
  4  6  1  0        0
  6  7  4  0        0
  7  8  4  0        0
  8  9  4  0        0
  9 10  4  0        0
 10 11  4  0        0
  6 11  4  0        0
 11 12  1  0        0
  2 12  1  0        0
 12 13  2  0        0
 12 14  2  0        0
  3 15  1  0        0
 15 16  2  0        0
 15 17  1  0        0
 17 18  1  0        0
 18 19  4  0        0
 19 20  4  0        0
 20 21  4  0        0
 21 22  4  0        0
 22 23  4  0        0
 18 23  4  0        0
M  END
$$$$

CDXL12

 21 21  0  0  0  0  0  0  0  0999 V2000
    0.0000   -2.0625    0.0000 S   0  0  0  0  0  0  0  2  0  0  0  0
    0.0000   -1.2375    0.0000 P   0  0  0  0  0  0  0  2  0  0  0  0
    0.7145   -0.8250    0.0000 O   0  0  0  0  0  0  0  2  0  0  0  0
    1.4289   -1.2375    0.0000 C   0  0  0  0  0  0  0  2  0  0  0  0
    2.1434   -0.8250    0.0000 C   0  0  0  0  0  0  0  2  0  0  0  0
   -0.7145   -0.8250    0.0000 N   0  0  0  0  0  0  0  2  0  0  0  0
   -1.4289   -1.2375    0.0000 C   0  0  0  0  0  0  0  2  0  0  0  0
   -1.4289   -2.0625    0.0000 C   0  0  0  0  0  0  0  2  0  0  0  0
   -2.1434   -0.8250    0.0000 C   0  0  0  0  0  0  0  2  0  0  0  0
   -2.8579   -1.2375    0.0000 C   0  0  0  0  0  0  0  2  0  0  0  0
    0.0000   -0.4125    0.0000 O   0  0  0  0  0  0  0  2  0  0  0  0
    0.7145    0.0000    0.0000 C   0  0  0  0  0  0  0  2  0  0  0  0
    0.7145    0.8250    0.0000 C   0  0  0  0  0  0  0  2  0  0  0  0
    0.0000    1.2375    0.0000 N   0  0  0  0  0  0  0  2  0  0  0  0
    0.0000    2.0625    0.0000 O   0  0  0  0  0  0  0  2  0  0  0  0
   -0.7145    0.8250    0.0000 O   0  0  0  0  0  0  0  2  0  0  0  0
    1.4289    1.2375    0.0000 C   0  0  0  0  0  0  0  2  0  0  0  0
    2.1434    0.8250    0.0000 C   0  0  0  0  0  0  0  2  0  0  0  0
    2.1434    0.0000    0.0000 C   0  0  0  0  0  0  0  2  0  0  0  0
    2.8579   -0.4125    0.0000 C   0  0  0  0  0  0  0  2  0  0  0  0
    1.4289   -0.4125    0.0000 C   0  0  0  0  0  0  0  2  0  0  0  0
  1  2  2  0        0
  2  3  1  0        0
  3  4  1  0        0
  4  5  1  0        0
  2  6  1  0        0
  6  7  1  0        0
  7  8  1  0        0
  7  9  1  0        0
  9 10  1  0        0
  2 11  1  0        0
 11 12  1  0        0
 12 13  4  0        0
 13 14  1  0        0
 14 15  2  0        0
 14 16  2  0        0
 13 17  4  0        0
 17 18  4  0        0
 18 19  4  0        0
 19 20  1  0        0
 19 21  4  0        0
 12 21  4  0        0
M  END
$$$$

CDXL12

  9  8  0  0  0  0  0  0  0  0999 V2000
    1.4289    0.5635    0.0000 Br  0  0  0  0  0  0  0  2  0  0  0  0
    0.7145    0.1510    0.0000 C   0  0  0  0  0  0  0  2  0  0  0  0
    0.0000   -0.2615    0.0000 C   0  0  0  0  0  0  0  2  0  0  0  0
   -0.7145    0.1510    0.0000 C   0  0  0  0  0  0  0  2  0  0  0  0
   -1.4289   -0.2615    0.0000 O   0  0  0  0  0  0  0  2  0  0  0  0
    0.4125   -0.9760    0.0000 C   0  0  0  0  0  0  0  2  0  0  0  0
   -0.4125   -0.9760    0.0000 C   0  0  0  0  0  0  0  2  0  0  0  0
    0.7145    0.9760    0.0000 Br  0  0  0  0  0  0  0  2  0  0  0  0
    1.4289   -0.2615    0.0000 Br  0  0  0  0  0  0  0  2  0  0  0  0
  1  2  1  0        0
  2  3  1  0        0
  3  4  1  0        0
  4  5  1  0        0
  3  6  1  0        0
  3  7  1  0        0
  2  8  1  0        0
  2  9  1  0        0
M  END
$$$$

CDXL12

 23 24  0  0  0  0  0  0  0  0999 V2000
   -0.3572    1.4438    0.0000 O   0  0  0  0  0  0  0  2  0  0  0  0
   -0.3572    0.6187    0.0000 P   0  0  0  0  0  0  0  2  0  0  0  0
   -1.0717    0.2062    0.0000 O   0  0  0  0  0  0  0  2  0  0  0  0
   -1.7862    0.6187    0.0000 C   0  0  0  0  0  0  0  2  0  0  0  0
   -2.5006    0.2062    0.0000 C   0  0  0  0  0  0  0  2  0  0  0  0
    0.3572    0.2062    0.0000 O   0  0  0  0  0  0  0  2  0  0  0  0
    1.0717    0.6188    0.0000 C   0  0  0  0  0  0  0  2  0  0  0  0
    1.0717    1.4437    0.0000 C   0  0  0  0  0  0  0  2  0  0  0  0
    0.3572    1.8562    0.0000 Cl  0  0  0  0  0  0  0  2  0  0  0  0
    1.7862    1.8563    0.0000 C   0  0  0  0  0  0  0  2  0  0  0  0
    2.5006    1.4438    0.0000 C   0  0  0  0  0  0  0  2  0  0  0  0
    3.2151    1.8563    0.0000 Cl  0  0  0  0  0  0  0  2  0  0  0  0
    2.5006    0.6188    0.0000 C   0  0  0  0  0  0  0  2  0  0  0  0
    1.7862    0.2062    0.0000 C   0  0  0  0  0  0  0  2  0  0  0  0
   -0.3572   -0.2062    0.0000 O   0  0  0  0  0  0  0  2  0  0  0  0
   -1.0717   -0.6188    0.0000 C   0  0  0  0  0  0  0  2  0  0  0  0
   -1.0717   -1.4438    0.0000 C   0  0  0  0  0  0  0  2  0  0  0  0
   -0.3572   -1.8563    0.0000 Cl  0  0  0  0  0  0  0  2  0  0  0  0
   -1.7862   -1.8563    0.0000 C   0  0  0  0  0  0  0  2  0  0  0  0
   -2.5006   -1.4438    0.0000 C   0  0  0  0  0  0  0  2  0  0  0  0
   -3.2151   -1.8563    0.0000 Cl  0  0  0  0  0  0  0  2  0  0  0  0
   -2.5006   -0.6188    0.0000 C   0  0  0  0  0  0  0  2  0  0  0  0
   -1.7862   -0.2062    0.0000 C   0  0  0  0  0  0  0  2  0  0  0  0
  1  2  2  0        0
  2  3  1  0        0
  3  4  1  0        0
  4  5  1  0        0
  2  6  1  0        0
  6  7  1  0        0
  7  8  4  0        0
  8  9  1  0        0
  8 10  4  0        0
 10 11  4  0        0
 11 12  1  0        0
 11 13  4  0        0
 13 14  4  0        0
  7 14  4  0        0
  2 15  1  0        0
 15 16  1  0        0
 16 17  4  0        0
 17 18  1  0        0
 17 19  4  0        0
 19 20  4  0        0
 20 21  1  0        0
 20 22  4  0        0
 22 23  4  0        0
 16 23  4  0        0
M  END
$$$$

CDXL12

 16 17  0  0  0  0  0  0  0  0999 V2000
    2.1434   -1.8563    0.0000 Cl  0  0  0  0  0  0  0  2  0  0  0  0
    1.4289   -1.4438    0.0000 C   0  0  0  0  0  0  0  2  0  0  0  0
    0.7145   -1.8563    0.0000 C   0  0  0  0  0  0  0  2  0  0  0  0
    0.0000   -1.4438    0.0000 C   0  0  0  0  0  0  0  2  0  0  0  0
   -0.7145   -1.8563    0.0000 Cl  0  0  0  0  0  0  0  2  0  0  0  0
    0.0000   -0.6188    0.0000 C   0  0  0  0  0  0  0  2  0  0  0  0
   -0.7145   -0.2062    0.0000 C   0  0  0  0  0  0  0  2  0  0  0  0
   -1.4289   -0.6187    0.0000 C   0  0  0  0  0  0  0  2  0  0  0  0
   -2.1434   -0.2062    0.0000 C   0  0  0  0  0  0  0  2  0  0  0  0
   -2.1434    0.6188    0.0000 C   0  0  0  0  0  0  0  2  0  0  0  0
   -1.4289    1.0313    0.0000 C   0  0  0  0  0  0  0  2  0  0  0  0
   -0.7145    0.6188    0.0000 C   0  0  0  0  0  0  0  2  0  0  0  0
    0.0000    1.0313    0.0000 Cl  0  0  0  0  0  0  0  2  0  0  0  0
   -1.4289    1.8563    0.0000 Cl  0  0  0  0  0  0  0  2  0  0  0  0
    0.7145   -0.2062    0.0000 C   0  0  0  0  0  0  0  2  0  0  0  0
    1.4289   -0.6188    0.0000 C   0  0  0  0  0  0  0  2  0  0  0  0
  1  2  1  0        0
  2  3  4  0        0
  3  4  4  0        0
  4  5  1  0        0
  4  6  4  0        0
  6  7  1  0        0
  7  8  4  0        0
  8  9  4  0        0
  9 10  4  0        0
 10 11  4  0        0
 11 12  4  0        0
  7 12  4  0        0
 12 13  1  0        0
 11 14  1  0        0
  6 15  4  0        0
 15 16  4  0        0
  2 16  4  0        0
M  END
$$$$

CDXL12

 13 12  0  0  0  0  0  0  0  0999 V2000
    1.4289    1.0313    0.0000 S   0  0  0  0  0  0  0  2  0  0  0  0
    1.4289    0.2062    0.0000 P   0  0  0  0  0  0  0  2  0  0  0  0
    2.1434   -0.2062    0.0000 O   0  0  0  0  0  0  0  2  0  0  0  0
    2.8579    0.2062    0.0000 C   0  0  0  0  0  0  0  2  0  0  0  0
    1.4289   -0.6188    0.0000 O   0  0  0  0  0  0  0  2  0  0  0  0
    2.1434   -1.0313    0.0000 C   0  0  0  0  0  0  0  2  0  0  0  0
    0.7145   -0.2062    0.0000 S   0  0  0  0  0  0  0  2  0  0  0  0
    0.0000    0.2062    0.0000 C   0  0  0  0  0  0  0  2  0  0  0  0
   -0.7145   -0.2062    0.0000 C   0  0  0  0  0  0  0  2  0  0  0  0
   -1.4289    0.2062    0.0000 S   0  0  0  0  0  0  0  2  0  0  0  0
   -2.1434   -0.2062    0.0000 C   0  0  0  0  0  0  0  2  0  0  0  0
   -2.1434   -1.0313    0.0000 C   0  0  0  0  0  0  0  2  0  0  0  0
   -2.8579    0.2062    0.0000 C   0  0  0  0  0  0  0  2  0  0  0  0
  1  2  2  0        0
  2  3  1  0        0
  3  4  1  0        0
  2  5  1  0        0
  5  6  1  0        0
  2  7  1  0        0
  7  8  1  0        0
  8  9  1  0        0
  9 10  1  0        0
 10 11  1  0        0
 11 12  1  0        0
 11 13  1  0        0
M  END
$$$$

CDXL12

 21 22  0  0  0  0  0  0  0  0999 V2000
    1.9324   -0.7341    0.0000 C   0  0  0  0  0  0  0  2  0  0  0  0
    2.7529   -0.8203    0.0000 C   0  0  0  0  0  0  0  2  0  0  0  0
    3.0885   -1.5740    0.0000 Cl  0  0  0  0  0  0  0  2  0  0  0  0
    3.2378   -0.1529    0.0000 C   0  0  0  0  0  0  0  2  0  0  0  0
    2.9023    0.6008    0.0000 C   0  0  0  0  0  0  0  2  0  0  0  0
    3.3872    1.2682    0.0000 Cl  0  0  0  0  0  0  0  2  0  0  0  0
    2.0818    0.6870    0.0000 C   0  0  0  0  0  0  0  2  0  0  0  0
    1.5969    0.0196    0.0000 C   0  0  0  0  0  0  0  2  0  0  0  0
    0.7764    0.1058    0.0000 N   0  0  0  0  0  0  0  2  0  0  0  0
    0.3639    0.8203    0.0000 C   0  0  0  0  0  0  0  2  0  0  0  0
    0.6994    1.5740    0.0000 O   0  0  0  0  0  0  0  2  0  0  0  0
   -0.4431    0.6488    0.0000 C   0  0  0  0  0  0  0  2  0  0  0  0
   -0.5293   -0.1717    0.0000 N   0  0  0  0  0  0  0  2  0  0  0  0
   -1.2438   -0.5842    0.0000 C   0  0  0  0  0  0  0  2  0  0  0  0
   -1.2438   -1.4092    0.0000 O   0  0  0  0  0  0  0  2  0  0  0  0
   -1.9583   -0.1717    0.0000 N   0  0  0  0  0  0  0  2  0  0  0  0
   -2.6727   -0.5842    0.0000 C   0  0  0  0  0  0  0  2  0  0  0  0
   -2.6727   -1.4092    0.0000 C   0  0  0  0  0  0  0  2  0  0  0  0
   -3.3872   -0.1717    0.0000 C   0  0  0  0  0  0  0  2  0  0  0  0
    0.2244   -0.5073    0.0000 C   0  0  0  0  0  0  0  2  0  0  0  0
    0.3959   -1.3142    0.0000 O   0  0  0  0  0  0  0  2  0  0  0  0
  1  2  4  0        0
  2  3  1  0        0
  2  4  4  0        0
  4  5  4  0        0
  5  6  1  0        0
  5  7  4  0        0
  7  8  4  0        0
  1  8  4  0        0
  8  9  1  0        0
  9 10  1  0        0
 10 11  2  0        0
 10 12  1  0        0
 12 13  1  0        0
 13 14  1  0        0
 14 15  2  0        0
 14 16  1  0        0
 16 17  1  0        0
 17 18  1  0        0
 17 19  1  0        0
 13 20  1  0        0
  9 20  1  0        0
 20 21  2  0        0
M  END
$$$$

CDXL12

 19 19  0  0  0  0  0  0  0  0999 V2000
    1.7862   -0.4125    0.0000 C   0  0  0  0  0  0  0  2  0  0  0  0
    2.5006   -0.8250    0.0000 C   0  0  0  0  0  0  0  2  0  0  0  0
    3.2151   -0.4125    0.0000 C   0  0  0  0  0  0  0  2  0  0  0  0
    3.2151    0.4125    0.0000 C   0  0  0  0  0  0  0  2  0  0  0  0
    2.5006    0.8250    0.0000 C   0  0  0  0  0  0  0  2  0  0  0  0
    1.7862    0.4125    0.0000 C   0  0  0  0  0  0  0  2  0  0  0  0
    1.0717    0.8250    0.0000 C   0  0  0  0  0  0  0  2  0  0  0  0
    0.3572    0.4125    0.0000 S   0  0  0  0  0  0  0  2  0  0  0  0
   -0.3572    0.8250    0.0000 C   0  0  0  0  0  0  0  2  0  0  0  0
   -0.3572    1.6500    0.0000 O   0  0  0  0  0  0  0  2  0  0  0  0
   -1.0717    0.4125    0.0000 N   0  0  0  0  0  0  0  2  0  0  0  0
   -1.7862    0.8250    0.0000 C   0  0  0  0  0  0  0  2  0  0  0  0
   -1.7862    1.6500    0.0000 C   0  0  0  0  0  0  0  2  0  0  0  0
   -2.5006    0.4125    0.0000 C   0  0  0  0  0  0  0  2  0  0  0  0
   -3.2151    0.8250    0.0000 C   0  0  0  0  0  0  0  2  0  0  0  0
   -1.0717   -0.4125    0.0000 C   0  0  0  0  0  0  0  2  0  0  0  0
   -0.3572   -0.8250    0.0000 C   0  0  0  0  0  0  0  2  0  0  0  0
   -1.7862   -0.8250    0.0000 C   0  0  0  0  0  0  0  2  0  0  0  0
   -1.7862   -1.6500    0.0000 C   0  0  0  0  0  0  0  2  0  0  0  0
  1  2  4  0        0
  2  3  4  0        0
  3  4  4  0        0
  4  5  4  0        0
  5  6  4  0        0
  1  6  4  0        0
  6  7  1  0        0
  7  8  1  0        0
  8  9  1  0        0
  9 10  2  0        0
  9 11  1  0        0
 11 12  1  0        0
 12 13  1  0        0
 12 14  1  0        0
 14 15  1  0        0
 11 16  1  0        0
 16 17  1  0        0
 16 18  1  0        0
 18 19  1  0        0
M  END
$$$$

CDXL12

 15 16  0  0  0  0  0  0  0  0999 V2000
    0.0000    1.8562    0.0000 Cl  0  0  0  0  0  0  0  2  0  0  0  0
    0.7145    1.4437    0.0000 C   0  0  0  0  0  0  0  2  0  0  0  0
    0.7145    0.6187    0.0000 C   0  0  0  0  0  0  0  2  0  0  0  0
    1.4289    0.2062    0.0000 C   0  0  0  0  0  0  0  2  0  0  0  0
    2.1434    0.6187    0.0000 C   0  0  0  0  0  0  0  2  0  0  0  0
    2.1434    1.4437    0.0000 C   0  0  0  0  0  0  0  2  0  0  0  0
    1.4289    1.8562    0.0000 C   0  0  0  0  0  0  0  2  0  0  0  0
    0.0000    0.2062    0.0000 C   0  0  0  0  0  0  0  2  0  0  0  0
    0.0000   -0.6188    0.0000 C   0  0  0  0  0  0  0  2  0  0  0  0
   -0.7145   -1.0312    0.0000 C   0  0  0  0  0  0  0  2  0  0  0  0
   -1.4289   -0.6188    0.0000 C   0  0  0  0  0  0  0  2  0  0  0  0
   -1.4289    0.2062    0.0000 C   0  0  0  0  0  0  0  2  0  0  0  0
   -0.7145    0.6187    0.0000 C   0  0  0  0  0  0  0  2  0  0  0  0
   -2.1434    0.6187    0.0000 Cl  0  0  0  0  0  0  0  2  0  0  0  0
   -0.7145   -1.8562    0.0000 Cl  0  0  0  0  0  0  0  2  0  0  0  0
  1  2  1  0        0
  2  3  4  0        0
  3  4  4  0        0
  4  5  4  0        0
  5  6  4  0        0
  6  7  4  0        0
  2  7  4  0        0
  3  8  1  0        0
  8  9  4  0        0
  9 10  4  0        0
 10 11  4  0        0
 11 12  4  0        0
 12 13  4  0        0
  8 13  4  0        0
 12 14  1  0        0
 10 15  1  0        0
M  END
$$$$

CDXL12

 15 16  0  0  0  0  0  0  0  0999 V2000
    2.5006   -0.2062    0.0000 Cl  0  0  0  0  0  0  0  2  0  0  0  0
    1.7862    0.2062    0.0000 C   0  0  0  0  0  0  0  2  0  0  0  0
    1.7862    1.0313    0.0000 C   0  0  0  0  0  0  0  2  0  0  0  0
    1.0717    1.4438    0.0000 C   0  0  0  0  0  0  0  2  0  0  0  0
    0.3572    1.0312    0.0000 C   0  0  0  0  0  0  0  2  0  0  0  0
    0.3572    0.2062    0.0000 C   0  0  0  0  0  0  0  2  0  0  0  0
    1.0717   -0.2062    0.0000 C   0  0  0  0  0  0  0  2  0  0  0  0
   -0.3572   -0.2062    0.0000 C   0  0  0  0  0  0  0  2  0  0  0  0
   -1.0717    0.2062    0.0000 C   0  0  0  0  0  0  0  2  0  0  0  0
   -1.7862   -0.2062    0.0000 C   0  0  0  0  0  0  0  2  0  0  0  0
   -1.7862   -1.0313    0.0000 C   0  0  0  0  0  0  0  2  0  0  0  0
   -1.0717   -1.4438    0.0000 C   0  0  0  0  0  0  0  2  0  0  0  0
   -0.3572   -1.0313    0.0000 C   0  0  0  0  0  0  0  2  0  0  0  0
   -2.5006    0.2062    0.0000 Cl  0  0  0  0  0  0  0  2  0  0  0  0
    2.5006    1.4438    0.0000 Cl  0  0  0  0  0  0  0  2  0  0  0  0
  1  2  1  0        0
  2  3  4  0        0
  3  4  4  0        0
  4  5  4  0        0
  5  6  4  0        0
  6  7  4  0        0
  2  7  4  0        0
  6  8  1  0        0
  8  9  4  0        0
  9 10  4  0        0
 10 11  4  0        0
 11 12  4  0        0
 12 13  4  0        0
  8 13  4  0        0
 10 14  1  0        0
  3 15  1  0        0
M  END
$$$$

CDXL12

 12 11  0  0  0  0  0  0  0  0999 V2000
   -0.7145    1.6500    0.0000 O   0  0  0  0  0  0  0  2  0  0  0  0
   -0.7145    0.8250    0.0000 C   0  0  0  0  0  0  0  2  0  0  0  0
    0.0000    0.4125    0.0000 N   0  0  0  0  0  0  0  2  0  0  0  0
    0.7145    0.8250    0.0000 C   0  0  0  0  0  0  0  2  0  0  0  0
    1.4289    0.4125    0.0000 C   0  0  0  0  0  0  0  2  0  0  0  0
    2.1434    0.8250    0.0000 C   0  0  0  0  0  0  0  2  0  0  0  0
    0.0000   -0.4125    0.0000 C   0  0  0  0  0  0  0  2  0  0  0  0
    0.7145   -0.8250    0.0000 C   0  0  0  0  0  0  0  2  0  0  0  0
    0.7145   -1.6500    0.0000 C   0  0  0  0  0  0  0  2  0  0  0  0
   -1.4289    0.4125    0.0000 C   0  0  0  0  0  0  0  2  0  0  0  0
   -1.4289   -0.4125    0.0000 Cl  0  0  0  0  0  0  0  2  0  0  0  0
   -2.1434    0.8250    0.0000 Cl  0  0  0  0  0  0  0  2  0  0  0  0
  1  2  2  0        0
  2  3  1  0        0
  3  4  1  0        0
  4  5  1  0        0
  5  6  2  0        0
  3  7  1  0        0
  7  8  1  0        0
  8  9  2  0        0
  2 10  1  0        0
 10 11  1  0        0
 10 12  1  0        0
M  END
$$$$

CDXL12

 22 23  0  0  0  0  0  0  0  0999 V2000
    1.0717   -0.2062    0.0000 O   0  0  0  0  0  0  0  2  0  0  0  0
    1.7862    0.2062    0.0000 C   0  0  0  0  0  0  0  2  0  0  0  0
    1.7862    1.0312    0.0000 C   0  0  0  0  0  0  0  2  0  0  0  0
    2.5006    1.4438    0.0000 C   0  0  0  0  0  0  0  2  0  0  0  0
    3.2151    1.0313    0.0000 C   0  0  0  0  0  0  0  2  0  0  0  0
    3.2151    0.2062    0.0000 C   0  0  0  0  0  0  0  2  0  0  0  0
    2.5006   -0.2062    0.0000 C   0  0  0  0  0  0  0  2  0  0  0  0
    2.5006   -1.0312    0.0000 Br  0  0  0  0  0  0  0  2  0  0  0  0
    3.9296    1.4438    0.0000 Br  0  0  0  0  0  0  0  2  0  0  0  0
    1.0717    1.4437    0.0000 Br  0  0  0  0  0  0  0  2  0  0  0  0
    0.3572    0.2062    0.0000 C   0  0  0  0  0  0  0  2  0  0  0  0
   -0.3572   -0.2062    0.0000 C   0  0  0  0  0  0  0  2  0  0  0  0
   -1.0717    0.2062    0.0000 O   0  0  0  0  0  0  0  2  0  0  0  0
   -1.7862   -0.2062    0.0000 C   0  0  0  0  0  0  0  2  0  0  0  0
   -1.7862   -1.0313    0.0000 C   0  0  0  0  0  0  0  2  0  0  0  0
   -2.5006   -1.4438    0.0000 C   0  0  0  0  0  0  0  2  0  0  0  0
   -3.2151   -1.0313    0.0000 C   0  0  0  0  0  0  0  2  0  0  0  0
   -3.2151   -0.2062    0.0000 C   0  0  0  0  0  0  0  2  0  0  0  0
   -2.5006    0.2062    0.0000 C   0  0  0  0  0  0  0  2  0  0  0  0
   -2.5006    1.0312    0.0000 Br  0  0  0  0  0  0  0  2  0  0  0  0
   -3.9296   -1.4438    0.0000 Br  0  0  0  0  0  0  0  2  0  0  0  0
   -1.0717   -1.4438    0.0000 Br  0  0  0  0  0  0  0  2  0  0  0  0
  1  2  1  0        0
  2  3  4  0        0
  3  4  4  0        0
  4  5  4  0        0
  5  6  4  0        0
  6  7  4  0        0
  2  7  4  0        0
  7  8  1  0        0
  5  9  1  0        0
  3 10  1  0        0
  1 11  1  0        0
 11 12  1  0        0
 12 13  1  0        0
 13 14  1  0        0
 14 15  4  0        0
 15 16  4  0        0
 16 17  4  0        0
 17 18  4  0        0
 18 19  4  0        0
 14 19  4  0        0
 19 20  1  0        0
 17 21  1  0        0
 15 22  1  0        0
M  END
$$$$

CDXL12

 24 25  0  0  0  0  0  0  0  0999 V2000
   -1.4289    0.1510    0.0000 C   0  0  0  0  0  0  0  2  0  0  0  0
   -0.7145   -0.2615    0.0000 C   0  0  0  0  0  0  0  2  0  0  0  0
   -0.0000    0.1510    0.0000 C   0  0  0  0  0  0  0  2  0  0  0  0
    0.7145   -0.2615    0.0000 C   0  0  0  0  0  0  0  2  0  0  0  0
    0.7145   -1.0865    0.0000 C   0  0  0  0  0  0  0  2  0  0  0  0
   -0.0000   -1.4990    0.0000 C   0  0  0  0  0  0  0  2  0  0  0  0
   -0.7145   -1.0865    0.0000 C   0  0  0  0  0  0  0  2  0  0  0  0
   -1.4289   -1.4990    0.0000 N   0  0  0  0  0  0  0  2  0  0  0  0
   -2.1434   -1.0865    0.0000 S   0  0  0  0  0  0  0  2  0  0  0  0
   -2.5559   -1.8010    0.0000 O   0  0  0  0  0  0  0  2  0  0  0  0
   -1.7309   -0.3720    0.0000 O   0  0  0  0  0  0  0  2  0  0  0  0
   -2.8579   -0.6740    0.0000 C   0  0  0  0  0  0  0  2  0  0  0  0
   -3.5724   -0.2615    0.0000 F   0  0  0  0  0  0  0  2  0  0  0  0
   -2.8579    0.1510    0.0000 F   0  0  0  0  0  0  0  2  0  0  0  0
   -3.5724   -1.0865    0.0000 F   0  0  0  0  0  0  0  2  0  0  0  0
    1.4289    0.1510    0.0000 S   0  0  0  0  0  0  0  2  0  0  0  0
    1.0164    0.8655    0.0000 O   0  0  0  0  0  0  0  2  0  0  0  0
    1.8414   -0.5635    0.0000 O   0  0  0  0  0  0  0  2  0  0  0  0
    2.1434    0.5635    0.0000 C   0  0  0  0  0  0  0  2  0  0  0  0
    2.8579    0.1510    0.0000 C   0  0  0  0  0  0  0  2  0  0  0  0
    3.5724    0.5635    0.0000 C   0  0  0  0  0  0  0  2  0  0  0  0
    3.5724    1.3885    0.0000 C   0  0  0  0  0  0  0  2  0  0  0  0
    2.8579    1.8010    0.0000 C   0  0  0  0  0  0  0  2  0  0  0  0
    2.1434    1.3885    0.0000 C   0  0  0  0  0  0  0  2  0  0  0  0
  1  2  1  0        0
  2  3  4  0        0
  3  4  4  0        0
  4  5  4  0        0
  5  6  4  0        0
  6  7  4  0        0
  2  7  4  0        0
  7  8  1  0        0
  8  9  1  0        0
  9 10  2  0        0
  9 11  2  0        0
  9 12  1  0        0
 12 13  1  0        0
 12 14  1  0        0
 12 15  1  0        0
  4 16  1  0        0
 16 17  2  0        0
 16 18  2  0        0
 16 19  1  0        0
 19 20  4  0        0
 20 21  4  0        0
 21 22  4  0        0
 22 23  4  0        0
 23 24  4  0        0
 19 24  4  0        0
M  END
$$$$

CDXL12

 18 18  0  0  0  0  0  0  0  0999 V2000
    3.2151   -1.0312    0.0000 C   0  0  0  0  0  0  0  2  0  0  0  0
    2.5006   -0.6188    0.0000 C   0  0  0  0  0  0  0  2  0  0  0  0
    1.7862   -1.0312    0.0000 O   0  0  0  0  0  0  0  2  0  0  0  0
    1.0717   -0.6188    0.0000 C   0  0  0  0  0  0  0  2  0  0  0  0
    0.3572   -1.0312    0.0000 C   0  0  0  0  0  0  0  2  0  0  0  0
   -0.3572   -0.6187    0.0000 C   0  0  0  0  0  0  0  2  0  0  0  0
   -1.0717   -1.0312    0.0000 O   0  0  0  0  0  0  0  2  0  0  0  0
   -1.7862   -0.6188    0.0000 P   0  0  0  0  0  0  0  2  0  0  0  0
   -1.7862    0.2063    0.0000 S   0  0  0  0  0  0  0  2  0  0  0  0
   -2.5006   -1.0312    0.0000 O   0  0  0  0  0  0  0  2  0  0  0  0
   -3.2151   -0.6188    0.0000 C   0  0  0  0  0  0  0  2  0  0  0  0
   -1.7862   -1.4437    0.0000 O   0  0  0  0  0  0  0  2  0  0  0  0
   -2.5006   -1.8562    0.0000 C   0  0  0  0  0  0  0  2  0  0  0  0
   -0.3572    0.2063    0.0000 N   0  0  0  0  0  0  0  2  0  0  0  0
    0.3572    0.6187    0.0000 C   0  0  0  0  0  0  0  2  0  0  0  0
    0.3572    1.4437    0.0000 C   0  0  0  0  0  0  0  2  0  0  0  0
    1.0717    1.8562    0.0000 C   0  0  0  0  0  0  0  2  0  0  0  0
    1.0717    0.2062    0.0000 N   0  0  0  0  0  0  0  2  0  0  0  0
  1  2  1  0        0
  2  3  1  0        0
  3  4  1  0        0
  4  5  4  0        0
  5  6  4  0        0
  6  7  1  0        0
  7  8  1  0        0
  8  9  2  0        0
  8 10  1  0        0
 10 11  1  0        0
  8 12  1  0        0
 12 13  1  0        0
  6 14  4  0        0
 14 15  4  0        0
 15 16  1  0        0
 16 17  1  0        0
 15 18  4  0        0
  4 18  4  0        0
M  END
$$$$

CDXL12

 21 22  0  0  0  0  0  0  0  0999 V2000
    0.3180    0.4059    0.0000 C   0  0  0  0  0  0  0  2  0  0  0  0
   -0.2340    1.0190    0.0000 C   0  0  0  0  0  0  0  2  0  0  0  0
    0.1785    1.7335    0.0000 C   0  0  0  0  0  0  0  2  0  0  0  0
    0.9855    1.5620    0.0000 C   0  0  0  0  0  0  0  2  0  0  0  0
    1.0717    0.7415    0.0000 C   0  0  0  0  0  0  0  2  0  0  0  0
    1.7862    0.3290    0.0000 C   0  0  0  0  0  0  0  2  0  0  0  0
    2.5006    0.7415    0.0000 C   0  0  0  0  0  0  0  2  0  0  0  0
    3.2151    0.3290    0.0000 C   0  0  0  0  0  0  0  2  0  0  0  0
    3.2151   -0.4960    0.0000 C   0  0  0  0  0  0  0  2  0  0  0  0
    2.5006   -0.9085    0.0000 C   0  0  0  0  0  0  0  2  0  0  0  0
    1.7862   -0.4960    0.0000 C   0  0  0  0  0  0  0  2  0  0  0  0
    1.0717   -0.9085    0.0000 O   0  0  0  0  0  0  0  2  0  0  0  0
    0.3572   -0.4960    0.0000 C   0  0  0  0  0  0  0  2  0  0  0  0
   -0.3572   -0.9085    0.0000 C   0  0  0  0  0  0  0  2  0  0  0  0
   -0.3572   -1.7335    0.0000 O   0  0  0  0  0  0  0  2  0  0  0  0
   -1.0717   -0.4960    0.0000 C   0  0  0  0  0  0  0  2  0  0  0  0
   -1.7862   -0.9085    0.0000 N   0  0  0  0  0  0  0  2  0  0  0  0
   -2.5006   -0.4960    0.0000 C   0  0  0  0  0  0  0  2  0  0  0  0
   -3.2151   -0.9085    0.0000 C   0  0  0  0  0  0  0  2  0  0  0  0
   -3.2151   -0.0835    0.0000 C   0  0  0  0  0  0  0  2  0  0  0  0
   -2.5006    0.3290    0.0000 C   0  0  0  0  0  0  0  2  0  0  0  0
  1  2  1  0        0
  2  3  1  0        0
  3  4  1  0        0
  4  5  1  0        0
  1  5  1  0        0
  5  6  1  0        0
  6  7  4  0        0
  7  8  4  0        0
  8  9  4  0        0
  9 10  4  0        0
 10 11  4  0        0
  6 11  4  0        0
 11 12  1  0        0
 12 13  1  0        0
 13 14  1  0        0
 14 15  1  0        0
 14 16  1  0        0
 16 17  1  0        0
 17 18  1  0        0
 18 19  1  0        0
 18 20  1  0        0
 18 21  1  0        0
M  END
$$$$

CDXL12

 19 20  0  0  0  0  0  0  0  0999 V2000
    1.0717    1.8562    0.0000 Cl  0  0  0  0  0  0  0  2  0  0  0  0
    1.0717    1.0312    0.0000 C   0  0  0  0  0  0  0  2  0  0  0  0
    1.7862    0.6187    0.0000 C   0  0  0  0  0  0  0  2  0  0  0  0
    1.7862   -0.2063    0.0000 C   0  0  0  0  0  0  0  2  0  0  0  0
    1.0717   -0.6187    0.0000 C   0  0  0  0  0  0  0  2  0  0  0  0
    0.3572   -0.2063    0.0000 C   0  0  0  0  0  0  0  2  0  0  0  0
    0.3572    0.6187    0.0000 C   0  0  0  0  0  0  0  2  0  0  0  0
   -0.3572    1.0312    0.0000 Cl  0  0  0  0  0  0  0  2  0  0  0  0
   -0.3572   -0.6187    0.0000 C   0  0  0  0  0  0  0  2  0  0  0  0
   -0.3572   -1.4437    0.0000 C   0  0  0  0  0  0  0  2  0  0  0  0
   -1.0717   -1.8562    0.0000 C   0  0  0  0  0  0  0  2  0  0  0  0
   -1.7862   -1.4437    0.0000 C   0  0  0  0  0  0  0  2  0  0  0  0
   -1.7862   -0.6187    0.0000 C   0  0  0  0  0  0  0  2  0  0  0  0
   -1.0717   -0.2063    0.0000 C   0  0  0  0  0  0  0  2  0  0  0  0
   -1.0717    0.6187    0.0000 Cl  0  0  0  0  0  0  0  2  0  0  0  0
   -2.5006   -0.2063    0.0000 Cl  0  0  0  0  0  0  0  2  0  0  0  0
    0.3572   -1.8562    0.0000 Cl  0  0  0  0  0  0  0  2  0  0  0  0
    2.5006   -0.6188    0.0000 Cl  0  0  0  0  0  0  0  2  0  0  0  0
    2.5006    1.0312    0.0000 Cl  0  0  0  0  0  0  0  2  0  0  0  0
  1  2  1  0        0
  2  3  4  0        0
  3  4  4  0        0
  4  5  4  0        0
  5  6  4  0        0
  6  7  4  0        0
  2  7  4  0        0
  7  8  1  0        0
  6  9  1  0        0
  9 10  4  0        0
 10 11  4  0        0
 11 12  4  0        0
 12 13  4  0        0
 13 14  4  0        0
  9 14  4  0        0
 14 15  1  0        0
 13 16  1  0        0
 10 17  1  0        0
  4 18  1  0        0
  3 19  1  0        0
M  END
$$$$

CDXL12

 15 16  0  0  0  0  0  0  0  0999 V2000
    2.5006    0.2062    0.0000 Cl  0  0  0  0  0  0  0  2  0  0  0  0
    1.7862   -0.2062    0.0000 C   0  0  0  0  0  0  0  2  0  0  0  0
    1.7862   -1.0313    0.0000 C   0  0  0  0  0  0  0  2  0  0  0  0
    1.0717   -1.4438    0.0000 C   0  0  0  0  0  0  0  2  0  0  0  0
    0.3572   -1.0313    0.0000 C   0  0  0  0  0  0  0  2  0  0  0  0
    0.3572   -0.2062    0.0000 C   0  0  0  0  0  0  0  2  0  0  0  0
    1.0717    0.2062    0.0000 C   0  0  0  0  0  0  0  2  0  0  0  0
   -0.3572    0.2062    0.0000 C   0  0  0  0  0  0  0  2  0  0  0  0
   -1.0717   -0.2062    0.0000 C   0  0  0  0  0  0  0  2  0  0  0  0
   -1.7862    0.2062    0.0000 C   0  0  0  0  0  0  0  2  0  0  0  0
   -2.5006   -0.2062    0.0000 Cl  0  0  0  0  0  0  0  2  0  0  0  0
   -1.7862    1.0313    0.0000 C   0  0  0  0  0  0  0  2  0  0  0  0
   -1.0717    1.4438    0.0000 C   0  0  0  0  0  0  0  2  0  0  0  0
   -0.3572    1.0313    0.0000 C   0  0  0  0  0  0  0  2  0  0  0  0
    0.3572    1.4438    0.0000 Cl  0  0  0  0  0  0  0  2  0  0  0  0
  1  2  1  0        0
  2  3  4  0        0
  3  4  4  0        0
  4  5  4  0        0
  5  6  4  0        0
  6  7  4  0        0
  2  7  4  0        0
  6  8  1  0        0
  8  9  4  0        0
  9 10  4  0        0
 10 11  1  0        0
 10 12  4  0        0
 12 13  4  0        0
 13 14  4  0        0
  8 14  4  0        0
 14 15  1  0        0
M  END
$$$$

CDXL12

 15 16  0  0  0  0  0  0  0  0999 V2000
    2.1434   -1.8563    0.0000 Cl  0  0  0  0  0  0  0  2  0  0  0  0
    1.4289   -1.4438    0.0000 C   0  0  0  0  0  0  0  2  0  0  0  0
    0.7145   -1.8563    0.0000 C   0  0  0  0  0  0  0  2  0  0  0  0
    0.0000   -1.4438    0.0000 C   0  0  0  0  0  0  0  2  0  0  0  0
    0.0000   -0.6188    0.0000 C   0  0  0  0  0  0  0  2  0  0  0  0
    0.7145   -0.2062    0.0000 C   0  0  0  0  0  0  0  2  0  0  0  0
    1.4289   -0.6188    0.0000 C   0  0  0  0  0  0  0  2  0  0  0  0
   -0.7145   -0.2062    0.0000 C   0  0  0  0  0  0  0  2  0  0  0  0
   -1.4289   -0.6187    0.0000 C   0  0  0  0  0  0  0  2  0  0  0  0
   -2.1434   -0.2062    0.0000 C   0  0  0  0  0  0  0  2  0  0  0  0
   -2.1434    0.6188    0.0000 C   0  0  0  0  0  0  0  2  0  0  0  0
   -1.4289    1.0313    0.0000 C   0  0  0  0  0  0  0  2  0  0  0  0
   -1.4289    1.8563    0.0000 Cl  0  0  0  0  0  0  0  2  0  0  0  0
   -0.7145    0.6188    0.0000 C   0  0  0  0  0  0  0  2  0  0  0  0
    0.0000    1.0313    0.0000 Cl  0  0  0  0  0  0  0  2  0  0  0  0
  1  2  1  0        0
  2  3  4  0        0
  3  4  4  0        0
  4  5  4  0        0
  5  6  4  0        0
  6  7  4  0        0
  2  7  4  0        0
  5  8  1  0        0
  8  9  4  0        0
  9 10  4  0        0
 10 11  4  0        0
 11 12  4  0        0
 12 13  1  0        0
 12 14  4  0        0
  8 14  4  0        0
 14 15  1  0        0
M  END
$$$$

CDXL12

 15 16  0  0  0  0  0  0  0  0999 V2000
    0.7145   -0.2062    0.0000 C   0  0  0  0  0  0  0  2  0  0  0  0
    1.4289    0.2062    0.0000 C   0  0  0  0  0  0  0  2  0  0  0  0
    2.1434   -0.2062    0.0000 Cl  0  0  0  0  0  0  0  2  0  0  0  0
    1.4289    1.0313    0.0000 C   0  0  0  0  0  0  0  2  0  0  0  0
    2.1434    1.4438    0.0000 Cl  0  0  0  0  0  0  0  2  0  0  0  0
    0.7145    1.4438    0.0000 C   0  0  0  0  0  0  0  2  0  0  0  0
    0.0000    1.0312    0.0000 C   0  0  0  0  0  0  0  2  0  0  0  0
    0.0000    0.2062    0.0000 C   0  0  0  0  0  0  0  2  0  0  0  0
   -0.7145   -0.2062    0.0000 C   0  0  0  0  0  0  0  2  0  0  0  0
   -0.7145   -1.0313    0.0000 C   0  0  0  0  0  0  0  2  0  0  0  0
    0.0000   -1.4438    0.0000 Cl  0  0  0  0  0  0  0  2  0  0  0  0
   -1.4289   -1.4438    0.0000 C   0  0  0  0  0  0  0  2  0  0  0  0
   -2.1434   -1.0313    0.0000 C   0  0  0  0  0  0  0  2  0  0  0  0
   -2.1434   -0.2062    0.0000 C   0  0  0  0  0  0  0  2  0  0  0  0
   -1.4289    0.2062    0.0000 C   0  0  0  0  0  0  0  2  0  0  0  0
  1  2  4  0        0
  2  3  1  0        0
  2  4  4  0        0
  4  5  1  0        0
  4  6  4  0        0
  6  7  4  0        0
  7  8  4  0        0
  1  8  4  0        0
  8  9  1  0        0
  9 10  4  0        0
 10 11  1  0        0
 10 12  4  0        0
 12 13  4  0        0
 13 14  4  0        0
 14 15  4  0        0
  9 15  4  0        0
M  END
$$$$

CDXL12

 15 16  0  0  0  0  0  0  0  0999 V2000
    2.5006    0.6187    0.0000 Cl  0  0  0  0  0  0  0  2  0  0  0  0
    1.7862    0.2062    0.0000 C   0  0  0  0  0  0  0  2  0  0  0  0
    1.7862   -0.6188    0.0000 C   0  0  0  0  0  0  0  2  0  0  0  0
    1.0717   -1.0312    0.0000 C   0  0  0  0  0  0  0  2  0  0  0  0
    1.0717   -1.8562    0.0000 Cl  0  0  0  0  0  0  0  2  0  0  0  0
    0.3572   -0.6188    0.0000 C   0  0  0  0  0  0  0  2  0  0  0  0
    0.3572    0.2062    0.0000 C   0  0  0  0  0  0  0  2  0  0  0  0
   -0.3572    0.6187    0.0000 C   0  0  0  0  0  0  0  2  0  0  0  0
   -1.0717    0.2062    0.0000 C   0  0  0  0  0  0  0  2  0  0  0  0
   -1.7862    0.6187    0.0000 C   0  0  0  0  0  0  0  2  0  0  0  0
   -1.7862    1.4437    0.0000 C   0  0  0  0  0  0  0  2  0  0  0  0
   -2.5006    1.8562    0.0000 Cl  0  0  0  0  0  0  0  2  0  0  0  0
   -1.0717    1.8562    0.0000 C   0  0  0  0  0  0  0  2  0  0  0  0
   -0.3572    1.4437    0.0000 C   0  0  0  0  0  0  0  2  0  0  0  0
    1.0717    0.6187    0.0000 C   0  0  0  0  0  0  0  2  0  0  0  0
  1  2  1  0        0
  2  3  4  0        0
  3  4  4  0        0
  4  5  1  0        0
  4  6  4  0        0
  6  7  4  0        0
  7  8  1  0        0
  8  9  4  0        0
  9 10  4  0        0
 10 11  4  0        0
 11 12  1  0        0
 11 13  4  0        0
 13 14  4  0        0
  8 14  4  0        0
  7 15  4  0        0
  2 15  4  0        0
M  END
$$$$

CDXL12

 19 19  0  0  0  0  0  0  0  0999 V2000
   -2.1434   -0.8250    0.0000 C   0  0  0  0  0  0  0  2  0  0  0  0
   -1.4289   -0.4125    0.0000 C   0  0  0  0  0  0  0  2  0  0  0  0
   -0.7145   -0.8250    0.0000 C   0  0  0  0  0  0  0  2  0  0  0  0
   -0.7145   -1.6500    0.0000 C   0  0  0  0  0  0  0  2  0  0  0  0
    0.0000   -2.0625    0.0000 C   0  0  0  0  0  0  0  2  0  0  0  0
    0.7145   -1.6500    0.0000 C   0  0  0  0  0  0  0  2  0  0  0  0
    0.7145   -0.8250    0.0000 C   0  0  0  0  0  0  0  2  0  0  0  0
    1.4289   -0.4125    0.0000 C   0  0  0  0  0  0  0  2  0  0  0  0
    2.1434   -0.8250    0.0000 C   0  0  0  0  0  0  0  2  0  0  0  0
    0.0000   -0.4125    0.0000 C   0  0  0  0  0  0  0  2  0  0  0  0
    0.0000    0.4125    0.0000 N   0  0  0  0  0  0  0  2  0  0  0  0
    0.7145    0.8250    0.0000 C   0  0  0  0  0  0  0  2  0  0  0  0
    0.7145    1.6500    0.0000 C   0  0  0  0  0  0  0  2  0  0  0  0
    0.0000    2.0625    0.0000 O   0  0  0  0  0  0  0  2  0  0  0  0
    1.4289    2.0625    0.0000 O   0  0  0  0  0  0  0  2  0  0  0  0
   -0.7145    0.8250    0.0000 C   0  0  0  0  0  0  0  2  0  0  0  0
   -0.7145    1.6500    0.0000 O   0  0  0  0  0  0  0  2  0  0  0  0
   -1.4289    0.4125    0.0000 C   0  0  0  0  0  0  0  2  0  0  0  0
   -2.1434    0.8250    0.0000 Cl  0  0  0  0  0  0  0  2  0  0  0  0
  1  2  1  0        0
  2  3  1  0        0
  3  4  4  0        0
  4  5  4  0        0
  5  6  4  0        0
  6  7  4  0        0
  7  8  1  0        0
  8  9  1  0        0
  7 10  4  0        0
  3 10  4  0        0
 10 11  1  0        0
 11 12  1  0        0
 12 13  1  0        0
 13 14  2  0        0
 13 15  1  0        0
 11 16  1  0        0
 16 17  2  0        0
 16 18  1  0        0
 18 19  1  0        0
M  END
$$$$

CDXL12

 21 21  0  0  0  0  0  0  0  0999 V2000
    2.8579   -0.6187    0.0000 C   0  0  0  0  0  0  0  2  0  0  0  0
    2.1434   -0.2062    0.0000 C   0  0  0  0  0  0  0  2  0  0  0  0
    1.4289   -0.6187    0.0000 O   0  0  0  0  0  0  0  2  0  0  0  0
    0.7145   -0.2062    0.0000 C   0  0  0  0  0  0  0  2  0  0  0  0
    0.7145    0.6188    0.0000 O   0  0  0  0  0  0  0  2  0  0  0  0
    0.0000   -0.6188    0.0000 C   0  0  0  0  0  0  0  2  0  0  0  0
   -0.7145   -0.2062    0.0000 N   0  0  0  0  0  0  0  2  0  0  0  0
   -0.7145    0.6187    0.0000 C   0  0  0  0  0  0  0  2  0  0  0  0
    0.0000    1.0312    0.0000 O   0  0  0  0  0  0  0  2  0  0  0  0
   -1.4289    1.0313    0.0000 C   0  0  0  0  0  0  0  2  0  0  0  0
   -1.4289    1.8563    0.0000 Cl  0  0  0  0  0  0  0  2  0  0  0  0
   -1.4289   -0.6188    0.0000 C   0  0  0  0  0  0  0  2  0  0  0  0
   -1.4289   -1.4438    0.0000 C   0  0  0  0  0  0  0  2  0  0  0  0
   -0.7145   -1.8563    0.0000 C   0  0  0  0  0  0  0  2  0  0  0  0
    0.0000   -1.4437    0.0000 C   0  0  0  0  0  0  0  2  0  0  0  0
   -2.1434   -1.8563    0.0000 C   0  0  0  0  0  0  0  2  0  0  0  0
   -2.8579   -1.4437    0.0000 C   0  0  0  0  0  0  0  2  0  0  0  0
   -2.8579   -0.6187    0.0000 C   0  0  0  0  0  0  0  2  0  0  0  0
   -2.1434   -0.2062    0.0000 C   0  0  0  0  0  0  0  2  0  0  0  0
   -2.1434    0.6187    0.0000 C   0  0  0  0  0  0  0  2  0  0  0  0
   -2.8579    1.0312    0.0000 C   0  0  0  0  0  0  0  2  0  0  0  0
  1  2  1  0        0
  2  3  1  0        0
  3  4  1  0        0
  4  5  2  0        0
  4  6  1  0        0
  6  7  1  0        0
  7  8  1  0        0
  8  9  2  0        0
  8 10  1  0        0
 10 11  1  0        0
  7 12  1  0        0
 12 13  4  0        0
 13 14  1  0        0
 14 15  1  0        0
 13 16  4  0        0
 16 17  4  0        0
 17 18  4  0        0
 18 19  4  0        0
 12 19  4  0        0
 19 20  1  0        0
 20 21  1  0        0
M  END
$$$$

CDXL12

 26 26  0  0  0  0  0  0  0  0999 V2000
    5.5729    0.6187    0.0000 C   0  0  0  0  0  0  0  2  0  0  0  0
    4.8584    1.0312    0.0000 C   0  0  0  0  0  0  0  2  0  0  0  0
    4.1439    0.6187    0.0000 C   0  0  0  0  0  0  0  2  0  0  0  0
    3.4295    1.0312    0.0000 C   0  0  0  0  0  0  0  2  0  0  0  0
    2.7150    0.6187    0.0000 C   0  0  0  0  0  0  0  2  0  0  0  0
    2.0005    1.0312    0.0000 C   0  0  0  0  0  0  0  2  0  0  0  0
    1.2860    0.6187    0.0000 C   0  0  0  0  0  0  0  2  0  0  0  0
    0.5716    1.0312    0.0000 C   0  0  0  0  0  0  0  2  0  0  0  0
   -0.1429    0.6187    0.0000 C   0  0  0  0  0  0  0  2  0  0  0  0
   -0.1429   -0.2063    0.0000 C   0  0  0  0  0  0  0  2  0  0  0  0
   -0.8574   -0.6188    0.0000 C   0  0  0  0  0  0  0  2  0  0  0  0
   -0.8574   -1.4437    0.0000 N   0  0  0  0  0  0  0  2  0  0  0  0
   -0.1429   -1.8562    0.0000 O   0  0  0  0  0  0  0  2  0  0  0  0
   -1.5718   -1.8562    0.0000 O   0  0  0  0  0  0  0  2  0  0  0  0
   -1.5718   -0.2063    0.0000 C   0  0  0  0  0  0  0  2  0  0  0  0
   -2.7150   -0.8663    0.0000 O   0  0  0  0  0  0  0  2  0  0  0  0
   -3.4295   -0.4538    0.0000 C   0  0  0  0  0  0  0  2  0  0  0  0
   -3.4295    0.3712    0.0000 O   0  0  0  0  0  0  0  2  0  0  0  0
   -4.1439   -0.8663    0.0000 C   0  0  0  0  0  0  0  2  0  0  0  0
   -4.8584   -0.4538    0.0000 C   0  0  0  0  0  0  0  2  0  0  0  0
   -5.5729   -0.8663    0.0000 C   0  0  0  0  0  0  0  2  0  0  0  0
   -1.5718    0.6187    0.0000 C   0  0  0  0  0  0  0  2  0  0  0  0
   -0.8574    1.0312    0.0000 C   0  0  0  0  0  0  0  2  0  0  0  0
   -2.2863    1.0312    0.0000 N   0  0  0  0  0  0  0  2  0  0  0  0
   -2.2863    1.8562    0.0000 O   0  0  0  0  0  0  0  2  0  0  0  0
   -3.0008    0.6187    0.0000 O   0  0  0  0  0  0  0  2  0  0  0  0
  1  2  1  0        0
  2  3  1  0        0
  3  4  1  0        0
  4  5  1  0        0
  5  6  1  0        0
  6  7  1  0        0
  7  8  1  0        0
  8  9  1  0        0
  9 10  4  0        0
 10 11  4  0        0
 11 12  1  0        0
 12 13  2  0        0
 12 14  2  0        0
 11 15  4  0        0
 15 16  1  0        0
 16 17  1  0        0
 17 18  2  0        0
 17 19  1  0        0
 19 20  2  0        0
 20 21  1  0        0
 15 22  4  0        0
 22 23  4  0        0
  9 23  4  0        0
 22 24  1  0        0
 24 25  2  0        0
 24 26  2  0        0
M  END
$$$$

CDXL12

 26 28  0  0  0  0  0  0  0  0999 V2000
   -2.0329   -2.1582    0.0000 C   0  0  0  0  0  0  0  2  0  0  0  0
   -2.4454   -1.4437    0.0000 C   0  0  0  0  0  0  0  2  0  0  0  0
   -2.8579   -2.1582    0.0000 C   0  0  0  0  0  0  0  2  0  0  0  0
   -2.0329   -0.7293    0.0000 C   0  0  0  0  0  0  0  2  0  0  0  0
   -1.3184   -0.3168    0.0000 C   0  0  0  0  0  0  0  2  0  0  0  0
   -1.3184    0.5082    0.0000 O   0  0  0  0  0  0  0  2  0  0  0  0
   -0.6039   -0.7293    0.0000 O   0  0  0  0  0  0  0  2  0  0  0  0
    0.1105   -0.3168    0.0000 C   0  0  0  0  0  0  0  2  0  0  0  0
    0.8250   -0.7293    0.0000 C   0  0  0  0  0  0  0  2  0  0  0  0
    1.5395   -1.1418    0.0000 N   0  0  0  0  0  0  0  2  0  0  0  0
    0.1105    0.5082    0.0000 C   0  0  0  0  0  0  0  2  0  0  0  0
   -0.6039    0.9207    0.0000 C   0  0  0  0  0  0  0  2  0  0  0  0
   -0.6039    1.7457    0.0000 C   0  0  0  0  0  0  0  2  0  0  0  0
    0.1105    2.1582    0.0000 C   0  0  0  0  0  0  0  2  0  0  0  0
    0.8250    1.7457    0.0000 C   0  0  0  0  0  0  0  2  0  0  0  0
    1.5395    2.1582    0.0000 O   0  0  0  0  0  0  0  2  0  0  0  0
    2.2539    1.7457    0.0000 C   0  0  0  0  0  0  0  2  0  0  0  0
    2.9684    2.1582    0.0000 C   0  0  0  0  0  0  0  2  0  0  0  0
    3.6829    1.7457    0.0000 C   0  0  0  0  0  0  0  2  0  0  0  0
    3.6829    0.9207    0.0000 C   0  0  0  0  0  0  0  2  0  0  0  0
    2.9684    0.5082    0.0000 C   0  0  0  0  0  0  0  2  0  0  0  0
    2.2539    0.9207    0.0000 C   0  0  0  0  0  0  0  2  0  0  0  0
    0.8250    0.9207    0.0000 C   0  0  0  0  0  0  0  2  0  0  0  0
   -2.8579   -0.7293    0.0000 C   0  0  0  0  0  0  0  2  0  0  0  0
   -3.6829   -0.7293    0.0000 C   0  0  0  0  0  0  0  2  0  0  0  0
   -3.2704   -0.0148    0.0000 C   0  0  0  0  0  0  0  2  0  0  0  0
  1  2  1  0        0
  2  3  1  0        0
  2  4  1  0        0
  4  5  1  0        0
  5  6  2  0        0
  5  7  1  0        0
  7  8  1  0        0
  8  9  1  0        0
  9 10  3  0        0
  8 11  1  0        0
 11 12  4  0        0
 12 13  4  0        0
 13 14  4  0        0
 14 15  4  0        0
 15 16  1  0        0
 16 17  1  0        0
 17 18  4  0        0
 18 19  4  0        0
 19 20  4  0        0
 20 21  4  0        0
 21 22  4  0        0
 17 22  4  0        0
 15 23  4  0        0
 11 23  4  0        0
  4 24  1  0        0
  2 24  1  0        0
 24 25  1  0        0
 24 26  1  0        0
M  END
$$$$

CDXL12

 19 20  0  0  0  0  0  0  0  0999 V2000
    1.0717    2.2687    0.0000 Cl  0  0  0  0  0  0  0  2  0  0  0  0
    1.0717    1.4437    0.0000 C   0  0  0  0  0  0  0  2  0  0  0  0
    1.7862    1.0312    0.0000 C   0  0  0  0  0  0  0  2  0  0  0  0
    1.7862    0.2062    0.0000 C   0  0  0  0  0  0  0  2  0  0  0  0
    1.0717   -0.2062    0.0000 C   0  0  0  0  0  0  0  2  0  0  0  0
    0.3572    0.2062    0.0000 C   0  0  0  0  0  0  0  2  0  0  0  0
    0.3572    1.0312    0.0000 C   0  0  0  0  0  0  0  2  0  0  0  0
   -0.3572    1.4437    0.0000 Cl  0  0  0  0  0  0  0  2  0  0  0  0
   -0.3572   -0.2062    0.0000 C   0  0  0  0  0  0  0  2  0  0  0  0
   -1.0717    0.2062    0.0000 C   0  0  0  0  0  0  0  2  0  0  0  0
   -1.7862   -0.2062    0.0000 C   0  0  0  0  0  0  0  2  0  0  0  0
   -1.7862   -1.0312    0.0000 C   0  0  0  0  0  0  0  2  0  0  0  0
   -1.0717   -1.4437    0.0000 C   0  0  0  0  0  0  0  2  0  0  0  0
   -0.3572   -1.0312    0.0000 C   0  0  0  0  0  0  0  2  0  0  0  0
   -1.0717   -2.2687    0.0000 Cl  0  0  0  0  0  0  0  2  0  0  0  0
   -2.5006   -1.4437    0.0000 Cl  0  0  0  0  0  0  0  2  0  0  0  0
   -2.5006    0.2062    0.0000 Cl  0  0  0  0  0  0  0  2  0  0  0  0
    2.5006   -0.2063    0.0000 Cl  0  0  0  0  0  0  0  2  0  0  0  0
    2.5006    1.4437    0.0000 Cl  0  0  0  0  0  0  0  2  0  0  0  0
  1  2  1  0        0
  2  3  4  0        0
  3  4  4  0        0
  4  5  4  0        0
  5  6  4  0        0
  6  7  4  0        0
  2  7  4  0        0
  7  8  1  0        0
  6  9  1  0        0
  9 10  4  0        0
 10 11  4  0        0
 11 12  4  0        0
 12 13  4  0        0
 13 14  4  0        0
  9 14  4  0        0
 13 15  1  0        0
 12 16  1  0        0
 11 17  1  0        0
  4 18  1  0        0
  3 19  1  0        0
M  END
$$$$

CDXL12

 20 20  0  0  0  0  0  0  0  0999 V2000
    2.7150   -0.4538    0.0000 C   0  0  0  0  0  0  0  2  0  0  0  0
    2.0005   -0.8662    0.0000 C   0  0  0  0  0  0  0  2  0  0  0  0
    1.2860   -0.4537    0.0000 C   0  0  0  0  0  0  0  2  0  0  0  0
    1.2860    0.3713    0.0000 C   0  0  0  0  0  0  0  2  0  0  0  0
    2.0005    0.7838    0.0000 C   0  0  0  0  0  0  0  2  0  0  0  0
    0.5716   -0.8662    0.0000 N   0  0  0  0  0  0  0  2  0  0  0  0
   -0.5716   -0.2063    0.0000 C   0  0  0  0  0  0  0  2  0  0  0  0
   -0.5716    0.6188    0.0000 C   0  0  0  0  0  0  0  2  0  0  0  0
   -1.2860    1.0312    0.0000 C   0  0  0  0  0  0  0  2  0  0  0  0
   -2.0005    0.6187    0.0000 C   0  0  0  0  0  0  0  2  0  0  0  0
   -2.7150    1.0312    0.0000 C   0  0  0  0  0  0  0  2  0  0  0  0
   -2.0005   -0.2063    0.0000 C   0  0  0  0  0  0  0  2  0  0  0  0
   -2.7150   -0.6187    0.0000 C   0  0  0  0  0  0  0  2  0  0  0  0
   -1.2860   -0.6187    0.0000 C   0  0  0  0  0  0  0  2  0  0  0  0
   -1.2860   -1.4437    0.0000 N   0  0  0  0  0  0  0  2  0  0  0  0
   -0.5716   -1.8562    0.0000 O   0  0  0  0  0  0  0  2  0  0  0  0
   -2.0005   -1.8562    0.0000 O   0  0  0  0  0  0  0  2  0  0  0  0
    0.1429    1.0312    0.0000 N   0  0  0  0  0  0  0  2  0  0  0  0
    0.1429    1.8562    0.0000 O   0  0  0  0  0  0  0  2  0  0  0  0
    0.8574    0.6187    0.0000 O   0  0  0  0  0  0  0  2  0  0  0  0
  1  2  1  0        0
  2  3  1  0        0
  3  4  1  0        0
  4  5  1  0        0
  3  6  1  0        0
  6  7  1  0        0
  7  8  4  0        0
  8  9  4  0        0
  9 10  4  0        0
 10 11  1  0        0
 10 12  4  0        0
 12 13  1  0        0
 12 14  4  0        0
  7 14  4  0        0
 14 15  1  0        0
 15 16  2  0        0
 15 17  2  0        0
  8 18  1  0        0
 18 19  2  0        0
 18 20  2  0        0
M  END
$$$$

CDXL12

  7  6  0  0  0  0  0  0  0  0999 V2000
   -1.7862   -0.6187    0.0000 Cl  0  0  0  0  0  0  0  2  0  0  0  0
   -1.0717   -0.2062    0.0000 C   0  0  0  0  0  0  0  2  0  0  0  0
   -0.3572   -0.6187    0.0000 C   0  0  0  0  0  0  0  2  0  0  0  0
    0.3572   -0.2062    0.0000 S   0  0  0  0  0  0  0  2  0  0  0  0
    0.3572    0.6187    0.0000 O   0  0  0  0  0  0  0  2  0  0  0  0
    1.0717   -0.6187    0.0000 C   0  0  0  0  0  0  0  2  0  0  0  0
    1.7862   -0.2062    0.0000 C   0  0  0  0  0  0  0  2  0  0  0  0
  1  2  1  0        0
  2  3  1  0        0
  3  4  1  0        0
  4  5  2  0        0
  4  6  1  0        0
  6  7  2  0        0
M  END
$$$$

CDXL12

 21 22  0  0  0  0  0  0  0  0999 V2000
    3.9296   -0.0000    0.0000 O   0  0  0  0  0  0  0  2  0  0  0  0
    3.2151    0.4125    0.0000 C   0  0  0  0  0  0  0  2  0  0  0  0
    3.2151    1.2375    0.0000 O   0  0  0  0  0  0  0  2  0  0  0  0
    2.5006   -0.0000    0.0000 C   0  0  0  0  0  0  0  2  0  0  0  0
    2.5006   -0.8250    0.0000 C   0  0  0  0  0  0  0  2  0  0  0  0
    1.7862    0.4125    0.0000 O   0  0  0  0  0  0  0  2  0  0  0  0
    1.0717   -0.0000    0.0000 C   0  0  0  0  0  0  0  2  0  0  0  0
    0.3572    0.4125    0.0000 C   0  0  0  0  0  0  0  2  0  0  0  0
   -0.3572   -0.0000    0.0000 C   0  0  0  0  0  0  0  2  0  0  0  0
   -0.3572   -0.8250    0.0000 C   0  0  0  0  0  0  0  2  0  0  0  0
   -1.0717   -1.2375    0.0000 O   0  0  0  0  0  0  0  2  0  0  0  0
   -1.7862   -0.8250    0.0000 C   0  0  0  0  0  0  0  2  0  0  0  0
   -2.5006   -1.2375    0.0000 C   0  0  0  0  0  0  0  2  0  0  0  0
   -3.2151   -0.8250    0.0000 C   0  0  0  0  0  0  0  2  0  0  0  0
   -3.2151   -0.0000    0.0000 C   0  0  0  0  0  0  0  2  0  0  0  0
   -3.9296    0.4125    0.0000 Cl  0  0  0  0  0  0  0  2  0  0  0  0
   -2.5006    0.4125    0.0000 C   0  0  0  0  0  0  0  2  0  0  0  0
   -1.7862   -0.0000    0.0000 C   0  0  0  0  0  0  0  2  0  0  0  0
   -1.0717    0.4125    0.0000 Cl  0  0  0  0  0  0  0  2  0  0  0  0
    0.3572   -1.2375    0.0000 C   0  0  0  0  0  0  0  2  0  0  0  0
    1.0717   -0.8250    0.0000 C   0  0  0  0  0  0  0  2  0  0  0  0
  1  2  1  0        0
  2  3  2  0        0
  2  4  1  0        0
  4  5  1  0        0
  4  6  1  0        0
  6  7  1  0        0
  7  8  4  0        0
  8  9  4  0        0
  9 10  4  0        0
 10 11  1  0        0
 11 12  1  0        0
 12 13  4  0        0
 13 14  4  0        0
 14 15  4  0        0
 15 16  1  0        0
 15 17  4  0        0
 17 18  4  0        0
 12 18  4  0        0
 18 19  1  0        0
 10 20  4  0        0
 20 21  4  0        0
  7 21  4  0        0
M  END
$$$$

CDXL12

 19 18  0  0  0  0  0  0  0  0999 V2000
   -4.2868   -0.2062    0.0000 C   0  0  0  0  0  0  0  2  0  0  0  0
   -4.2868    0.6187    0.0000 C   0  0  0  0  0  0  0  2  0  0  0  0
   -5.0013   -0.6188    0.0000 C   0  0  0  0  0  0  0  2  0  0  0  0
   -3.5724   -0.6188    0.0000 C   0  0  0  0  0  0  0  2  0  0  0  0
   -2.8579   -0.2062    0.0000 C   0  0  0  0  0  0  0  2  0  0  0  0
   -2.1434   -0.6188    0.0000 C   0  0  0  0  0  0  0  2  0  0  0  0
   -1.4289   -0.2062    0.0000 C   0  0  0  0  0  0  0  2  0  0  0  0
   -1.4289    0.6187    0.0000 C   0  0  0  0  0  0  0  2  0  0  0  0
   -0.7145   -0.6188    0.0000 C   0  0  0  0  0  0  0  2  0  0  0  0
    0.0000   -0.2062    0.0000 C   0  0  0  0  0  0  0  2  0  0  0  0
    0.7145   -0.6188    0.0000 C   0  0  0  0  0  0  0  2  0  0  0  0
    1.4289   -0.2062    0.0000 C   0  0  0  0  0  0  0  2  0  0  0  0
    1.4289    0.6187    0.0000 C   0  0  0  0  0  0  0  2  0  0  0  0
    2.1434   -0.6188    0.0000 C   0  0  0  0  0  0  0  2  0  0  0  0
    2.8579   -0.2062    0.0000 C   0  0  0  0  0  0  0  2  0  0  0  0
    2.8579    0.6188    0.0000 O   0  0  0  0  0  0  0  2  0  0  0  0
    3.5724   -0.6187    0.0000 O   0  0  0  0  0  0  0  2  0  0  0  0
    4.2868   -0.2062    0.0000 C   0  0  0  0  0  0  0  2  0  0  0  0
    5.0013   -0.6187    0.0000 C   0  0  0  0  0  0  0  2  0  0  0  0
  1  2  1  0        0
  1  3  1  0        0
  1  4  1  0        0
  4  5  1  0        0
  5  6  1  0        0
  6  7  1  0        0
  7  8  1  0        0
  7  9  1  0        0
  9 10  1  0        0
 10 11  2  0        0
 11 12  1  0        0
 12 13  1  0        0
 12 14  2  0        0
 14 15  1  0        0
 15 16  2  0        0
 15 17  1  0        0
 17 18  1  0        0
 18 19  1  0        0
M  END
$$$$

CDXL12

 20 21  0  0  0  0  0  0  0  0999 V2000
    4.6441    1.6500    0.0000 N   0  0  0  0  0  0  0  2  0  0  0  0
    3.9296    1.2375    0.0000 C   0  0  0  0  0  0  0  2  0  0  0  0
    3.2151    0.8250    0.0000 C   0  0  0  0  0  0  0  2  0  0  0  0
    3.2151   -0.0000    0.0000 C   0  0  0  0  0  0  0  2  0  0  0  0
    2.5006   -0.4125    0.0000 C   0  0  0  0  0  0  0  2  0  0  0  0
    1.7862   -0.0000    0.0000 C   0  0  0  0  0  0  0  2  0  0  0  0
    1.0717   -0.4125    0.0000 C   0  0  0  0  0  0  0  2  0  0  0  0
    1.0717   -1.2375    0.0000 C   0  0  0  0  0  0  0  2  0  0  0  0
    0.3572   -1.6500    0.0000 C   0  0  0  0  0  0  0  2  0  0  0  0
   -0.3572   -1.2375    0.0000 C   0  0  0  0  0  0  0  2  0  0  0  0
   -0.3572   -0.4125    0.0000 C   0  0  0  0  0  0  0  2  0  0  0  0
    0.3572   -0.0000    0.0000 C   0  0  0  0  0  0  0  2  0  0  0  0
   -1.0717   -1.6500    0.0000 C   0  0  0  0  0  0  0  2  0  0  0  0
   -1.7862   -1.2375    0.0000 C   0  0  0  0  0  0  0  2  0  0  0  0
   -2.5006   -1.6500    0.0000 C   0  0  0  0  0  0  0  2  0  0  0  0
   -3.2151   -1.2375    0.0000 C   0  0  0  0  0  0  0  2  0  0  0  0
   -3.9296   -1.6500    0.0000 C   0  0  0  0  0  0  0  2  0  0  0  0
   -4.6441   -1.2375    0.0000 C   0  0  0  0  0  0  0  2  0  0  0  0
    1.7862    0.8250    0.0000 C   0  0  0  0  0  0  0  2  0  0  0  0
    2.5006    1.2375    0.0000 C   0  0  0  0  0  0  0  2  0  0  0  0
  1  2  3  0        0
  2  3  1  0        0
  3  4  4  0        0
  4  5  4  0        0
  5  6  4  0        0
  6  7  1  0        0
  7  8  4  0        0
  8  9  4  0        0
  9 10  4  0        0
 10 11  4  0        0
 11 12  4  0        0
  7 12  4  0        0
 10 13  1  0        0
 13 14  1  0        0
 14 15  1  0        0
 15 16  1  0        0
 16 17  1  0        0
 17 18  1  0        0
  6 19  4  0        0
 19 20  4  0        0
  3 20  4  0        0
M  END
$$$$

CDXL12

 18 18  0  0  0  0  0  0  0  0999 V2000
    2.8579    0.8250    0.0000 C   0  0  0  0  0  0  0  2  0  0  0  0
    2.1434    0.4125    0.0000 C   0  0  0  0  0  0  0  2  0  0  0  0
    1.4289    0.8250    0.0000 C   0  0  0  0  0  0  0  2  0  0  0  0
    0.7145    0.4125    0.0000 S   0  0  0  0  0  0  0  2  0  0  0  0
    0.0000    0.8250    0.0000 P   0  0  0  0  0  0  0  2  0  0  0  0
    0.0000    1.6500    0.0000 O   0  0  0  0  0  0  0  2  0  0  0  0
   -0.7145    0.4125    0.0000 O   0  0  0  0  0  0  0  2  0  0  0  0
   -1.4289    0.8250    0.0000 C   0  0  0  0  0  0  0  2  0  0  0  0
   -2.1434    0.4125    0.0000 C   0  0  0  0  0  0  0  2  0  0  0  0
    0.0000    0.0000    0.0000 O   0  0  0  0  0  0  0  2  0  0  0  0
   -0.7145   -0.4125    0.0000 C   0  0  0  0  0  0  0  2  0  0  0  0
   -1.4289    0.0000    0.0000 C   0  0  0  0  0  0  0  2  0  0  0  0
   -2.1434   -0.4125    0.0000 C   0  0  0  0  0  0  0  2  0  0  0  0
   -2.1434   -1.2375    0.0000 C   0  0  0  0  0  0  0  2  0  0  0  0
   -2.8579   -1.6500    0.0000 Br  0  0  0  0  0  0  0  2  0  0  0  0
   -1.4289   -1.6500    0.0000 C   0  0  0  0  0  0  0  2  0  0  0  0
   -0.7145   -1.2375    0.0000 C   0  0  0  0  0  0  0  2  0  0  0  0
    0.0000   -1.6500    0.0000 Cl  0  0  0  0  0  0  0  2  0  0  0  0
  1  2  1  0        0
  2  3  1  0        0
  3  4  1  0        0
  4  5  1  0        0
  5  6  2  0        0
  5  7  1  0        0
  7  8  1  0        0
  8  9  1  0        0
  5 10  1  0        0
 10 11  1  0        0
 11 12  4  0        0
 12 13  4  0        0
 13 14  4  0        0
 14 15  1  0        0
 14 16  4  0        0
 16 17  4  0        0
 11 17  4  0        0
 17 18  1  0        0
M  END
$$$$

CDXL12

 15 16  0  0  0  0  0  0  0  0999 V2000
   -0.7145   -1.0312    0.0000 C   0  0  0  0  0  0  0  2  0  0  0  0
   -1.4289   -1.4437    0.0000 C   0  0  0  0  0  0  0  2  0  0  0  0
   -2.1434   -1.0312    0.0000 C   0  0  0  0  0  0  0  2  0  0  0  0
   -2.1434   -0.2062    0.0000 C   0  0  0  0  0  0  0  2  0  0  0  0
   -1.4289    0.2062    0.0000 C   0  0  0  0  0  0  0  2  0  0  0  0
   -0.7145   -0.2062    0.0000 C   0  0  0  0  0  0  0  2  0  0  0  0
    0.0000    0.2062    0.0000 C   0  0  0  0  0  0  0  2  0  0  0  0
    0.0000    1.0312    0.0000 N   0  0  0  0  0  0  0  2  0  0  0  0
    0.7145    1.4437    0.0000 N   0  0  0  0  0  0  0  2  0  0  0  0
    1.4289    1.0312    0.0000 C   0  0  0  0  0  0  0  2  0  0  0  0
    2.1434    1.4437    0.0000 C   0  0  0  0  0  0  0  2  0  0  0  0
    1.4289    0.2062    0.0000 N   0  0  0  0  0  0  0  2  0  0  0  0
    2.1434   -0.2063    0.0000 N   0  0  0  0  0  0  0  2  0  0  0  0
    0.7145   -0.2062    0.0000 C   0  0  0  0  0  0  0  2  0  0  0  0
    0.7145   -1.0312    0.0000 O   0  0  0  0  0  0  0  2  0  0  0  0
  1  2  4  0        0
  2  3  4  0        0
  3  4  4  0        0
  4  5  4  0        0
  5  6  4  0        0
  1  6  4  0        0
  6  7  1  0        0
  7  8  2  0        0
  8  9  1  0        0
  9 10  2  0        0
 10 11  1  0        0
 10 12  1  0        0
 12 13  1  0        0
 12 14  1  0        0
  7 14  1  0        0
 14 15  2  0        0
M  END
$$$$

CDXL12

 18 19  0  0  0  0  0  0  0  0999 V2000
    0.7145    1.0313    0.0000 Cl  0  0  0  0  0  0  0  2  0  0  0  0
    0.0000    0.6188    0.0000 C   0  0  0  0  0  0  0  2  0  0  0  0
    0.0000   -0.2062    0.0000 C   0  0  0  0  0  0  0  2  0  0  0  0
   -0.7145   -0.6187    0.0000 C   0  0  0  0  0  0  0  2  0  0  0  0
   -1.4289   -0.2062    0.0000 C   0  0  0  0  0  0  0  2  0  0  0  0
   -1.4289    0.6188    0.0000 C   0  0  0  0  0  0  0  2  0  0  0  0
   -0.7145    1.0313    0.0000 C   0  0  0  0  0  0  0  2  0  0  0  0
   -0.7145    1.8563    0.0000 Cl  0  0  0  0  0  0  0  2  0  0  0  0
   -2.1434    1.0313    0.0000 Cl  0  0  0  0  0  0  0  2  0  0  0  0
   -2.1434   -0.6187    0.0000 Cl  0  0  0  0  0  0  0  2  0  0  0  0
   -0.7145   -1.4437    0.0000 Cl  0  0  0  0  0  0  0  2  0  0  0  0
    0.7145   -0.6188    0.0000 C   0  0  0  0  0  0  0  2  0  0  0  0
    1.4289   -0.2062    0.0000 C   0  0  0  0  0  0  0  2  0  0  0  0
    2.1434   -0.6188    0.0000 C   0  0  0  0  0  0  0  2  0  0  0  0
    2.1434   -1.4438    0.0000 C   0  0  0  0  0  0  0  2  0  0  0  0
    1.4289   -1.8563    0.0000 C   0  0  0  0  0  0  0  2  0  0  0  0
    0.7145   -1.4438    0.0000 C   0  0  0  0  0  0  0  2  0  0  0  0
    0.0000   -1.8563    0.0000 Cl  0  0  0  0  0  0  0  2  0  0  0  0
  1  2  1  0        0
  2  3  4  0        0
  3  4  4  0        0
  4  5  4  0        0
  5  6  4  0        0
  6  7  4  0        0
  2  7  4  0        0
  7  8  1  0        0
  6  9  1  0        0
  5 10  1  0        0
  4 11  1  0        0
  3 12  1  0        0
 12 13  4  0        0
 13 14  4  0        0
 14 15  4  0        0
 15 16  4  0        0
 16 17  4  0        0
 12 17  4  0        0
 17 18  1  0        0
M  END
$$$$

CDXL12

 18 19  0  0  0  0  0  0  0  0999 V2000
    0.3572    1.0313    0.0000 Cl  0  0  0  0  0  0  0  2  0  0  0  0
   -0.3572    0.6188    0.0000 C   0  0  0  0  0  0  0  2  0  0  0  0
   -0.3572   -0.2062    0.0000 C   0  0  0  0  0  0  0  2  0  0  0  0
   -1.0717   -0.6187    0.0000 C   0  0  0  0  0  0  0  2  0  0  0  0
   -1.7862   -0.2062    0.0000 C   0  0  0  0  0  0  0  2  0  0  0  0
   -1.7862    0.6188    0.0000 C   0  0  0  0  0  0  0  2  0  0  0  0
   -1.0717    1.0313    0.0000 C   0  0  0  0  0  0  0  2  0  0  0  0
   -1.0717    1.8563    0.0000 Cl  0  0  0  0  0  0  0  2  0  0  0  0
   -2.5006    1.0313    0.0000 Cl  0  0  0  0  0  0  0  2  0  0  0  0
   -2.5006   -0.6187    0.0000 Cl  0  0  0  0  0  0  0  2  0  0  0  0
   -1.0717   -1.4437    0.0000 Cl  0  0  0  0  0  0  0  2  0  0  0  0
    0.3572   -0.6188    0.0000 C   0  0  0  0  0  0  0  2  0  0  0  0
    0.3572   -1.4438    0.0000 C   0  0  0  0  0  0  0  2  0  0  0  0
    1.0717   -1.8563    0.0000 C   0  0  0  0  0  0  0  2  0  0  0  0
    1.7862   -1.4438    0.0000 C   0  0  0  0  0  0  0  2  0  0  0  0
    1.7862   -0.6188    0.0000 C   0  0  0  0  0  0  0  2  0  0  0  0
    1.0717   -0.2062    0.0000 C   0  0  0  0  0  0  0  2  0  0  0  0
    2.5006   -0.2062    0.0000 Cl  0  0  0  0  0  0  0  2  0  0  0  0
  1  2  1  0        0
  2  3  4  0        0
  3  4  4  0        0
  4  5  4  0        0
  5  6  4  0        0
  6  7  4  0        0
  2  7  4  0        0
  7  8  1  0        0
  6  9  1  0        0
  5 10  1  0        0
  4 11  1  0        0
  3 12  1  0        0
 12 13  4  0        0
 13 14  4  0        0
 14 15  4  0        0
 15 16  4  0        0
 16 17  4  0        0
 12 17  4  0        0
 16 18  1  0        0
M  END
$$$$

CDXL12

 18 19  0  0  0  0  0  0  0  0999 V2000
    0.3572    1.0313    0.0000 Cl  0  0  0  0  0  0  0  2  0  0  0  0
   -0.3572    0.6188    0.0000 C   0  0  0  0  0  0  0  2  0  0  0  0
   -0.3572   -0.2062    0.0000 C   0  0  0  0  0  0  0  2  0  0  0  0
   -1.0717   -0.6187    0.0000 C   0  0  0  0  0  0  0  2  0  0  0  0
   -1.7862   -0.2062    0.0000 C   0  0  0  0  0  0  0  2  0  0  0  0
   -1.7862    0.6188    0.0000 C   0  0  0  0  0  0  0  2  0  0  0  0
   -1.0717    1.0313    0.0000 C   0  0  0  0  0  0  0  2  0  0  0  0
   -1.0717    1.8563    0.0000 Cl  0  0  0  0  0  0  0  2  0  0  0  0
   -2.5006    1.0313    0.0000 Cl  0  0  0  0  0  0  0  2  0  0  0  0
   -2.5006   -0.6187    0.0000 Cl  0  0  0  0  0  0  0  2  0  0  0  0
   -1.0717   -1.4437    0.0000 Cl  0  0  0  0  0  0  0  2  0  0  0  0
    0.3572   -0.6188    0.0000 C   0  0  0  0  0  0  0  2  0  0  0  0
    1.0717   -0.2062    0.0000 C   0  0  0  0  0  0  0  2  0  0  0  0
    1.7862   -0.6188    0.0000 C   0  0  0  0  0  0  0  2  0  0  0  0
    1.7862   -1.4438    0.0000 C   0  0  0  0  0  0  0  2  0  0  0  0
    1.0717   -1.8563    0.0000 C   0  0  0  0  0  0  0  2  0  0  0  0
    0.3572   -1.4438    0.0000 C   0  0  0  0  0  0  0  2  0  0  0  0
    2.5006   -1.8563    0.0000 Cl  0  0  0  0  0  0  0  2  0  0  0  0
  1  2  1  0        0
  2  3  4  0        0
  3  4  4  0        0
  4  5  4  0        0
  5  6  4  0        0
  6  7  4  0        0
  2  7  4  0        0
  7  8  1  0        0
  6  9  1  0        0
  5 10  1  0        0
  4 11  1  0        0
  3 12  1  0        0
 12 13  4  0        0
 13 14  4  0        0
 14 15  4  0        0
 15 16  4  0        0
 16 17  4  0        0
 12 17  4  0        0
 15 18  1  0        0
M  END
$$$$

CDXL12

 19 20  0  0  0  0  0  0  0  0999 V2000
    0.3572    1.0313    0.0000 Cl  0  0  0  0  0  0  0  2  0  0  0  0
   -0.3572    0.6188    0.0000 C   0  0  0  0  0  0  0  2  0  0  0  0
   -0.3572   -0.2062    0.0000 C   0  0  0  0  0  0  0  2  0  0  0  0
   -1.0717   -0.6187    0.0000 C   0  0  0  0  0  0  0  2  0  0  0  0
   -1.7862   -0.2062    0.0000 C   0  0  0  0  0  0  0  2  0  0  0  0
   -1.7862    0.6188    0.0000 C   0  0  0  0  0  0  0  2  0  0  0  0
   -1.0717    1.0313    0.0000 C   0  0  0  0  0  0  0  2  0  0  0  0
   -1.0717    1.8563    0.0000 Cl  0  0  0  0  0  0  0  2  0  0  0  0
   -2.5006    1.0313    0.0000 Cl  0  0  0  0  0  0  0  2  0  0  0  0
   -2.5006   -0.6187    0.0000 Cl  0  0  0  0  0  0  0  2  0  0  0  0
   -1.0717   -1.4437    0.0000 Cl  0  0  0  0  0  0  0  2  0  0  0  0
    0.3572   -0.6188    0.0000 C   0  0  0  0  0  0  0  2  0  0  0  0
    1.0717   -0.2062    0.0000 C   0  0  0  0  0  0  0  2  0  0  0  0
    1.7862   -0.6188    0.0000 C   0  0  0  0  0  0  0  2  0  0  0  0
    1.7862   -1.4438    0.0000 C   0  0  0  0  0  0  0  2  0  0  0  0
    1.0717   -1.8563    0.0000 C   0  0  0  0  0  0  0  2  0  0  0  0
    0.3572   -1.4438    0.0000 C   0  0  0  0  0  0  0  2  0  0  0  0
    2.5006   -1.8563    0.0000 Cl  0  0  0  0  0  0  0  2  0  0  0  0
    2.5006   -0.2062    0.0000 Cl  0  0  0  0  0  0  0  2  0  0  0  0
  1  2  1  0        0
  2  3  4  0        0
  3  4  4  0        0
  4  5  4  0        0
  5  6  4  0        0
  6  7  4  0        0
  2  7  4  0        0
  7  8  1  0        0
  6  9  1  0        0
  5 10  1  0        0
  4 11  1  0        0
  3 12  1  0        0
 12 13  4  0        0
 13 14  4  0        0
 14 15  4  0        0
 15 16  4  0        0
 16 17  4  0        0
 12 17  4  0        0
 15 18  1  0        0
 14 19  1  0        0
M  END
$$$$

CDXL12

 26 26  0  0  0  0  0  0  0  0999 V2000
   -2.8579   -1.0313    0.0000 C   0  0  0  0  0  0  0  2  0  0  0  0
   -3.5724   -1.4438    0.0000 C   0  0  0  0  0  0  0  2  0  0  0  0
   -3.5724   -2.2687    0.0000 C   0  0  0  0  0  0  0  2  0  0  0  0
   -2.8579   -2.6812    0.0000 C   0  0  0  0  0  0  0  2  0  0  0  0
   -2.1434   -2.2687    0.0000 C   0  0  0  0  0  0  0  2  0  0  0  0
   -1.4289   -2.6812    0.0000 C   0  0  0  0  0  0  0  2  0  0  0  0
   -1.4289   -3.5063    0.0000 O   0  0  0  0  0  0  0  2  0  0  0  0
   -0.7145   -2.2687    0.0000 O   0  0  0  0  0  0  0  2  0  0  0  0
    0.0000   -2.6812    0.0000 C   0  0  0  0  0  0  0  2  0  0  0  0
    0.7145   -2.2688    0.0000 C   0  0  0  0  0  0  0  2  0  0  0  0
    0.7145   -1.4438    0.0000 C   0  0  0  0  0  0  0  2  0  0  0  0
    1.4289   -2.6812    0.0000 C   0  0  0  0  0  0  0  2  0  0  0  0
    2.1434   -2.2688    0.0000 C   0  0  0  0  0  0  0  2  0  0  0  0
    2.8579   -2.6812    0.0000 C   0  0  0  0  0  0  0  2  0  0  0  0
    3.5724   -2.2688    0.0000 C   0  0  0  0  0  0  0  2  0  0  0  0
   -2.1434   -1.4438    0.0000 C   0  0  0  0  0  0  0  2  0  0  0  0
   -1.4289   -1.0313    0.0000 C   0  0  0  0  0  0  0  2  0  0  0  0
   -0.7145   -1.4438    0.0000 O   0  0  0  0  0  0  0  2  0  0  0  0
   -1.4289   -0.2062    0.0000 O   0  0  0  0  0  0  0  2  0  0  0  0
   -0.7145    0.2062    0.0000 C   0  0  0  0  0  0  0  2  0  0  0  0
   -0.7145    1.0313    0.0000 C   0  0  0  0  0  0  0  2  0  0  0  0
   -1.4289    1.4438    0.0000 C   0  0  0  0  0  0  0  2  0  0  0  0
    0.0000    1.4438    0.0000 C   0  0  0  0  0  0  0  2  0  0  0  0
    0.0000    2.2687    0.0000 C   0  0  0  0  0  0  0  2  0  0  0  0
    0.7145    2.6812    0.0000 C   0  0  0  0  0  0  0  2  0  0  0  0
    0.7145    3.5063    0.0000 C   0  0  0  0  0  0  0  2  0  0  0  0
  1  2  4  0        0
  2  3  4  0        0
  3  4  4  0        0
  4  5  4  0        0
  5  6  1  0        0
  6  7  2  0        0
  6  8  1  0        0
  8  9  1  0        0
  9 10  1  0        0
 10 11  1  0        0
 10 12  1  0        0
 12 13  1  0        0
 13 14  1  0        0
 14 15  1  0        0
  5 16  4  0        0
  1 16  4  0        0
 16 17  1  0        0
 17 18  2  0        0
 17 19  1  0        0
 19 20  1  0        0
 20 21  1  0        0
 21 22  1  0        0
 21 23  1  0        0
 23 24  1  0        0
 24 25  1  0        0
 25 26  1  0        0
M  END
$$$$

CDXL12

 16 17  0  0  0  0  0  0  0  0999 V2000
   -0.7145    1.4438    0.0000 Cl  0  0  0  0  0  0  0  2  0  0  0  0
    0.0000    1.0313    0.0000 C   0  0  0  0  0  0  0  2  0  0  0  0
    0.0000    0.2062    0.0000 C   0  0  0  0  0  0  0  2  0  0  0  0
    0.7145   -0.2062    0.0000 C   0  0  0  0  0  0  0  2  0  0  0  0
    1.4289    0.2062    0.0000 C   0  0  0  0  0  0  0  2  0  0  0  0
    1.4289    1.0313    0.0000 C   0  0  0  0  0  0  0  2  0  0  0  0
    0.7145    1.4438    0.0000 C   0  0  0  0  0  0  0  2  0  0  0  0
    2.1434   -0.2062    0.0000 Cl  0  0  0  0  0  0  0  2  0  0  0  0
   -0.7145   -0.2062    0.0000 C   0  0  0  0  0  0  0  2  0  0  0  0
   -0.7145   -1.0313    0.0000 C   0  0  0  0  0  0  0  2  0  0  0  0
   -1.4289   -1.4437    0.0000 C   0  0  0  0  0  0  0  2  0  0  0  0
   -2.1434   -1.0313    0.0000 C   0  0  0  0  0  0  0  2  0  0  0  0
   -2.1434   -0.2062    0.0000 C   0  0  0  0  0  0  0  2  0  0  0  0
   -1.4289    0.2062    0.0000 C   0  0  0  0  0  0  0  2  0  0  0  0
   -1.4289    1.0313    0.0000 Cl  0  0  0  0  0  0  0  2  0  0  0  0
    0.0000   -1.4438    0.0000 Cl  0  0  0  0  0  0  0  2  0  0  0  0
  1  2  1  0        0
  2  3  4  0        0
  3  4  4  0        0
  4  5  4  0        0
  5  6  4  0        0
  6  7  4  0        0
  2  7  4  0        0
  5  8  1  0        0
  3  9  1  0        0
  9 10  4  0        0
 10 11  4  0        0
 11 12  4  0        0
 12 13  4  0        0
 13 14  4  0        0
  9 14  4  0        0
 14 15  1  0        0
 10 16  1  0        0
M  END
$$$$

CDXL12

 16 17  0  0  0  0  0  0  0  0999 V2000
    1.0717   -1.8563    0.0000 Cl  0  0  0  0  0  0  0  2  0  0  0  0
    1.0717   -1.0313    0.0000 C   0  0  0  0  0  0  0  2  0  0  0  0
    1.7862   -0.6188    0.0000 C   0  0  0  0  0  0  0  2  0  0  0  0
    1.7862    0.2062    0.0000 C   0  0  0  0  0  0  0  2  0  0  0  0
    2.5006    0.6188    0.0000 Cl  0  0  0  0  0  0  0  2  0  0  0  0
    1.0717    0.6188    0.0000 C   0  0  0  0  0  0  0  2  0  0  0  0
    0.3572    0.2062    0.0000 C   0  0  0  0  0  0  0  2  0  0  0  0
    0.3572   -0.6188    0.0000 C   0  0  0  0  0  0  0  2  0  0  0  0
   -0.3572    0.6188    0.0000 C   0  0  0  0  0  0  0  2  0  0  0  0
   -1.0717    0.2063    0.0000 C   0  0  0  0  0  0  0  2  0  0  0  0
   -1.7862    0.6188    0.0000 C   0  0  0  0  0  0  0  2  0  0  0  0
   -2.5006    0.2063    0.0000 Cl  0  0  0  0  0  0  0  2  0  0  0  0
   -1.7862    1.4438    0.0000 C   0  0  0  0  0  0  0  2  0  0  0  0
   -1.0717    1.8563    0.0000 C   0  0  0  0  0  0  0  2  0  0  0  0
   -0.3572    1.4438    0.0000 C   0  0  0  0  0  0  0  2  0  0  0  0
    0.3572    1.8563    0.0000 Cl  0  0  0  0  0  0  0  2  0  0  0  0
  1  2  1  0        0
  2  3  4  0        0
  3  4  4  0        0
  4  5  1  0        0
  4  6  4  0        0
  6  7  4  0        0
  7  8  4  0        0
  2  8  4  0        0
  7  9  1  0        0
  9 10  4  0        0
 10 11  4  0        0
 11 12  1  0        0
 11 13  4  0        0
 13 14  4  0        0
 14 15  4  0        0
  9 15  4  0        0
 15 16  1  0        0
M  END
$$$$

CDXL12

 16 17  0  0  0  0  0  0  0  0999 V2000
    2.1434   -1.8563    0.0000 Cl  0  0  0  0  0  0  0  2  0  0  0  0
    1.4289   -1.4438    0.0000 C   0  0  0  0  0  0  0  2  0  0  0  0
    0.7145   -1.8563    0.0000 C   0  0  0  0  0  0  0  2  0  0  0  0
    0.0000   -1.4438    0.0000 C   0  0  0  0  0  0  0  2  0  0  0  0
    0.0000   -0.6188    0.0000 C   0  0  0  0  0  0  0  2  0  0  0  0
   -0.7145   -0.2062    0.0000 C   0  0  0  0  0  0  0  2  0  0  0  0
   -1.4289   -0.6187    0.0000 C   0  0  0  0  0  0  0  2  0  0  0  0
   -2.1434   -0.2062    0.0000 C   0  0  0  0  0  0  0  2  0  0  0  0
   -2.1434    0.6188    0.0000 C   0  0  0  0  0  0  0  2  0  0  0  0
   -1.4289    1.0313    0.0000 C   0  0  0  0  0  0  0  2  0  0  0  0
   -0.7145    0.6188    0.0000 C   0  0  0  0  0  0  0  2  0  0  0  0
    0.0000    1.0313    0.0000 Cl  0  0  0  0  0  0  0  2  0  0  0  0
   -1.4289    1.8563    0.0000 Cl  0  0  0  0  0  0  0  2  0  0  0  0
    0.7145   -0.2062    0.0000 C   0  0  0  0  0  0  0  2  0  0  0  0
    1.4289   -0.6188    0.0000 C   0  0  0  0  0  0  0  2  0  0  0  0
    2.1434   -0.2062    0.0000 Cl  0  0  0  0  0  0  0  2  0  0  0  0
  1  2  1  0        0
  2  3  4  0        0
  3  4  4  0        0
  4  5  4  0        0
  5  6  1  0        0
  6  7  4  0        0
  7  8  4  0        0
  8  9  4  0        0
  9 10  4  0        0
 10 11  4  0        0
  6 11  4  0        0
 11 12  1  0        0
 10 13  1  0        0
  5 14  4  0        0
 14 15  4  0        0
  2 15  4  0        0
 15 16  1  0        0
M  END
$$$$

CDXL12

 16 17  0  0  0  0  0  0  0  0999 V2000
    1.0717    1.8563    0.0000 Cl  0  0  0  0  0  0  0  2  0  0  0  0
    1.0717    1.0313    0.0000 C   0  0  0  0  0  0  0  2  0  0  0  0
    1.7862    0.6188    0.0000 C   0  0  0  0  0  0  0  2  0  0  0  0
    1.7862   -0.2062    0.0000 C   0  0  0  0  0  0  0  2  0  0  0  0
    1.0717   -0.6188    0.0000 C   0  0  0  0  0  0  0  2  0  0  0  0
    0.3572   -0.2062    0.0000 C   0  0  0  0  0  0  0  2  0  0  0  0
    0.3572    0.6188    0.0000 C   0  0  0  0  0  0  0  2  0  0  0  0
   -0.3572    1.0313    0.0000 Cl  0  0  0  0  0  0  0  2  0  0  0  0
   -0.3572   -0.6188    0.0000 C   0  0  0  0  0  0  0  2  0  0  0  0
   -0.3572   -1.4438    0.0000 C   0  0  0  0  0  0  0  2  0  0  0  0
    0.3572   -1.8563    0.0000 Cl  0  0  0  0  0  0  0  2  0  0  0  0
   -1.0717   -1.8562    0.0000 C   0  0  0  0  0  0  0  2  0  0  0  0
   -1.7862   -1.4438    0.0000 C   0  0  0  0  0  0  0  2  0  0  0  0
   -1.7862   -0.6188    0.0000 C   0  0  0  0  0  0  0  2  0  0  0  0
   -1.0717   -0.2062    0.0000 C   0  0  0  0  0  0  0  2  0  0  0  0
   -1.0717    0.6188    0.0000 Cl  0  0  0  0  0  0  0  2  0  0  0  0
  1  2  1  0        0
  2  3  4  0        0
  3  4  4  0        0
  4  5  4  0        0
  5  6  4  0        0
  6  7  4  0        0
  2  7  4  0        0
  7  8  1  0        0
  6  9  1  0        0
  9 10  4  0        0
 10 11  1  0        0
 10 12  4  0        0
 12 13  4  0        0
 13 14  4  0        0
 14 15  4  0        0
  9 15  4  0        0
 15 16  1  0        0
M  END
$$$$

CDXL12

 16 17  0  0  0  0  0  0  0  0999 V2000
    2.5006    1.8562    0.0000 Cl  0  0  0  0  0  0  0  2  0  0  0  0
    1.7862    1.4437    0.0000 C   0  0  0  0  0  0  0  2  0  0  0  0
    1.0717    1.8562    0.0000 C   0  0  0  0  0  0  0  2  0  0  0  0
    0.3572    1.4437    0.0000 C   0  0  0  0  0  0  0  2  0  0  0  0
    0.3572    0.6187    0.0000 C   0  0  0  0  0  0  0  2  0  0  0  0
   -0.3572    0.2062    0.0000 C   0  0  0  0  0  0  0  2  0  0  0  0
   -0.3572   -0.6188    0.0000 C   0  0  0  0  0  0  0  2  0  0  0  0
   -1.0717   -1.0312    0.0000 C   0  0  0  0  0  0  0  2  0  0  0  0
   -1.0717   -1.8562    0.0000 Cl  0  0  0  0  0  0  0  2  0  0  0  0
   -1.7862   -0.6188    0.0000 C   0  0  0  0  0  0  0  2  0  0  0  0
   -1.7862    0.2062    0.0000 C   0  0  0  0  0  0  0  2  0  0  0  0
   -1.0717    0.6187    0.0000 C   0  0  0  0  0  0  0  2  0  0  0  0
   -2.5006    0.6187    0.0000 Cl  0  0  0  0  0  0  0  2  0  0  0  0
    1.0717    0.2062    0.0000 C   0  0  0  0  0  0  0  2  0  0  0  0
    1.7862    0.6187    0.0000 C   0  0  0  0  0  0  0  2  0  0  0  0
    2.5006    0.2062    0.0000 Cl  0  0  0  0  0  0  0  2  0  0  0  0
  1  2  1  0        0
  2  3  4  0        0
  3  4  4  0        0
  4  5  4  0        0
  5  6  1  0        0
  6  7  4  0        0
  7  8  4  0        0
  8  9  1  0        0
  8 10  4  0        0
 10 11  4  0        0
 11 12  4  0        0
  6 12  4  0        0
 11 13  1  0        0
  5 14  4  0        0
 14 15  4  0        0
  2 15  4  0        0
 15 16  1  0        0
M  END
$$$$

CDXL12

 16 17  0  0  0  0  0  0  0  0999 V2000
   -1.4289    2.2687    0.0000 Cl  0  0  0  0  0  0  0  2  0  0  0  0
   -1.4289    1.4438    0.0000 C   0  0  0  0  0  0  0  2  0  0  0  0
   -2.1434    1.0313    0.0000 C   0  0  0  0  0  0  0  2  0  0  0  0
   -2.1434    0.2062    0.0000 C   0  0  0  0  0  0  0  2  0  0  0  0
   -1.4289   -0.2062    0.0000 C   0  0  0  0  0  0  0  2  0  0  0  0
   -0.7145    0.2062    0.0000 C   0  0  0  0  0  0  0  2  0  0  0  0
   -0.7145    1.0313    0.0000 C   0  0  0  0  0  0  0  2  0  0  0  0
    0.0000    1.4438    0.0000 Cl  0  0  0  0  0  0  0  2  0  0  0  0
    0.0000   -0.2062    0.0000 C   0  0  0  0  0  0  0  2  0  0  0  0
    0.0000   -1.0312    0.0000 C   0  0  0  0  0  0  0  2  0  0  0  0
    0.7145   -1.4438    0.0000 C   0  0  0  0  0  0  0  2  0  0  0  0
    0.7145   -2.2687    0.0000 Cl  0  0  0  0  0  0  0  2  0  0  0  0
    1.4289   -1.0313    0.0000 C   0  0  0  0  0  0  0  2  0  0  0  0
    1.4289   -0.2062    0.0000 C   0  0  0  0  0  0  0  2  0  0  0  0
    0.7145    0.2062    0.0000 C   0  0  0  0  0  0  0  2  0  0  0  0
    2.1434    0.2062    0.0000 Cl  0  0  0  0  0  0  0  2  0  0  0  0
  1  2  1  0        0
  2  3  4  0        0
  3  4  4  0        0
  4  5  4  0        0
  5  6  4  0        0
  6  7  4  0        0
  2  7  4  0        0
  7  8  1  0        0
  6  9  1  0        0
  9 10  4  0        0
 10 11  4  0        0
 11 12  1  0        0
 11 13  4  0        0
 13 14  4  0        0
 14 15  4  0        0
  9 15  4  0        0
 14 16  1  0        0
M  END
$$$$

CDXL12

 21 21  0  0  0  0  0  0  0  0999 V2000
   -2.8579   -0.2062    0.0000 C   0  0  0  0  0  0  0  2  0  0  0  0
   -2.1434    0.2062    0.0000 C   0  0  0  0  0  0  0  2  0  0  0  0
   -1.4289   -0.2062    0.0000 C   0  0  0  0  0  0  0  2  0  0  0  0
   -0.7145    0.2062    0.0000 C   0  0  0  0  0  0  0  2  0  0  0  0
    0.0000   -0.2062    0.0000 C   0  0  0  0  0  0  0  2  0  0  0  0
    0.0000   -1.0313    0.0000 C   0  0  0  0  0  0  0  2  0  0  0  0
   -0.7145   -1.4438    0.0000 C   0  0  0  0  0  0  0  2  0  0  0  0
    0.7145   -1.4438    0.0000 N   0  0  0  0  0  0  0  2  0  0  0  0
    1.4289   -1.0312    0.0000 C   0  0  0  0  0  0  0  2  0  0  0  0
    2.1434   -1.4437    0.0000 N   0  0  0  0  0  0  0  2  0  0  0  0
    2.1434   -2.2687    0.0000 C   0  0  0  0  0  0  0  2  0  0  0  0
    2.8579   -2.6812    0.0000 C   0  0  0  0  0  0  0  2  0  0  0  0
    1.4289   -0.2062    0.0000 N   0  0  0  0  0  0  0  2  0  0  0  0
    0.7145    0.2062    0.0000 C   0  0  0  0  0  0  0  2  0  0  0  0
    0.7145    1.0312    0.0000 O   0  0  0  0  0  0  0  2  0  0  0  0
    0.0000    1.4437    0.0000 S   0  0  0  0  0  0  0  2  0  0  0  0
   -0.4125    0.7293    0.0000 O   0  0  0  0  0  0  0  2  0  0  0  0
    0.4125    2.1582    0.0000 O   0  0  0  0  0  0  0  2  0  0  0  0
   -0.7145    1.8562    0.0000 N   0  0  0  0  0  0  0  2  0  0  0  0
   -1.4289    1.4437    0.0000 C   0  0  0  0  0  0  0  2  0  0  0  0
   -0.7145    2.6812    0.0000 C   0  0  0  0  0  0  0  2  0  0  0  0
  1  2  1  0        0
  2  3  1  0        0
  3  4  1  0        0
  4  5  1  0        0
  5  6  4  0        0
  6  7  1  0        0
  6  8  4  0        0
  8  9  4  0        0
  9 10  1  0        0
 10 11  1  0        0
 11 12  1  0        0
  9 13  4  0        0
 13 14  4  0        0
  5 14  4  0        0
 14 15  1  0        0
 15 16  1  0        0
 16 17  2  0        0
 16 18  2  0        0
 16 19  1  0        0
 19 20  1  0        0
 19 21  1  0        0
M  END
$$$$

CDXL12

 18 18  0  0  0  0  0  0  0  0999 V2000
   -2.7345    0.6666    0.0000 C   0  0  0  0  0  0  0  2  0  0  0  0
   -2.0200    1.0791    0.0000 C   0  0  0  0  0  0  0  2  0  0  0  0
   -1.3056    0.6666    0.0000 O   0  0  0  0  0  0  0  2  0  0  0  0
   -0.5911    1.0791    0.0000 P   0  0  0  0  0  0  0  2  0  0  0  0
   -0.5911    1.9041    0.0000 S   0  0  0  0  0  0  0  2  0  0  0  0
    0.1234    0.6666    0.0000 O   0  0  0  0  0  0  0  2  0  0  0  0
    0.8379    1.0791    0.0000 C   0  0  0  0  0  0  0  2  0  0  0  0
    1.5523    0.6666    0.0000 C   0  0  0  0  0  0  0  2  0  0  0  0
   -0.5911    0.2541    0.0000 O   0  0  0  0  0  0  0  2  0  0  0  0
    0.1234   -0.1584    0.0000 C   0  0  0  0  0  0  0  2  0  0  0  0
    0.8771    0.1771    0.0000 N   0  0  0  0  0  0  0  2  0  0  0  0
    1.4291   -0.4359    0.0000 N   0  0  0  0  0  0  0  2  0  0  0  0
    2.2496   -0.3497    0.0000 C   0  0  0  0  0  0  0  2  0  0  0  0
    2.5851    0.4040    0.0000 C   0  0  0  0  0  0  0  2  0  0  0  0
    2.7345   -1.0171    0.0000 C   0  0  0  0  0  0  0  2  0  0  0  0
    1.0166   -1.1504    0.0000 C   0  0  0  0  0  0  0  2  0  0  0  0
    1.3522   -1.9041    0.0000 Cl  0  0  0  0  0  0  0  2  0  0  0  0
    0.2096   -0.9789    0.0000 N   0  0  0  0  0  0  0  2  0  0  0  0
  1  2  1  0        0
  2  3  1  0        0
  3  4  1  0        0
  4  5  2  0        0
  4  6  1  0        0
  6  7  1  0        0
  7  8  1  0        0
  4  9  1  0        0
  9 10  1  0        0
 10 11  4  0        0
 11 12  4  0        0
 12 13  1  0        0
 13 14  1  0        0
 13 15  1  0        0
 12 16  4  0        0
 16 17  1  0        0
 16 18  4  0        0
 10 18  4  0        0
M  END
$$$$

CDXL12

 20 21  0  0  0  0  0  0  0  0999 V2000
   -1.7862   -1.0313    0.0000 C   0  0  0  0  0  0  0  2  0  0  0  0
   -2.5006   -1.4438    0.0000 C   0  0  0  0  0  0  0  2  0  0  0  0
   -3.2151   -1.0312    0.0000 C   0  0  0  0  0  0  0  2  0  0  0  0
   -3.2151   -0.2062    0.0000 C   0  0  0  0  0  0  0  2  0  0  0  0
   -2.5006    0.2062    0.0000 C   0  0  0  0  0  0  0  2  0  0  0  0
   -1.7862   -0.2062    0.0000 C   0  0  0  0  0  0  0  2  0  0  0  0
   -1.0717    0.2062    0.0000 C   0  0  0  0  0  0  0  2  0  0  0  0
   -1.4842    0.9207    0.0000 C   0  0  0  0  0  0  0  2  0  0  0  0
   -0.6592    0.9207    0.0000 C   0  0  0  0  0  0  0  2  0  0  0  0
   -0.3572   -0.2062    0.0000 N   0  0  0  0  0  0  0  2  0  0  0  0
    0.3572    0.2062    0.0000 C   0  0  0  0  0  0  0  2  0  0  0  0
    0.3572    1.0313    0.0000 O   0  0  0  0  0  0  0  2  0  0  0  0
    1.0717   -0.2062    0.0000 N   0  0  0  0  0  0  0  2  0  0  0  0
    1.0717   -1.0313    0.0000 C   0  0  0  0  0  0  0  2  0  0  0  0
    1.7862    0.2062    0.0000 C   0  0  0  0  0  0  0  2  0  0  0  0
    1.7862    1.0312    0.0000 C   0  0  0  0  0  0  0  2  0  0  0  0
    2.5006    1.4438    0.0000 C   0  0  0  0  0  0  0  2  0  0  0  0
    3.2151    1.0313    0.0000 C   0  0  0  0  0  0  0  2  0  0  0  0
    3.2151    0.2062    0.0000 C   0  0  0  0  0  0  0  2  0  0  0  0
    2.5006   -0.2062    0.0000 C   0  0  0  0  0  0  0  2  0  0  0  0
  1  2  4  0        0
  2  3  4  0        0
  3  4  4  0        0
  4  5  4  0        0
  5  6  4  0        0
  1  6  4  0        0
  6  7  1  0        0
  7  8  1  0        0
  7  9  1  0        0
  7 10  1  0        0
 10 11  1  0        0
 11 12  2  0        0
 11 13  1  0        0
 13 14  1  0        0
 13 15  1  0        0
 15 16  4  0        0
 16 17  4  0        0
 17 18  4  0        0
 18 19  4  0        0
 19 20  4  0        0
 15 20  4  0        0
M  END
$$$$

CDXL12

 24 25  0  0  0  0  0  0  0  0999 V2000
   -0.3572    0.4125    0.0000 Cl  0  0  0  0  0  0  0  2  0  0  0  0
   -1.0717    0.0000    0.0000 C   0  0  0  0  0  0  0  2  0  0  0  0
   -1.7862    0.4125    0.0000 C   0  0  0  0  0  0  0  2  0  0  0  0
   -2.5006   -0.0000    0.0000 C   0  0  0  0  0  0  0  2  0  0  0  0
   -3.2151    0.4125    0.0000 C   0  0  0  0  0  0  0  2  0  0  0  0
   -3.2151    1.2375    0.0000 F   0  0  0  0  0  0  0  2  0  0  0  0
   -3.9296    0.8250    0.0000 F   0  0  0  0  0  0  0  2  0  0  0  0
   -3.9296   -0.0000    0.0000 F   0  0  0  0  0  0  0  2  0  0  0  0
   -2.5006   -0.8250    0.0000 C   0  0  0  0  0  0  0  2  0  0  0  0
   -1.7862   -1.2375    0.0000 C   0  0  0  0  0  0  0  2  0  0  0  0
   -1.0717   -0.8250    0.0000 C   0  0  0  0  0  0  0  2  0  0  0  0
   -0.3572   -1.2375    0.0000 O   0  0  0  0  0  0  0  2  0  0  0  0
    0.3572   -0.8250    0.0000 C   0  0  0  0  0  0  0  2  0  0  0  0
    1.0717   -1.2375    0.0000 C   0  0  0  0  0  0  0  2  0  0  0  0
    1.7862   -0.8250    0.0000 C   0  0  0  0  0  0  0  2  0  0  0  0
    2.5006   -1.2375    0.0000 O   0  0  0  0  0  0  0  2  0  0  0  0
    3.2151   -0.8250    0.0000 C   0  0  0  0  0  0  0  2  0  0  0  0
    3.9296   -1.2375    0.0000 C   0  0  0  0  0  0  0  2  0  0  0  0
    1.7862    0.0000    0.0000 C   0  0  0  0  0  0  0  2  0  0  0  0
    2.5006    0.4125    0.0000 N   0  0  0  0  0  0  0  2  0  0  0  0
    2.5006    1.2375    0.0000 O   0  0  0  0  0  0  0  2  0  0  0  0
    3.2151    0.0000    0.0000 O   0  0  0  0  0  0  0  2  0  0  0  0
    1.0717    0.4125    0.0000 C   0  0  0  0  0  0  0  2  0  0  0  0
    0.3572    0.0000    0.0000 C   0  0  0  0  0  0  0  2  0  0  0  0
  1  2  1  0        0
  2  3  4  0        0
  3  4  4  0        0
  4  5  1  0        0
  5  6  1  0        0
  5  7  1  0        0
  5  8  1  0        0
  4  9  4  0        0
  9 10  4  0        0
 10 11  4  0        0
  2 11  4  0        0
 11 12  1  0        0
 12 13  1  0        0
 13 14  4  0        0
 14 15  4  0        0
 15 16  1  0        0
 16 17  1  0        0
 17 18  1  0        0
 15 19  4  0        0
 19 20  1  0        0
 20 21  2  0        0
 20 22  2  0        0
 19 23  4  0        0
 23 24  4  0        0
 13 24  4  0        0
M  END
$$$$

CDXL12

 20 21  0  0  0  0  0  0  0  0999 V2000
   -2.1434   -0.3965    0.0000 C   0  0  0  0  0  0  0  2  0  0  0  0
   -2.1434    0.4285    0.0000 C   0  0  0  0  0  0  0  2  0  0  0  0
   -2.8579    0.0160    0.0000 C   0  0  0  0  0  0  0  2  0  0  0  0
   -2.8579    0.8410    0.0000 C   0  0  0  0  0  0  0  2  0  0  0  0
   -1.4289    0.8410    0.0000 C   0  0  0  0  0  0  0  2  0  0  0  0
   -1.4289    1.6660    0.0000 O   0  0  0  0  0  0  0  2  0  0  0  0
   -0.7145    0.4285    0.0000 C   0  0  0  0  0  0  0  2  0  0  0  0
   -0.0000    0.8410    0.0000 O   0  0  0  0  0  0  0  2  0  0  0  0
    0.7145    0.4285    0.0000 C   0  0  0  0  0  0  0  2  0  0  0  0
    1.4289    0.8410    0.0000 C   0  0  0  0  0  0  0  2  0  0  0  0
    2.1434    0.4285    0.0000 C   0  0  0  0  0  0  0  2  0  0  0  0
    2.1434   -0.3965    0.0000 C   0  0  0  0  0  0  0  2  0  0  0  0
    2.8579   -0.8090    0.0000 Cl  0  0  0  0  0  0  0  2  0  0  0  0
    1.4289   -0.8090    0.0000 C   0  0  0  0  0  0  0  2  0  0  0  0
    0.7145   -0.3965    0.0000 C   0  0  0  0  0  0  0  2  0  0  0  0
   -0.7145   -0.3965    0.0000 N   0  0  0  0  0  0  0  2  0  0  0  0
   -0.0470   -0.8814    0.0000 C   0  0  0  0  0  0  0  2  0  0  0  0
   -0.3020   -1.6660    0.0000 N   0  0  0  0  0  0  0  2  0  0  0  0
   -1.1270   -1.6660    0.0000 C   0  0  0  0  0  0  0  2  0  0  0  0
   -1.3819   -0.8814    0.0000 N   0  0  0  0  0  0  0  2  0  0  0  0
  1  2  1  0        0
  2  3  1  0        0
  2  4  1  0        0
  2  5  1  0        0
  5  6  2  0        0
  5  7  1  0        0
  7  8  1  0        0
  8  9  1  0        0
  9 10  4  0        0
 10 11  4  0        0
 11 12  4  0        0
 12 13  1  0        0
 12 14  4  0        0
 14 15  4  0        0
  9 15  4  0        0
  7 16  1  0        0
 16 17  4  0        0
 17 18  4  0        0
 18 19  4  0        0
 19 20  4  0        0
 16 20  4  0        0
M  END
$$$$

CDXL12

 22 22  0  0  0  0  0  0  0  0999 V2000
   -1.4289    1.6500    0.0000 Br  0  0  0  0  0  0  0  2  0  0  0  0
   -1.4289    0.8250    0.0000 C   0  0  0  0  0  0  0  2  0  0  0  0
   -2.1434    0.4125    0.0000 C   0  0  0  0  0  0  0  2  0  0  0  0
   -2.8579    0.8250    0.0000 Br  0  0  0  0  0  0  0  2  0  0  0  0
   -2.1434   -0.4125    0.0000 C   0  0  0  0  0  0  0  2  0  0  0  0
   -2.8579   -0.8250    0.0000 Br  0  0  0  0  0  0  0  2  0  0  0  0
   -1.4289   -0.8250    0.0000 C   0  0  0  0  0  0  0  2  0  0  0  0
   -1.4289   -1.6500    0.0000 Br  0  0  0  0  0  0  0  2  0  0  0  0
   -0.7145   -0.4125    0.0000 C   0  0  0  0  0  0  0  2  0  0  0  0
   -0.0000   -0.8250    0.0000 C   0  0  0  0  0  0  0  2  0  0  0  0
   -0.0000   -1.6500    0.0000 O   0  0  0  0  0  0  0  2  0  0  0  0
    0.7145   -0.4125    0.0000 O   0  0  0  0  0  0  0  2  0  0  0  0
    1.4289   -0.8250    0.0000 C   0  0  0  0  0  0  0  2  0  0  0  0
    2.1434   -0.4125    0.0000 C   0  0  0  0  0  0  0  2  0  0  0  0
    2.8579   -0.8250    0.0000 C   0  0  0  0  0  0  0  2  0  0  0  0
   -0.7145    0.4125    0.0000 C   0  0  0  0  0  0  0  2  0  0  0  0
   -0.0000    0.8250    0.0000 C   0  0  0  0  0  0  0  2  0  0  0  0
   -0.0000    1.6500    0.0000 O   0  0  0  0  0  0  0  2  0  0  0  0
    0.7145    0.4125    0.0000 O   0  0  0  0  0  0  0  2  0  0  0  0
    1.4289    0.8250    0.0000 C   0  0  0  0  0  0  0  2  0  0  0  0
    2.1434    0.4125    0.0000 C   0  0  0  0  0  0  0  2  0  0  0  0
    2.8579    0.8250    0.0000 C   0  0  0  0  0  0  0  2  0  0  0  0
  1  2  1  0        0
  2  3  4  0        0
  3  4  1  0        0
  3  5  4  0        0
  5  6  1  0        0
  5  7  4  0        0
  7  8  1  0        0
  7  9  4  0        0
  9 10  1  0        0
 10 11  2  0        0
 10 12  1  0        0
 12 13  1  0        0
 13 14  1  0        0
 14 15  2  0        0
  9 16  4  0        0
  2 16  4  0        0
 16 17  1  0        0
 17 18  2  0        0
 17 19  1  0        0
 19 20  1  0        0
 20 21  1  0        0
 21 22  2  0        0
M  END
$$$$

CDXL12

 18 19  0  0  0  0  0  0  0  0999 V2000
   -0.6489   -0.6863    0.0000 C   0  0  0  0  0  0  0  2  0  0  0  0
   -1.3634   -1.0988    0.0000 C   0  0  0  0  0  0  0  2  0  0  0  0
   -1.3634   -1.9238    0.0000 Cl  0  0  0  0  0  0  0  2  0  0  0  0
   -2.0779   -0.6863    0.0000 C   0  0  0  0  0  0  0  2  0  0  0  0
   -2.0779    0.1387    0.0000 C   0  0  0  0  0  0  0  2  0  0  0  0
   -2.7924    0.5512    0.0000 Cl  0  0  0  0  0  0  0  2  0  0  0  0
   -1.3634    0.5512    0.0000 C   0  0  0  0  0  0  0  2  0  0  0  0
   -0.6489    0.1387    0.0000 C   0  0  0  0  0  0  0  2  0  0  0  0
    0.0655    0.5512    0.0000 N   0  0  0  0  0  0  0  2  0  0  0  0
    0.8192    0.2157    0.0000 C   0  0  0  0  0  0  0  2  0  0  0  0
    0.9907   -0.5913    0.0000 O   0  0  0  0  0  0  0  2  0  0  0  0
    1.3712    0.8288    0.0000 C   0  0  0  0  0  0  0  2  0  0  0  0
    2.0387    0.3439    0.0000 C   0  0  0  0  0  0  0  2  0  0  0  0
    2.1249    1.1643    0.0000 C   0  0  0  0  0  0  0  2  0  0  0  0
    2.7924    0.6794    0.0000 C   0  0  0  0  0  0  0  2  0  0  0  0
    0.9587    1.5433    0.0000 O   0  0  0  0  0  0  0  2  0  0  0  0
    0.1518    1.3717    0.0000 C   0  0  0  0  0  0  0  2  0  0  0  0
   -0.4613    1.9238    0.0000 O   0  0  0  0  0  0  0  2  0  0  0  0
  1  2  4  0        0
  2  3  1  0        0
  2  4  4  0        0
  4  5  4  0        0
  5  6  1  0        0
  5  7  4  0        0
  7  8  4  0        0
  1  8  4  0        0
  8  9  1  0        0
  9 10  1  0        0
 10 11  2  0        0
 10 12  1  0        0
 12 13  1  0        0
 12 14  1  0        0
 14 15  2  0        0
 12 16  1  0        0
 16 17  1  0        0
  9 17  1  0        0
 17 18  2  0        0
M  END
$$$$

CDXL12

 18 18  0  0  0  0  0  0  0  0999 V2000
    2.1434    1.6660    0.0000 C   0  0  0  0  0  0  0  2  0  0  0  0
    2.1434    0.8410    0.0000 C   0  0  0  0  0  0  0  2  0  0  0  0
    2.8579    0.4285    0.0000 C   0  0  0  0  0  0  0  2  0  0  0  0
    1.4289    0.4285    0.0000 O   0  0  0  0  0  0  0  2  0  0  0  0
    0.7145    0.8410    0.0000 C   0  0  0  0  0  0  0  2  0  0  0  0
    0.7145    1.6660    0.0000 O   0  0  0  0  0  0  0  2  0  0  0  0
    0.0000    0.4285    0.0000 C   0  0  0  0  0  0  0  2  0  0  0  0
   -0.7145    0.8410    0.0000 C   0  0  0  0  0  0  0  2  0  0  0  0
   -0.7145    1.6660    0.0000 O   0  0  0  0  0  0  0  2  0  0  0  0
   -1.4289    0.4285    0.0000 O   0  0  0  0  0  0  0  2  0  0  0  0
   -2.1434    0.8410    0.0000 C   0  0  0  0  0  0  0  2  0  0  0  0
   -2.8579    0.4285    0.0000 C   0  0  0  0  0  0  0  2  0  0  0  0
   -2.1434    1.6660    0.0000 C   0  0  0  0  0  0  0  2  0  0  0  0
    0.0000   -0.3965    0.0000 C   0  0  0  0  0  0  0  2  0  0  0  0
    0.6674   -0.8814    0.0000 S   0  0  0  0  0  0  0  2  0  0  0  0
    0.4125   -1.6660    0.0000 C   0  0  0  0  0  0  0  2  0  0  0  0
   -0.4125   -1.6660    0.0000 C   0  0  0  0  0  0  0  2  0  0  0  0
   -0.6674   -0.8814    0.0000 S   0  0  0  0  0  0  0  2  0  0  0  0
  1  2  1  0        0
  2  3  1  0        0
  2  4  1  0        0
  4  5  1  0        0
  5  6  2  0        0
  5  7  1  0        0
  7  8  1  0        0
  8  9  2  0        0
  8 10  1  0        0
 10 11  1  0        0
 11 12  1  0        0
 11 13  1  0        0
  7 14  2  0        0
 14 15  1  0        0
 15 16  1  0        0
 16 17  1  0        0
 17 18  1  0        0
 14 18  1  0        0
M  END
$$$$

CDXL12

 17 17  0  0  0  0  0  0  0  0999 V2000
   -1.0717    1.8563    0.0000 O   0  0  0  0  0  0  0  2  0  0  0  0
   -1.0717    1.0313    0.0000 C   0  0  0  0  0  0  0  2  0  0  0  0
   -0.3572    0.6188    0.0000 N   0  0  0  0  0  0  0  2  0  0  0  0
   -0.3572   -0.2062    0.0000 C   0  0  0  0  0  0  0  2  0  0  0  0
   -1.0717   -0.6188    0.0000 C   0  0  0  0  0  0  0  2  0  0  0  0
   -1.0717   -1.4438    0.0000 C   0  0  0  0  0  0  0  2  0  0  0  0
   -0.3572   -1.8563    0.0000 C   0  0  0  0  0  0  0  2  0  0  0  0
    0.3572   -1.4438    0.0000 C   0  0  0  0  0  0  0  2  0  0  0  0
    0.3572   -0.6187    0.0000 C   0  0  0  0  0  0  0  2  0  0  0  0
    1.0717   -0.2062    0.0000 C   0  0  0  0  0  0  0  2  0  0  0  0
   -1.7862   -0.2062    0.0000 C   0  0  0  0  0  0  0  2  0  0  0  0
    0.3572    1.0313    0.0000 C   0  0  0  0  0  0  0  2  0  0  0  0
    1.0717    0.6188    0.0000 C   0  0  0  0  0  0  0  2  0  0  0  0
    1.7862    1.0312    0.0000 O   0  0  0  0  0  0  0  2  0  0  0  0
    2.5006    0.6188    0.0000 C   0  0  0  0  0  0  0  2  0  0  0  0
   -1.7862    0.6188    0.0000 C   0  0  0  0  0  0  0  2  0  0  0  0
   -2.5006    1.0312    0.0000 Cl  0  0  0  0  0  0  0  2  0  0  0  0
  1  2  2  0        0
  2  3  1  0        0
  3  4  1  0        0
  4  5  4  0        0
  5  6  4  0        0
  6  7  4  0        0
  7  8  4  0        0
  8  9  4  0        0
  4  9  4  0        0
  9 10  1  0        0
  5 11  1  0        0
  3 12  1  0        0
 12 13  1  0        0
 13 14  1  0        0
 14 15  1  0        0
  2 16  1  0        0
 16 17  1  0        0
M  END
$$$$

CDXL12

 24 25  0  0  0  0  0  0  0  0999 V2000
    2.8579   -1.6500    0.0000 O   0  0  0  0  0  0  0  2  0  0  0  0
    2.8579   -0.8250    0.0000 C   0  0  0  0  0  0  0  2  0  0  0  0
    3.5724   -0.4125    0.0000 O   0  0  0  0  0  0  0  2  0  0  0  0
    2.1434   -0.4125    0.0000 C   0  0  0  0  0  0  0  2  0  0  0  0
    2.1434    0.4125    0.0000 C   0  0  0  0  0  0  0  2  0  0  0  0
    2.8579    0.8250    0.0000 N   0  0  0  0  0  0  0  2  0  0  0  0
    2.8579    1.6500    0.0000 O   0  0  0  0  0  0  0  2  0  0  0  0
    3.5724    0.4125    0.0000 O   0  0  0  0  0  0  0  2  0  0  0  0
    1.4289    0.8250    0.0000 C   0  0  0  0  0  0  0  2  0  0  0  0
    0.7145    0.4125    0.0000 C   0  0  0  0  0  0  0  2  0  0  0  0
    0.7145   -0.4125    0.0000 C   0  0  0  0  0  0  0  2  0  0  0  0
    0.0000   -0.8250    0.0000 O   0  0  0  0  0  0  0  2  0  0  0  0
   -0.7145   -0.4125    0.0000 C   0  0  0  0  0  0  0  2  0  0  0  0
   -0.7145    0.4125    0.0000 C   0  0  0  0  0  0  0  2  0  0  0  0
   -1.4289    0.8250    0.0000 C   0  0  0  0  0  0  0  2  0  0  0  0
   -2.1434    0.4125    0.0000 C   0  0  0  0  0  0  0  2  0  0  0  0
   -2.1434   -0.4125    0.0000 C   0  0  0  0  0  0  0  2  0  0  0  0
   -1.4289   -0.8250    0.0000 C   0  0  0  0  0  0  0  2  0  0  0  0
   -2.8579    0.8250    0.0000 C   0  0  0  0  0  0  0  2  0  0  0  0
   -2.8579    1.6500    0.0000 F   0  0  0  0  0  0  0  2  0  0  0  0
   -3.5724    1.2375    0.0000 F   0  0  0  0  0  0  0  2  0  0  0  0
   -3.5724    0.4125    0.0000 F   0  0  0  0  0  0  0  2  0  0  0  0
    0.0000    0.8250    0.0000 Cl  0  0  0  0  0  0  0  2  0  0  0  0
    1.4289   -0.8250    0.0000 C   0  0  0  0  0  0  0  2  0  0  0  0
  1  2  2  0        0
  2  3  1  0        0
  2  4  1  0        0
  4  5  4  0        0
  5  6  1  0        0
  6  7  2  0        0
  6  8  2  0        0
  5  9  4  0        0
  9 10  4  0        0
 10 11  4  0        0
 11 12  1  0        0
 12 13  1  0        0
 13 14  4  0        0
 14 15  4  0        0
 15 16  4  0        0
 16 17  4  0        0
 17 18  4  0        0
 13 18  4  0        0
 16 19  1  0        0
 19 20  1  0        0
 19 21  1  0        0
 19 22  1  0        0
 14 23  1  0        0
 11 24  4  0        0
  4 24  4  0        0
M  END
$$$$

CDXL12

 16 15  0  0  0  0  0  0  0  0999 V2000
   -1.0717    0.8250    0.0000 O   0  0  0  0  0  0  0  2  0  0  0  0
   -1.0717    0.0000    0.0000 P   0  0  0  0  0  0  0  2  0  0  0  0
   -1.0717   -0.8250    0.0000 C   0  0  0  0  0  0  0  2  0  0  0  0
   -1.7862   -0.4125    0.0000 O   0  0  0  0  0  0  0  2  0  0  0  0
   -2.5006    0.0000    0.0000 C   0  0  0  0  0  0  0  2  0  0  0  0
   -3.2151   -0.4125    0.0000 C   0  0  0  0  0  0  0  2  0  0  0  0
   -0.3572   -0.4125    0.0000 S   0  0  0  0  0  0  0  2  0  0  0  0
    0.3572    0.0000    0.0000 C   0  0  0  0  0  0  0  2  0  0  0  0
    1.0717   -0.4125    0.0000 C   0  0  0  0  0  0  0  2  0  0  0  0
    1.7862    0.0000    0.0000 N   0  0  0  0  0  0  0  2  0  0  0  0
    2.5006   -0.4125    0.0000 C   0  0  0  0  0  0  0  2  0  0  0  0
    3.2151    0.0000    0.0000 C   0  0  0  0  0  0  0  2  0  0  0  0
    2.5006   -1.2375    0.0000 C   0  0  0  0  0  0  0  2  0  0  0  0
    1.7862    0.8250    0.0000 C   0  0  0  0  0  0  0  2  0  0  0  0
    2.5006    1.2375    0.0000 C   0  0  0  0  0  0  0  2  0  0  0  0
    1.0717    1.2375    0.0000 C   0  0  0  0  0  0  0  2  0  0  0  0
  1  2  2  0        0
  2  3  1  0        0
  2  4  1  0        0
  4  5  1  0        0
  5  6  1  0        0
  2  7  1  0        0
  7  8  1  0        0
  8  9  1  0        0
  9 10  1  0        0
 10 11  1  0        0
 11 12  1  0        0
 11 13  1  0        0
 10 14  1  0        0
 14 15  1  0        0
 14 16  1  0        0
M  END
$$$$

CDXL12

 23 22  0  0  0  0  0  0  0  0999 V2000
   -7.1447   -0.4125    0.0000 C   0  0  0  0  0  0  0  2  0  0  0  0
   -6.4302   -0.0000    0.0000 C   0  0  0  0  0  0  0  2  0  0  0  0
   -5.7158   -0.4125    0.0000 C   0  0  0  0  0  0  0  2  0  0  0  0
   -5.0013   -0.0000    0.0000 C   0  0  0  0  0  0  0  2  0  0  0  0
   -4.2868   -0.4125    0.0000 C   0  0  0  0  0  0  0  2  0  0  0  0
   -3.5724   -0.0000    0.0000 C   0  0  0  0  0  0  0  2  0  0  0  0
   -2.8579   -0.4125    0.0000 C   0  0  0  0  0  0  0  2  0  0  0  0
   -2.1434   -0.0000    0.0000 C   0  0  0  0  0  0  0  2  0  0  0  0
   -1.4289   -0.4125    0.0000 C   0  0  0  0  0  0  0  2  0  0  0  0
   -0.7145   -0.0000    0.0000 O   0  0  0  0  0  0  0  2  0  0  0  0
    0.0000   -0.4125    0.0000 C   0  0  0  0  0  0  0  2  0  0  0  0
    0.7145   -0.0000    0.0000 C   0  0  0  0  0  0  0  2  0  0  0  0
    1.4289   -0.4125    0.0000 O   0  0  0  0  0  0  0  2  0  0  0  0
    2.1434   -0.0000    0.0000 C   0  0  0  0  0  0  0  2  0  0  0  0
    2.8579   -0.4125    0.0000 C   0  0  0  0  0  0  0  2  0  0  0  0
    3.5724   -0.0000    0.0000 O   0  0  0  0  0  0  0  2  0  0  0  0
    4.2868   -0.4125    0.0000 C   0  0  0  0  0  0  0  2  0  0  0  0
    5.0013   -0.0000    0.0000 C   0  0  0  0  0  0  0  2  0  0  0  0
    5.7158   -0.4125    0.0000 O   0  0  0  0  0  0  0  2  0  0  0  0
    6.4302    0.0000    0.0000 P   0  0  0  0  0  0  0  2  0  0  0  0
    6.4302    0.8250    0.0000 O   0  0  0  0  0  0  0  2  0  0  0  0
    6.4302   -0.8250    0.0000 O   0  0  0  0  0  0  0  2  0  0  0  0
    7.1447   -0.4125    0.0000 O   0  0  0  0  0  0  0  2  0  0  0  0
  1  2  1  0        0
  2  3  1  0        0
  3  4  1  0        0
  4  5  1  0        0
  5  6  1  0        0
  6  7  1  0        0
  7  8  1  0        0
  8  9  1  0        0
  9 10  1  0        0
 10 11  1  0        0
 11 12  1  0        0
 12 13  1  0        0
 13 14  1  0        0
 14 15  1  0        0
 15 16  1  0        0
 16 17  1  0        0
 17 18  1  0        0
 18 19  1  0        0
 19 20  1  0        0
 20 21  2  0        0
 20 22  1  0        0
 20 23  1  0        0
M  END
$$$$

CDXL12

 21 21  0  0  0  0  0  0  0  0999 V2000
   -3.2151   -0.6188    0.0000 C   0  0  0  0  0  0  0  2  0  0  0  0
   -2.5006   -0.2062    0.0000 C   0  0  0  0  0  0  0  2  0  0  0  0
   -1.7862   -0.6188    0.0000 C   0  0  0  0  0  0  0  2  0  0  0  0
   -1.7862   -1.4438    0.0000 C   0  0  0  0  0  0  0  2  0  0  0  0
   -1.0717   -1.8563    0.0000 C   0  0  0  0  0  0  0  2  0  0  0  0
   -0.3572   -1.4437    0.0000 C   0  0  0  0  0  0  0  2  0  0  0  0
   -0.3572   -0.6187    0.0000 C   0  0  0  0  0  0  0  2  0  0  0  0
    0.3572   -0.2062    0.0000 C   0  0  0  0  0  0  0  2  0  0  0  0
    1.0717   -0.6187    0.0000 C   0  0  0  0  0  0  0  2  0  0  0  0
   -1.0717   -0.2062    0.0000 C   0  0  0  0  0  0  0  2  0  0  0  0
   -1.0717    0.6188    0.0000 N   0  0  0  0  0  0  0  2  0  0  0  0
   -1.7862    1.0313    0.0000 C   0  0  0  0  0  0  0  2  0  0  0  0
   -1.7862    1.8563    0.0000 O   0  0  0  0  0  0  0  2  0  0  0  0
   -2.5006    0.6188    0.0000 C   0  0  0  0  0  0  0  2  0  0  0  0
   -3.2151    1.0312    0.0000 Cl  0  0  0  0  0  0  0  2  0  0  0  0
   -0.3572    1.0313    0.0000 C   0  0  0  0  0  0  0  2  0  0  0  0
    0.3572    0.6188    0.0000 C   0  0  0  0  0  0  0  2  0  0  0  0
    1.0717    1.0312    0.0000 O   0  0  0  0  0  0  0  2  0  0  0  0
    1.7862    0.6188    0.0000 C   0  0  0  0  0  0  0  2  0  0  0  0
    2.5006    1.0312    0.0000 C   0  0  0  0  0  0  0  2  0  0  0  0
    3.2151    0.6188    0.0000 C   0  0  0  0  0  0  0  2  0  0  0  0
  1  2  1  0        0
  2  3  1  0        0
  3  4  4  0        0
  4  5  4  0        0
  5  6  4  0        0
  6  7  4  0        0
  7  8  1  0        0
  8  9  1  0        0
  7 10  4  0        0
  3 10  4  0        0
 10 11  1  0        0
 11 12  1  0        0
 12 13  2  0        0
 12 14  1  0        0
 14 15  1  0        0
 11 16  1  0        0
 16 17  1  0        0
 17 18  1  0        0
 18 19  1  0        0
 19 20  1  0        0
 20 21  1  0        0
M  END
$$$$

CDXL12

 18 19  0  0  0  0  0  0  0  0999 V2000
    1.0717   -1.0313    0.0000 O   0  0  0  0  0  0  0  2  0  0  0  0
    0.3572   -0.6188    0.0000 C   0  0  0  0  0  0  0  2  0  0  0  0
   -0.3572   -1.0312    0.0000 N   0  0  0  0  0  0  0  2  0  0  0  0
   -1.0717   -0.6188    0.0000 C   0  0  0  0  0  0  0  2  0  0  0  0
   -1.0717    0.2062    0.0000 N   0  0  0  0  0  0  0  2  0  0  0  0
   -0.3572    0.6187    0.0000 C   0  0  0  0  0  0  0  2  0  0  0  0
   -0.3572    1.4437    0.0000 O   0  0  0  0  0  0  0  2  0  0  0  0
    0.3572    0.2062    0.0000 N   0  0  0  0  0  0  0  2  0  0  0  0
    1.0717    0.6187    0.0000 C   0  0  0  0  0  0  0  2  0  0  0  0
    1.0717    1.4437    0.0000 C   0  0  0  0  0  0  0  2  0  0  0  0
    1.7862    1.8562    0.0000 C   0  0  0  0  0  0  0  2  0  0  0  0
    2.5006    1.4437    0.0000 C   0  0  0  0  0  0  0  2  0  0  0  0
    2.5006    0.6187    0.0000 C   0  0  0  0  0  0  0  2  0  0  0  0
    1.7862    0.2062    0.0000 C   0  0  0  0  0  0  0  2  0  0  0  0
   -1.7862    0.6187    0.0000 C   0  0  0  0  0  0  0  2  0  0  0  0
   -1.7862   -1.0312    0.0000 N   0  0  0  0  0  0  0  2  0  0  0  0
   -1.7862   -1.8562    0.0000 C   0  0  0  0  0  0  0  2  0  0  0  0
   -2.5006   -0.6188    0.0000 C   0  0  0  0  0  0  0  2  0  0  0  0
  1  2  2  0        0
  2  3  1  0        0
  3  4  2  0        0
  4  5  1  0        0
  5  6  1  0        0
  6  7  2  0        0
  6  8  1  0        0
  2  8  1  0        0
  8  9  1  0        0
  9 10  1  0        0
 10 11  1  0        0
 11 12  1  0        0
 12 13  1  0        0
 13 14  1  0        0
  9 14  1  0        0
  5 15  1  0        0
  4 16  1  0        0
 16 17  1  0        0
 16 18  1  0        0
M  END
$$$$

CDXL12

 25 26  0  0  0  0  0  0  0  0999 V2000
   -2.1434    0.8250    0.0000 C   0  0  0  0  0  0  0  2  0  0  0  0
   -2.8579    1.2375    0.0000 N   0  0  0  0  0  0  0  2  0  0  0  0
   -2.8579    2.0625    0.0000 C   0  0  0  0  0  0  0  2  0  0  0  0
   -2.1434    2.4750    0.0000 C   0  0  0  0  0  0  0  2  0  0  0  0
   -1.4289    2.0625    0.0000 C   0  0  0  0  0  0  0  2  0  0  0  0
   -1.4289    1.2375    0.0000 C   0  0  0  0  0  0  0  2  0  0  0  0
   -0.7145    0.8250    0.0000 N   0  0  0  0  0  0  0  2  0  0  0  0
   -0.7145   -0.0000    0.0000 C   0  0  0  0  0  0  0  2  0  0  0  0
   -1.4289   -0.4125    0.0000 S   0  0  0  0  0  0  0  2  0  0  0  0
   -2.1434   -0.0000    0.0000 C   0  0  0  0  0  0  0  2  0  0  0  0
   -2.8579   -0.4125    0.0000 C   0  0  0  0  0  0  0  2  0  0  0  0
   -3.5724   -0.0000    0.0000 C   0  0  0  0  0  0  0  2  0  0  0  0
   -4.2868   -0.4125    0.0000 C   0  0  0  0  0  0  0  2  0  0  0  0
    0.0000   -0.4125    0.0000 S   0  0  0  0  0  0  0  2  0  0  0  0
    0.7145   -0.0000    0.0000 C   0  0  0  0  0  0  0  2  0  0  0  0
    1.4289   -0.4125    0.0000 C   0  0  0  0  0  0  0  2  0  0  0  0
    2.1434   -0.0000    0.0000 C   0  0  0  0  0  0  0  2  0  0  0  0
    2.8579   -0.4125    0.0000 C   0  0  0  0  0  0  0  2  0  0  0  0
    2.8579   -1.2375    0.0000 C   0  0  0  0  0  0  0  2  0  0  0  0
    3.5724   -1.6500    0.0000 C   0  0  0  0  0  0  0  2  0  0  0  0
    4.2868   -2.0625    0.0000 C   0  0  0  0  0  0  0  2  0  0  0  0
    3.5724   -2.4750    0.0000 C   0  0  0  0  0  0  0  2  0  0  0  0
    4.2868   -1.2375    0.0000 C   0  0  0  0  0  0  0  2  0  0  0  0
    2.1434   -1.6500    0.0000 C   0  0  0  0  0  0  0  2  0  0  0  0
    1.4289   -1.2375    0.0000 C   0  0  0  0  0  0  0  2  0  0  0  0
  1  2  4  0        0
  2  3  4  0        0
  3  4  4  0        0
  4  5  4  0        0
  5  6  4  0        0
  1  6  4  0        0
  6  7  1  0        0
  7  8  2  0        0
  8  9  1  0        0
  9 10  1  0        0
 10 11  1  0        0
 11 12  1  0        0
 12 13  1  0        0
  8 14  1  0        0
 14 15  1  0        0
 15 16  1  0        0
 16 17  4  0        0
 17 18  4  0        0
 18 19  4  0        0
 19 20  1  0        0
 20 21  1  0        0
 20 22  1  0        0
 20 23  1  0        0
 19 24  4  0        0
 24 25  4  0        0
 16 25  4  0        0
M  END
$$$$

CDXL12

 22 23  0  0  0  0  0  0  0  0999 V2000
    4.2868    0.4125    0.0000 C   0  0  0  0  0  0  0  2  0  0  0  0
    3.5724   -0.0000    0.0000 O   0  0  0  0  0  0  0  2  0  0  0  0
    2.8579    0.4125    0.0000 C   0  0  0  0  0  0  0  2  0  0  0  0
    2.8579    1.2375    0.0000 O   0  0  0  0  0  0  0  2  0  0  0  0
    2.1434   -0.0000    0.0000 C   0  0  0  0  0  0  0  2  0  0  0  0
    2.1434   -0.8250    0.0000 C   0  0  0  0  0  0  0  2  0  0  0  0
    1.4289    0.4125    0.0000 O   0  0  0  0  0  0  0  2  0  0  0  0
    0.7145   -0.0000    0.0000 C   0  0  0  0  0  0  0  2  0  0  0  0
    0.7145   -0.8250    0.0000 C   0  0  0  0  0  0  0  2  0  0  0  0
    0.0000   -1.2375    0.0000 C   0  0  0  0  0  0  0  2  0  0  0  0
   -0.7145   -0.8250    0.0000 C   0  0  0  0  0  0  0  2  0  0  0  0
   -1.4289   -1.2375    0.0000 O   0  0  0  0  0  0  0  2  0  0  0  0
   -2.1434   -0.8250    0.0000 C   0  0  0  0  0  0  0  2  0  0  0  0
   -2.8579   -1.2375    0.0000 C   0  0  0  0  0  0  0  2  0  0  0  0
   -3.5724   -0.8250    0.0000 C   0  0  0  0  0  0  0  2  0  0  0  0
   -3.5724   -0.0000    0.0000 C   0  0  0  0  0  0  0  2  0  0  0  0
   -4.2868    0.4125    0.0000 Cl  0  0  0  0  0  0  0  2  0  0  0  0
   -2.8579    0.4125    0.0000 C   0  0  0  0  0  0  0  2  0  0  0  0
   -2.1434   -0.0000    0.0000 C   0  0  0  0  0  0  0  2  0  0  0  0
   -1.4289    0.4125    0.0000 Cl  0  0  0  0  0  0  0  2  0  0  0  0
   -0.7145   -0.0000    0.0000 C   0  0  0  0  0  0  0  2  0  0  0  0
    0.0000    0.4125    0.0000 C   0  0  0  0  0  0  0  2  0  0  0  0
  1  2  1  0        0
  2  3  1  0        0
  3  4  2  0        0
  3  5  1  0        0
  5  6  1  0        0
  5  7  1  0        0
  7  8  1  0        0
  8  9  4  0        0
  9 10  4  0        0
 10 11  4  0        0
 11 12  1  0        0
 12 13  1  0        0
 13 14  4  0        0
 14 15  4  0        0
 15 16  4  0        0
 16 17  1  0        0
 16 18  4  0        0
 18 19  4  0        0
 13 19  4  0        0
 19 20  1  0        0
 11 21  4  0        0
 21 22  4  0        0
  8 22  4  0        0
M  END
$$$$

CDXL12

 17 17  0  0  0  0  0  0  0  0999 V2000
   -2.4390    0.7575    0.0000 C   0  0  0  0  0  0  0  2  0  0  0  0
   -1.7246    0.3450    0.0000 N   0  0  0  0  0  0  0  2  0  0  0  0
   -1.7246   -0.4800    0.0000 C   0  0  0  0  0  0  0  2  0  0  0  0
   -1.0101   -0.8925    0.0000 N   0  0  0  0  0  0  0  2  0  0  0  0
   -0.2956   -0.4800    0.0000 C   0  0  0  0  0  0  0  2  0  0  0  0
    0.4189   -0.8925    0.0000 C   0  0  0  0  0  0  0  2  0  0  0  0
    1.1333   -0.4800    0.0000 S   0  0  0  0  0  0  0  2  0  0  0  0
    1.8478   -0.8925    0.0000 C   0  0  0  0  0  0  0  2  0  0  0  0
    2.5623   -0.4800    0.0000 C   0  0  0  0  0  0  0  2  0  0  0  0
    3.3159   -0.8156    0.0000 N   0  0  0  0  0  0  0  2  0  0  0  0
    3.8680   -0.2025    0.0000 C   0  0  0  0  0  0  0  2  0  0  0  0
    3.4555    0.5120    0.0000 N   0  0  0  0  0  0  0  2  0  0  0  0
    2.6485    0.3405    0.0000 C   0  0  0  0  0  0  0  2  0  0  0  0
    2.0354    0.8925    0.0000 C   0  0  0  0  0  0  0  2  0  0  0  0
   -2.4390   -0.8925    0.0000 N   0  0  0  0  0  0  0  2  0  0  0  0
   -3.1535   -0.4800    0.0000 C   0  0  0  0  0  0  0  2  0  0  0  0
   -3.8680   -0.0675    0.0000 N   0  0  0  0  0  0  0  2  0  0  0  0
  1  2  1  0        0
  2  3  1  0        0
  3  4  1  0        0
  4  5  1  0        0
  5  6  1  0        0
  6  7  1  0        0
  7  8  1  0        0
  8  9  1  0        0
  9 10  4  0        0
 10 11  4  0        0
 11 12  4  0        0
 12 13  4  0        0
  9 13  4  0        0
 13 14  1  0        0
  3 15  2  0        0
 15 16  1  0        0
 16 17  3  0        0
M  END
$$$$

CDXL12

 17 17  0  0  0  0  0  0  0  0999 V2000
   -2.1434   -1.4438    0.0000 C   0  0  0  0  0  0  0  2  0  0  0  0
   -1.4289   -1.8563    0.0000 N   0  0  0  0  0  0  0  2  0  0  0  0
   -0.7145   -1.4438    0.0000 C   0  0  0  0  0  0  0  2  0  0  0  0
   -0.7145   -0.6188    0.0000 O   0  0  0  0  0  0  0  2  0  0  0  0
    0.0000   -1.8563    0.0000 O   0  0  0  0  0  0  0  2  0  0  0  0
    0.7145   -1.4438    0.0000 C   0  0  0  0  0  0  0  2  0  0  0  0
    1.4289   -1.8563    0.0000 C   0  0  0  0  0  0  0  2  0  0  0  0
    2.1434   -1.4438    0.0000 C   0  0  0  0  0  0  0  2  0  0  0  0
    2.1434   -0.6188    0.0000 C   0  0  0  0  0  0  0  2  0  0  0  0
    1.4289   -0.2062    0.0000 C   0  0  0  0  0  0  0  2  0  0  0  0
    0.7145   -0.6188    0.0000 C   0  0  0  0  0  0  0  2  0  0  0  0
    0.0000   -0.2062    0.0000 O   0  0  0  0  0  0  0  2  0  0  0  0
    0.0000    0.6188    0.0000 C   0  0  0  0  0  0  0  2  0  0  0  0
   -0.7145    1.0313    0.0000 O   0  0  0  0  0  0  0  2  0  0  0  0
   -0.7145    1.8563    0.0000 C   0  0  0  0  0  0  0  2  0  0  0  0
    0.7145    1.0313    0.0000 C   0  0  0  0  0  0  0  2  0  0  0  0
    1.4289    0.6188    0.0000 Cl  0  0  0  0  0  0  0  2  0  0  0  0
  1  2  1  0        0
  2  3  1  0        0
  3  4  2  0        0
  3  5  1  0        0
  5  6  1  0        0
  6  7  4  0        0
  7  8  4  0        0
  8  9  4  0        0
  9 10  4  0        0
 10 11  4  0        0
  6 11  4  0        0
 11 12  1  0        0
 12 13  1  0        0
 13 14  1  0        0
 14 15  1  0        0
 13 16  1  0        0
 16 17  1  0        0
M  END
$$$$

CDXL12

 15 16  0  0  0  0  0  0  0  0999 V2000
    1.3673    0.4125    0.0000 C   0  0  0  0  0  0  0  2  0  0  0  0
    2.0818    0.8250    0.0000 C   0  0  0  0  0  0  0  2  0  0  0  0
    2.7963    0.4125    0.0000 C   0  0  0  0  0  0  0  2  0  0  0  0
    2.7963   -0.4125    0.0000 C   0  0  0  0  0  0  0  2  0  0  0  0
    2.0818   -0.8250    0.0000 C   0  0  0  0  0  0  0  2  0  0  0  0
    1.3673   -0.4125    0.0000 C   0  0  0  0  0  0  0  2  0  0  0  0
    0.6529   -0.8250    0.0000 N   0  0  0  0  0  0  0  2  0  0  0  0
   -0.0616   -0.4125    0.0000 C   0  0  0  0  0  0  0  2  0  0  0  0
   -0.0616    0.4125    0.0000 O   0  0  0  0  0  0  0  2  0  0  0  0
   -0.7761   -0.8250    0.0000 N   0  0  0  0  0  0  0  2  0  0  0  0
   -1.4906   -0.4125    0.0000 C   0  0  0  0  0  0  0  2  0  0  0  0
   -2.2442   -0.7481    0.0000 N   0  0  0  0  0  0  0  2  0  0  0  0
   -2.7963   -0.1350    0.0000 N   0  0  0  0  0  0  0  2  0  0  0  0
   -2.3838    0.5795    0.0000 S   0  0  0  0  0  0  0  2  0  0  0  0
   -1.5768    0.4080    0.0000 C   0  0  0  0  0  0  0  2  0  0  0  0
  1  2  4  0        0
  2  3  4  0        0
  3  4  4  0        0
  4  5  4  0        0
  5  6  4  0        0
  1  6  4  0        0
  6  7  1  0        0
  7  8  1  0        0
  8  9  2  0        0
  8 10  1  0        0
 10 11  1  0        0
 11 12  4  0        0
 12 13  4  0        0
 13 14  4  0        0
 14 15  4  0        0
 11 15  4  0        0
M  END
$$$$

CDXL12

 17 18  0  0  0  0  0  0  0  0999 V2000
   -1.0717   -1.8562    0.0000 Cl  0  0  0  0  0  0  0  2  0  0  0  0
   -1.0717   -1.0312    0.0000 C   0  0  0  0  0  0  0  2  0  0  0  0
   -1.7862   -0.6188    0.0000 C   0  0  0  0  0  0  0  2  0  0  0  0
   -1.7862    0.2062    0.0000 C   0  0  0  0  0  0  0  2  0  0  0  0
   -1.0717    0.6187    0.0000 C   0  0  0  0  0  0  0  2  0  0  0  0
   -0.3572    0.2062    0.0000 C   0  0  0  0  0  0  0  2  0  0  0  0
   -0.3572   -0.6188    0.0000 C   0  0  0  0  0  0  0  2  0  0  0  0
    0.3572   -1.0312    0.0000 Cl  0  0  0  0  0  0  0  2  0  0  0  0
    0.3572    0.6187    0.0000 C   0  0  0  0  0  0  0  2  0  0  0  0
    0.3572    1.4437    0.0000 C   0  0  0  0  0  0  0  2  0  0  0  0
    1.0717    1.8562    0.0000 C   0  0  0  0  0  0  0  2  0  0  0  0
    1.7862    1.4437    0.0000 C   0  0  0  0  0  0  0  2  0  0  0  0
    1.7862    0.6187    0.0000 C   0  0  0  0  0  0  0  2  0  0  0  0
    1.0717    0.2062    0.0000 C   0  0  0  0  0  0  0  2  0  0  0  0
    1.0717   -0.6188    0.0000 Cl  0  0  0  0  0  0  0  2  0  0  0  0
    2.5006    0.2062    0.0000 Cl  0  0  0  0  0  0  0  2  0  0  0  0
   -2.5006   -1.0312    0.0000 Cl  0  0  0  0  0  0  0  2  0  0  0  0
  1  2  1  0        0
  2  3  4  0        0
  3  4  4  0        0
  4  5  4  0        0
  5  6  4  0        0
  6  7  4  0        0
  2  7  4  0        0
  7  8  1  0        0
  6  9  1  0        0
  9 10  4  0        0
 10 11  4  0        0
 11 12  4  0        0
 12 13  4  0        0
 13 14  4  0        0
  9 14  4  0        0
 14 15  1  0        0
 13 16  1  0        0
  3 17  1  0        0
M  END
$$$$

CDXL12

 18 19  0  0  0  0  0  0  0  0999 V2000
    0.3572    1.0313    0.0000 Cl  0  0  0  0  0  0  0  2  0  0  0  0
   -0.3572    0.6188    0.0000 C   0  0  0  0  0  0  0  2  0  0  0  0
   -0.3572   -0.2062    0.0000 C   0  0  0  0  0  0  0  2  0  0  0  0
   -1.0717   -0.6187    0.0000 C   0  0  0  0  0  0  0  2  0  0  0  0
   -1.7862   -0.2062    0.0000 C   0  0  0  0  0  0  0  2  0  0  0  0
   -1.7862    0.6188    0.0000 C   0  0  0  0  0  0  0  2  0  0  0  0
   -1.0717    1.0313    0.0000 C   0  0  0  0  0  0  0  2  0  0  0  0
   -1.0717    1.8563    0.0000 Cl  0  0  0  0  0  0  0  2  0  0  0  0
   -2.5006   -0.6187    0.0000 Cl  0  0  0  0  0  0  0  2  0  0  0  0
   -1.0717   -1.4437    0.0000 Cl  0  0  0  0  0  0  0  2  0  0  0  0
    0.3572   -0.6188    0.0000 C   0  0  0  0  0  0  0  2  0  0  0  0
    1.0717   -0.2062    0.0000 C   0  0  0  0  0  0  0  2  0  0  0  0
    1.7862   -0.6188    0.0000 C   0  0  0  0  0  0  0  2  0  0  0  0
    1.7862   -1.4438    0.0000 C   0  0  0  0  0  0  0  2  0  0  0  0
    1.0717   -1.8563    0.0000 C   0  0  0  0  0  0  0  2  0  0  0  0
    0.3572   -1.4438    0.0000 C   0  0  0  0  0  0  0  2  0  0  0  0
   -0.3572   -1.8563    0.0000 Cl  0  0  0  0  0  0  0  2  0  0  0  0
    2.5006   -0.2062    0.0000 Cl  0  0  0  0  0  0  0  2  0  0  0  0
  1  2  1  0        0
  2  3  4  0        0
  3  4  4  0        0
  4  5  4  0        0
  5  6  4  0        0
  6  7  4  0        0
  2  7  4  0        0
  7  8  1  0        0
  5  9  1  0        0
  4 10  1  0        0
  3 11  1  0        0
 11 12  4  0        0
 12 13  4  0        0
 13 14  4  0        0
 14 15  4  0        0
 15 16  4  0        0
 11 16  4  0        0
 16 17  1  0        0
 13 18  1  0        0
M  END
$$$$

CDXL12

 19 20  0  0  0  0  0  0  0  0999 V2000
    2.5006    1.0312    0.0000 Cl  0  0  0  0  0  0  0  2  0  0  0  0
    1.7862    0.6187    0.0000 C   0  0  0  0  0  0  0  2  0  0  0  0
    1.7862   -0.2063    0.0000 C   0  0  0  0  0  0  0  2  0  0  0  0
    1.0717   -0.6188    0.0000 C   0  0  0  0  0  0  0  2  0  0  0  0
    0.3572   -0.2062    0.0000 C   0  0  0  0  0  0  0  2  0  0  0  0
    0.3572    0.6187    0.0000 C   0  0  0  0  0  0  0  2  0  0  0  0
   -0.3572    1.0312    0.0000 Cl  0  0  0  0  0  0  0  2  0  0  0  0
    1.0717    1.0312    0.0000 C   0  0  0  0  0  0  0  2  0  0  0  0
    1.0717    1.8562    0.0000 Cl  0  0  0  0  0  0  0  2  0  0  0  0
   -0.3572   -0.6187    0.0000 C   0  0  0  0  0  0  0  2  0  0  0  0
   -0.3572   -1.4437    0.0000 C   0  0  0  0  0  0  0  2  0  0  0  0
    0.3572   -1.8562    0.0000 Cl  0  0  0  0  0  0  0  2  0  0  0  0
   -1.0717   -1.8562    0.0000 C   0  0  0  0  0  0  0  2  0  0  0  0
   -1.7862   -1.4437    0.0000 C   0  0  0  0  0  0  0  2  0  0  0  0
   -2.5006   -1.8562    0.0000 Cl  0  0  0  0  0  0  0  2  0  0  0  0
   -1.7862   -0.6187    0.0000 C   0  0  0  0  0  0  0  2  0  0  0  0
   -2.5006   -0.2062    0.0000 Cl  0  0  0  0  0  0  0  2  0  0  0  0
   -1.0717   -0.2062    0.0000 C   0  0  0  0  0  0  0  2  0  0  0  0
   -1.0717    0.6188    0.0000 Cl  0  0  0  0  0  0  0  2  0  0  0  0
  1  2  1  0        0
  2  3  4  0        0
  3  4  4  0        0
  4  5  4  0        0
  5  6  4  0        0
  6  7  1  0        0
  6  8  4  0        0
  2  8  4  0        0
  8  9  1  0        0
  5 10  1  0        0
 10 11  4  0        0
 11 12  1  0        0
 11 13  4  0        0
 13 14  4  0        0
 14 15  1  0        0
 14 16  4  0        0
 16 17  1  0        0
 16 18  4  0        0
 10 18  4  0        0
 18 19  1  0        0
M  END
$$$$

CDXL12

 21 22  0  0  0  0  0  0  0  0999 V2000
    2.5006    0.2062    0.0000 Cl  0  0  0  0  0  0  0  2  0  0  0  0
    1.7862   -0.2062    0.0000 C   0  0  0  0  0  0  0  2  0  0  0  0
    1.7862   -1.0313    0.0000 C   0  0  0  0  0  0  0  2  0  0  0  0
    1.0717   -1.4438    0.0000 C   0  0  0  0  0  0  0  2  0  0  0  0
    1.0717   -2.2687    0.0000 Cl  0  0  0  0  0  0  0  2  0  0  0  0
    0.3572   -1.0313    0.0000 C   0  0  0  0  0  0  0  2  0  0  0  0
   -0.3572   -1.4438    0.0000 Cl  0  0  0  0  0  0  0  2  0  0  0  0
    0.3572   -0.2062    0.0000 C   0  0  0  0  0  0  0  2  0  0  0  0
    1.0717    0.2062    0.0000 C   0  0  0  0  0  0  0  2  0  0  0  0
    1.0717    1.0312    0.0000 Cl  0  0  0  0  0  0  0  2  0  0  0  0
   -0.3572    0.2062    0.0000 C   0  0  0  0  0  0  0  2  0  0  0  0
   -1.0717   -0.2062    0.0000 C   0  0  0  0  0  0  0  2  0  0  0  0
   -1.0717   -1.0312    0.0000 Cl  0  0  0  0  0  0  0  2  0  0  0  0
   -1.7862    0.2062    0.0000 C   0  0  0  0  0  0  0  2  0  0  0  0
   -2.5006   -0.2062    0.0000 Cl  0  0  0  0  0  0  0  2  0  0  0  0
   -1.7862    1.0313    0.0000 C   0  0  0  0  0  0  0  2  0  0  0  0
   -2.5006    1.4438    0.0000 Cl  0  0  0  0  0  0  0  2  0  0  0  0
   -1.0717    1.4438    0.0000 C   0  0  0  0  0  0  0  2  0  0  0  0
   -1.0717    2.2687    0.0000 Cl  0  0  0  0  0  0  0  2  0  0  0  0
   -0.3572    1.0313    0.0000 C   0  0  0  0  0  0  0  2  0  0  0  0
    0.3572    1.4438    0.0000 Cl  0  0  0  0  0  0  0  2  0  0  0  0
  1  2  1  0        0
  2  3  4  0        0
  3  4  4  0        0
  4  5  1  0        0
  4  6  4  0        0
  6  7  1  0        0
  6  8  4  0        0
  8  9  4  0        0
  2  9  4  0        0
  9 10  1  0        0
  8 11  1  0        0
 11 12  4  0        0
 12 13  1  0        0
 12 14  4  0        0
 14 15  1  0        0
 14 16  4  0        0
 16 17  1  0        0
 16 18  4  0        0
 18 19  1  0        0
 18 20  4  0        0
 11 20  4  0        0
 20 21  1  0        0
M  END
$$$$

CDXL12

 18 19  0  0  0  0  0  0  0  0999 V2000
   -1.0717   -1.4437    0.0000 Cl  0  0  0  0  0  0  0  2  0  0  0  0
   -1.0717   -0.6187    0.0000 C   0  0  0  0  0  0  0  2  0  0  0  0
   -1.7862   -0.2063    0.0000 C   0  0  0  0  0  0  0  2  0  0  0  0
   -1.7862    0.6187    0.0000 C   0  0  0  0  0  0  0  2  0  0  0  0
   -1.0717    1.0312    0.0000 C   0  0  0  0  0  0  0  2  0  0  0  0
   -0.3572    0.6187    0.0000 C   0  0  0  0  0  0  0  2  0  0  0  0
   -0.3572   -0.2063    0.0000 C   0  0  0  0  0  0  0  2  0  0  0  0
    0.3572   -0.6187    0.0000 C   0  0  0  0  0  0  0  2  0  0  0  0
    1.0717   -0.2063    0.0000 C   0  0  0  0  0  0  0  2  0  0  0  0
    1.7862   -0.6187    0.0000 C   0  0  0  0  0  0  0  2  0  0  0  0
    1.7862   -1.4437    0.0000 C   0  0  0  0  0  0  0  2  0  0  0  0
    1.0717   -1.8562    0.0000 C   0  0  0  0  0  0  0  2  0  0  0  0
    0.3572   -1.4437    0.0000 C   0  0  0  0  0  0  0  2  0  0  0  0
    2.5006   -0.2063    0.0000 Cl  0  0  0  0  0  0  0  2  0  0  0  0
    1.0717    0.6187    0.0000 Cl  0  0  0  0  0  0  0  2  0  0  0  0
    0.3572    1.0312    0.0000 Cl  0  0  0  0  0  0  0  2  0  0  0  0
   -1.0717    1.8562    0.0000 Cl  0  0  0  0  0  0  0  2  0  0  0  0
   -2.5006   -0.6187    0.0000 Cl  0  0  0  0  0  0  0  2  0  0  0  0
  1  2  1  0        0
  2  3  4  0        0
  3  4  4  0        0
  4  5  4  0        0
  5  6  4  0        0
  6  7  4  0        0
  2  7  4  0        0
  7  8  1  0        0
  8  9  4  0        0
  9 10  4  0        0
 10 11  4  0        0
 11 12  4  0        0
 12 13  4  0        0
  8 13  4  0        0
 10 14  1  0        0
  9 15  1  0        0
  6 16  1  0        0
  5 17  1  0        0
  3 18  1  0        0
M  END
$$$$

CDXL12

 18 19  0  0  0  0  0  0  0  0999 V2000
    1.0717    1.8562    0.0000 Cl  0  0  0  0  0  0  0  2  0  0  0  0
    1.0717    1.0312    0.0000 C   0  0  0  0  0  0  0  2  0  0  0  0
    1.7862    0.6187    0.0000 C   0  0  0  0  0  0  0  2  0  0  0  0
    1.7862   -0.2063    0.0000 C   0  0  0  0  0  0  0  2  0  0  0  0
    1.0717   -0.6187    0.0000 C   0  0  0  0  0  0  0  2  0  0  0  0
    0.3572   -0.2063    0.0000 C   0  0  0  0  0  0  0  2  0  0  0  0
    0.3572    0.6187    0.0000 C   0  0  0  0  0  0  0  2  0  0  0  0
   -0.3572    1.0312    0.0000 Cl  0  0  0  0  0  0  0  2  0  0  0  0
   -0.3572   -0.6187    0.0000 C   0  0  0  0  0  0  0  2  0  0  0  0
   -1.0717   -0.2063    0.0000 C   0  0  0  0  0  0  0  2  0  0  0  0
   -1.7862   -0.6187    0.0000 C   0  0  0  0  0  0  0  2  0  0  0  0
   -1.7862   -1.4437    0.0000 C   0  0  0  0  0  0  0  2  0  0  0  0
   -1.0717   -1.8562    0.0000 C   0  0  0  0  0  0  0  2  0  0  0  0
   -0.3572   -1.4437    0.0000 C   0  0  0  0  0  0  0  2  0  0  0  0
    0.3572   -1.8562    0.0000 Cl  0  0  0  0  0  0  0  2  0  0  0  0
   -2.5006   -0.2063    0.0000 Cl  0  0  0  0  0  0  0  2  0  0  0  0
    2.5006   -0.6188    0.0000 Cl  0  0  0  0  0  0  0  2  0  0  0  0
    2.5006    1.0312    0.0000 Cl  0  0  0  0  0  0  0  2  0  0  0  0
  1  2  1  0        0
  2  3  4  0        0
  3  4  4  0        0
  4  5  4  0        0
  5  6  4  0        0
  6  7  4  0        0
  2  7  4  0        0
  7  8  1  0        0
  6  9  1  0        0
  9 10  4  0        0
 10 11  4  0        0
 11 12  4  0        0
 12 13  4  0        0
 13 14  4  0        0
  9 14  4  0        0
 14 15  1  0        0
 11 16  1  0        0
  4 17  1  0        0
  3 18  1  0        0
M  END
$$$$

CDXL12

 25 26  0  0  0  0  0  0  0  0999 V2000
    0.3572   -2.2687    0.0000 C   0  0  0  0  0  0  0  2  0  0  0  0
    0.3572   -1.4438    0.0000 C   0  0  0  0  0  0  0  2  0  0  0  0
   -0.3572   -1.0313    0.0000 N   0  0  0  0  0  0  0  2  0  0  0  0
   -1.0717   -1.4438    0.0000 C   0  0  0  0  0  0  0  2  0  0  0  0
   -1.0717   -2.2687    0.0000 O   0  0  0  0  0  0  0  2  0  0  0  0
   -1.7862   -1.0313    0.0000 C   0  0  0  0  0  0  0  2  0  0  0  0
   -1.7862   -0.2062    0.0000 C   0  0  0  0  0  0  0  2  0  0  0  0
   -2.5006    0.2062    0.0000 C   0  0  0  0  0  0  0  2  0  0  0  0
   -3.2151   -0.2062    0.0000 C   0  0  0  0  0  0  0  2  0  0  0  0
   -3.2151   -1.0312    0.0000 C   0  0  0  0  0  0  0  2  0  0  0  0
   -2.5006   -1.4437    0.0000 C   0  0  0  0  0  0  0  2  0  0  0  0
   -0.3572   -0.2062    0.0000 C   0  0  0  0  0  0  0  2  0  0  0  0
    0.3572    0.2062    0.0000 C   0  0  0  0  0  0  0  2  0  0  0  0
    0.3572    1.0313    0.0000 C   0  0  0  0  0  0  0  2  0  0  0  0
    1.0717    1.4438    0.0000 Cl  0  0  0  0  0  0  0  2  0  0  0  0
   -0.3572    1.4438    0.0000 C   0  0  0  0  0  0  0  2  0  0  0  0
   -0.3572    2.2687    0.0000 F   0  0  0  0  0  0  0  2  0  0  0  0
   -1.0717    1.0313    0.0000 C   0  0  0  0  0  0  0  2  0  0  0  0
   -1.0717    0.2062    0.0000 C   0  0  0  0  0  0  0  2  0  0  0  0
    1.0717   -1.0313    0.0000 C   0  0  0  0  0  0  0  2  0  0  0  0
    1.0717   -0.2062    0.0000 O   0  0  0  0  0  0  0  2  0  0  0  0
    1.7862   -1.4438    0.0000 O   0  0  0  0  0  0  0  2  0  0  0  0
    2.5006   -1.0313    0.0000 C   0  0  0  0  0  0  0  2  0  0  0  0
    3.2151   -1.4438    0.0000 C   0  0  0  0  0  0  0  2  0  0  0  0
    2.5006   -0.2062    0.0000 C   0  0  0  0  0  0  0  2  0  0  0  0
  1  2  1  0        0
  2  3  1  0        0
  3  4  1  0        0
  4  5  2  0        0
  4  6  1  0        0
  6  7  4  0        0
  7  8  4  0        0
  8  9  4  0        0
  9 10  4  0        0
 10 11  4  0        0
  6 11  4  0        0
  3 12  1  0        0
 12 13  4  0        0
 13 14  4  0        0
 14 15  1  0        0
 14 16  4  0        0
 16 17  1  0        0
 16 18  4  0        0
 18 19  4  0        0
 12 19  4  0        0
  2 20  1  0        0
 20 21  2  0        0
 20 22  1  0        0
 22 23  1  0        0
 23 24  1  0        0
 23 25  1  0        0
M  END
$$$$

CDXL12

 17 17  0  0  0  0  0  0  0  0999 V2000
    1.7862   -0.4125    0.0000 C   0  0  0  0  0  0  0  2  0  0  0  0
    2.5006   -0.8250    0.0000 C   0  0  0  0  0  0  0  2  0  0  0  0
    3.2151   -0.4125    0.0000 C   0  0  0  0  0  0  0  2  0  0  0  0
    3.2151    0.4125    0.0000 C   0  0  0  0  0  0  0  2  0  0  0  0
    2.5006    0.8250    0.0000 C   0  0  0  0  0  0  0  2  0  0  0  0
    1.7862    0.4125    0.0000 C   0  0  0  0  0  0  0  2  0  0  0  0
    1.0717    0.8250    0.0000 C   0  0  0  0  0  0  0  2  0  0  0  0
    0.3572    0.4125    0.0000 S   0  0  0  0  0  0  0  2  0  0  0  0
   -0.3572    0.8250    0.0000 C   0  0  0  0  0  0  0  2  0  0  0  0
   -0.3572    1.6500    0.0000 O   0  0  0  0  0  0  0  2  0  0  0  0
   -1.0717    0.4125    0.0000 N   0  0  0  0  0  0  0  2  0  0  0  0
   -1.7862    0.8250    0.0000 C   0  0  0  0  0  0  0  2  0  0  0  0
   -2.5006    0.4125    0.0000 C   0  0  0  0  0  0  0  2  0  0  0  0
   -3.2151    0.8250    0.0000 C   0  0  0  0  0  0  0  2  0  0  0  0
   -1.0717   -0.4125    0.0000 C   0  0  0  0  0  0  0  2  0  0  0  0
   -1.7862   -0.8250    0.0000 C   0  0  0  0  0  0  0  2  0  0  0  0
   -1.7862   -1.6500    0.0000 C   0  0  0  0  0  0  0  2  0  0  0  0
  1  2  4  0        0
  2  3  4  0        0
  3  4  4  0        0
  4  5  4  0        0
  5  6  4  0        0
  1  6  4  0        0
  6  7  1  0        0
  7  8  1  0        0
  8  9  1  0        0
  9 10  2  0        0
  9 11  1  0        0
 11 12  1  0        0
 12 13  1  0        0
 13 14  1  0        0
 11 15  1  0        0
 15 16  1  0        0
 16 17  1  0        0
M  END
$$$$

CDXL12

 28 30  0  0  0  0  0  0  0  0999 V2000
   -1.3737   -2.1582    0.0000 C   0  0  0  0  0  0  0  2  0  0  0  0
   -1.7862   -1.4437    0.0000 C   0  0  0  0  0  0  0  2  0  0  0  0
   -2.1987   -2.1582    0.0000 C   0  0  0  0  0  0  0  2  0  0  0  0
   -2.1987   -0.7293    0.0000 C   0  0  0  0  0  0  0  2  0  0  0  0
   -2.9131   -0.3168    0.0000 C   0  0  0  0  0  0  0  2  0  0  0  0
   -3.6276   -0.7293    0.0000 C   0  0  0  0  0  0  0  2  0  0  0  0
   -3.6276   -1.5543    0.0000 Br  0  0  0  0  0  0  0  2  0  0  0  0
   -4.3421   -0.3168    0.0000 Br  0  0  0  0  0  0  0  2  0  0  0  0
   -1.3737   -0.7293    0.0000 C   0  0  0  0  0  0  0  2  0  0  0  0
   -0.6592   -0.3168    0.0000 C   0  0  0  0  0  0  0  2  0  0  0  0
   -0.6592    0.5082    0.0000 O   0  0  0  0  0  0  0  2  0  0  0  0
    0.0553   -0.7293    0.0000 O   0  0  0  0  0  0  0  2  0  0  0  0
    0.7697   -0.3168    0.0000 C   0  0  0  0  0  0  0  2  0  0  0  0
    1.4842   -0.7293    0.0000 C   0  0  0  0  0  0  0  2  0  0  0  0
    2.1987   -1.1418    0.0000 N   0  0  0  0  0  0  0  2  0  0  0  0
    0.7697    0.5082    0.0000 C   0  0  0  0  0  0  0  2  0  0  0  0
    0.0553    0.9207    0.0000 C   0  0  0  0  0  0  0  2  0  0  0  0
    0.0553    1.7457    0.0000 C   0  0  0  0  0  0  0  2  0  0  0  0
    0.7697    2.1582    0.0000 C   0  0  0  0  0  0  0  2  0  0  0  0
    1.4842    1.7457    0.0000 C   0  0  0  0  0  0  0  2  0  0  0  0
    2.1987    2.1582    0.0000 O   0  0  0  0  0  0  0  2  0  0  0  0
    2.9131    1.7457    0.0000 C   0  0  0  0  0  0  0  2  0  0  0  0
    3.6276    2.1582    0.0000 C   0  0  0  0  0  0  0  2  0  0  0  0
    4.3421    1.7457    0.0000 C   0  0  0  0  0  0  0  2  0  0  0  0
    4.3421    0.9207    0.0000 C   0  0  0  0  0  0  0  2  0  0  0  0
    3.6276    0.5082    0.0000 C   0  0  0  0  0  0  0  2  0  0  0  0
    2.9131    0.9207    0.0000 C   0  0  0  0  0  0  0  2  0  0  0  0
    1.4842    0.9207    0.0000 C   0  0  0  0  0  0  0  2  0  0  0  0
  1  2  1  0        0
  2  3  1  0        0
  2  4  1  0        0
  4  5  1  0        0
  5  6  2  0        0
  6  7  1  0        0
  6  8  1  0        0
  4  9  1  0        0
  2  9  1  0        0
  9 10  1  0        0
 10 11  2  0        0
 10 12  1  0        0
 12 13  1  0        0
 13 14  1  0        0
 14 15  3  0        0
 13 16  1  0        0
 16 17  4  0        0
 17 18  4  0        0
 18 19  4  0        0
 19 20  4  0        0
 20 21  1  0        0
 21 22  1  0        0
 22 23  4  0        0
 23 24  4  0        0
 24 25  4  0        0
 25 26  4  0        0
 26 27  4  0        0
 22 27  4  0        0
 20 28  4  0        0
 16 28  4  0        0
M  END
$$$$

CDXL12

 25 25  0  0  0  0  0  0  0  0999 V2000
   -6.7259   -1.0567    0.0000 C   0  0  0  0  0  0  0  2  0  0  0  0
   -6.0114   -0.6442    0.0000 C   0  0  0  0  0  0  0  2  0  0  0  0
   -5.2969   -1.0567    0.0000 C   0  0  0  0  0  0  0  2  0  0  0  0
   -4.5824   -0.6442    0.0000 C   0  0  0  0  0  0  0  2  0  0  0  0
   -3.8680   -1.0567    0.0000 C   0  0  0  0  0  0  0  2  0  0  0  0
   -3.1535   -0.6442    0.0000 C   0  0  0  0  0  0  0  2  0  0  0  0
   -2.4390   -1.0567    0.0000 C   0  0  0  0  0  0  0  2  0  0  0  0
   -1.7246   -0.6442    0.0000 C   0  0  0  0  0  0  0  2  0  0  0  0
   -1.0101   -1.0567    0.0000 C   0  0  0  0  0  0  0  2  0  0  0  0
   -0.2956   -0.6442    0.0000 C   0  0  0  0  0  0  0  2  0  0  0  0
    0.4189   -1.0567    0.0000 C   0  0  0  0  0  0  0  2  0  0  0  0
    1.1333   -0.6442    0.0000 C   0  0  0  0  0  0  0  2  0  0  0  0
    1.8478   -1.0567    0.0000 C   0  0  0  0  0  0  0  2  0  0  0  0
    2.5623   -0.6442    0.0000 C   0  0  0  0  0  0  0  2  0  0  0  0
    3.2767   -1.0567    0.0000 C   0  0  0  0  0  0  0  2  0  0  0  0
    3.9912   -0.6442    0.0000 C   0  0  0  0  0  0  0  2  0  0  0  0
    4.7057   -1.0567    0.0000 C   0  0  0  0  0  0  0  2  0  0  0  0
    5.4201   -0.6442    0.0000 C   0  0  0  0  0  0  0  2  0  0  0  0
    6.1738   -0.9798    0.0000 N   0  0  0  0  0  0  0  2  0  0  0  0
    6.7259   -0.3667    0.0000 C   0  0  0  0  0  0  0  2  0  0  0  0
    6.3134    0.3478    0.0000 C   0  0  0  0  0  0  0  2  0  0  0  0
    5.5064    0.1763    0.0000 N   0  0  0  0  0  0  0  2  0  0  0  0
    4.8933    0.7283    0.0000 C   0  0  0  0  0  0  0  2  0  0  0  0
    4.1087    0.4734    0.0000 C   0  0  0  0  0  0  0  2  0  0  0  0
    3.5253    1.0567    0.0000 O   0  0  0  0  0  0  0  2  0  0  0  0
  1  2  1  0        0
  2  3  1  0        0
  3  4  1  0        0
  4  5  1  0        0
  5  6  1  0        0
  6  7  1  0        0
  7  8  1  0        0
  8  9  1  0        0
  9 10  1  0        0
 10 11  1  0        0
 11 12  1  0        0
 12 13  1  0        0
 13 14  1  0        0
 14 15  1  0        0
 15 16  1  0        0
 16 17  1  0        0
 17 18  1  0        0
 18 19  2  0        0
 19 20  1  0        0
 20 21  1  0        0
 21 22  1  0        0
 18 22  1  0        0
 22 23  1  0        0
 23 24  1  0        0
 24 25  1  0        0
M  END
$$$$

CDXL12

 14 15  0  0  0  0  0  0  0  0999 V2000
    2.1434   -0.8250    0.0000 Cl  0  0  0  0  0  0  0  2  0  0  0  0
    1.4289   -0.4125    0.0000 C   0  0  0  0  0  0  0  2  0  0  0  0
    1.4289    0.4125    0.0000 C   0  0  0  0  0  0  0  2  0  0  0  0
    0.7145    0.8250    0.0000 C   0  0  0  0  0  0  0  2  0  0  0  0
    0.7145    1.6500    0.0000 Cl  0  0  0  0  0  0  0  2  0  0  0  0
    0.0000    0.4125    0.0000 C   0  0  0  0  0  0  0  2  0  0  0  0
   -0.7145    0.8250    0.0000 C   0  0  0  0  0  0  0  2  0  0  0  0
   -1.4289    0.4125    0.0000 C   0  0  0  0  0  0  0  2  0  0  0  0
   -2.1434    0.8250    0.0000 Cl  0  0  0  0  0  0  0  2  0  0  0  0
   -1.4289   -0.4125    0.0000 C   0  0  0  0  0  0  0  2  0  0  0  0
   -0.7145   -0.8250    0.0000 C   0  0  0  0  0  0  0  2  0  0  0  0
   -0.7145   -1.6500    0.0000 Cl  0  0  0  0  0  0  0  2  0  0  0  0
    0.0000   -0.4125    0.0000 C   0  0  0  0  0  0  0  2  0  0  0  0
    0.7145   -0.8250    0.0000 C   0  0  0  0  0  0  0  2  0  0  0  0
  1  2  1  0        0
  2  3  4  0        0
  3  4  4  0        0
  4  5  1  0        0
  4  6  4  0        0
  6  7  4  0        0
  7  8  4  0        0
  8  9  1  0        0
  8 10  4  0        0
 10 11  4  0        0
 11 12  1  0        0
 11 13  4  0        0
  6 13  4  0        0
 13 14  4  0        0
  2 14  4  0        0
M  END
$$$$

CDXL12

 15 16  0  0  0  0  0  0  0  0999 V2000
   -1.4289    0.4125    0.0000 C   0  0  0  0  0  0  0  2  0  0  0  0
   -2.1434    0.8250    0.0000 Cl  0  0  0  0  0  0  0  2  0  0  0  0
   -1.4289   -0.4125    0.0000 C   0  0  0  0  0  0  0  2  0  0  0  0
   -0.7145   -0.8250    0.0000 C   0  0  0  0  0  0  0  2  0  0  0  0
   -0.7145   -1.6500    0.0000 Cl  0  0  0  0  0  0  0  2  0  0  0  0
    0.0000   -0.4125    0.0000 C   0  0  0  0  0  0  0  2  0  0  0  0
    0.7145   -0.8250    0.0000 C   0  0  0  0  0  0  0  2  0  0  0  0
    1.4289   -0.4125    0.0000 C   0  0  0  0  0  0  0  2  0  0  0  0
    2.1434   -0.8250    0.0000 Cl  0  0  0  0  0  0  0  2  0  0  0  0
    1.4289    0.4125    0.0000 C   0  0  0  0  0  0  0  2  0  0  0  0
    2.1434    0.8250    0.0000 Cl  0  0  0  0  0  0  0  2  0  0  0  0
    0.7145    0.8250    0.0000 C   0  0  0  0  0  0  0  2  0  0  0  0
    0.7145    1.6500    0.0000 Cl  0  0  0  0  0  0  0  2  0  0  0  0
    0.0000    0.4125    0.0000 C   0  0  0  0  0  0  0  2  0  0  0  0
   -0.7145    0.8250    0.0000 C   0  0  0  0  0  0  0  2  0  0  0  0
  1  2  1  0        0
  1  3  4  0        0
  3  4  4  0        0
  4  5  1  0        0
  4  6  4  0        0
  6  7  4  0        0
  7  8  4  0        0
  8  9  1  0        0
  8 10  4  0        0
 10 11  1  0        0
 10 12  4  0        0
 12 13  1  0        0
 12 14  4  0        0
  6 14  4  0        0
 14 15  4  0        0
  1 15  4  0        0
M  END
$$$$

CDXL12

 19 20  0  0  0  0  0  0  0  0999 V2000
   -1.0258   -0.6863    0.0000 C   0  0  0  0  0  0  0  2  0  0  0  0
   -1.7402   -1.0988    0.0000 C   0  0  0  0  0  0  0  2  0  0  0  0
   -1.7402   -1.9238    0.0000 Cl  0  0  0  0  0  0  0  2  0  0  0  0
   -2.4547   -0.6863    0.0000 C   0  0  0  0  0  0  0  2  0  0  0  0
   -2.4547    0.1387    0.0000 C   0  0  0  0  0  0  0  2  0  0  0  0
   -3.1692    0.5512    0.0000 Cl  0  0  0  0  0  0  0  2  0  0  0  0
   -1.7402    0.5512    0.0000 C   0  0  0  0  0  0  0  2  0  0  0  0
   -1.0258    0.1387    0.0000 C   0  0  0  0  0  0  0  2  0  0  0  0
   -0.3113    0.5512    0.0000 N   0  0  0  0  0  0  0  2  0  0  0  0
    0.4424    0.2157    0.0000 C   0  0  0  0  0  0  0  2  0  0  0  0
    0.6139   -0.5913    0.0000 O   0  0  0  0  0  0  0  2  0  0  0  0
    0.9944    0.8288    0.0000 C   0  0  0  0  0  0  0  2  0  0  0  0
    1.6618    0.3439    0.0000 C   0  0  0  0  0  0  0  2  0  0  0  0
    1.7481    1.1643    0.0000 C   0  0  0  0  0  0  0  2  0  0  0  0
    2.4155    0.6794    0.0000 O   0  0  0  0  0  0  0  2  0  0  0  0
    3.1692    1.0150    0.0000 C   0  0  0  0  0  0  0  2  0  0  0  0
    0.5819    1.5433    0.0000 O   0  0  0  0  0  0  0  2  0  0  0  0
   -0.2251    1.3717    0.0000 C   0  0  0  0  0  0  0  2  0  0  0  0
   -0.8382    1.9238    0.0000 O   0  0  0  0  0  0  0  2  0  0  0  0
  1  2  4  0        0
  2  3  1  0        0
  2  4  4  0        0
  4  5  4  0        0
  5  6  1  0        0
  5  7  4  0        0
  7  8  4  0        0
  1  8  4  0        0
  8  9  1  0        0
  9 10  1  0        0
 10 11  2  0        0
 10 12  1  0        0
 12 13  1  0        0
 12 14  1  0        0
 14 15  1  0        0
 15 16  1  0        0
 12 17  1  0        0
 17 18  1  0        0
  9 18  1  0        0
 18 19  2  0        0
M  END
$$$$

CDXL12

 25 27  0  0  0  0  0  0  0  0999 V2000
    0.0000   -0.2063    0.0000 C   0  0  0  0  0  0  0  2  0  0  0  0
   -0.7145   -0.6187    0.0000 C   0  0  0  0  0  0  0  2  0  0  0  0
   -1.4289   -0.2062    0.0000 C   0  0  0  0  0  0  0  2  0  0  0  0
   -2.1434   -0.6187    0.0000 C   0  0  0  0  0  0  0  2  0  0  0  0
   -2.1434   -1.4437    0.0000 C   0  0  0  0  0  0  0  2  0  0  0  0
   -2.8579   -1.8562    0.0000 C   0  0  0  0  0  0  0  2  0  0  0  0
   -3.5724   -1.4437    0.0000 C   0  0  0  0  0  0  0  2  0  0  0  0
   -3.5724   -0.6187    0.0000 C   0  0  0  0  0  0  0  2  0  0  0  0
   -2.8579   -0.2062    0.0000 C   0  0  0  0  0  0  0  2  0  0  0  0
   -1.4289    0.6187    0.0000 C   0  0  0  0  0  0  0  2  0  0  0  0
   -0.7145    1.0312    0.0000 C   0  0  0  0  0  0  0  2  0  0  0  0
    0.0000    0.6187    0.0000 C   0  0  0  0  0  0  0  2  0  0  0  0
    0.7145    1.0312    0.0000 O   0  0  0  0  0  0  0  2  0  0  0  0
    1.4289    0.6187    0.0000 C   0  0  0  0  0  0  0  2  0  0  0  0
    2.1434    1.0312    0.0000 C   0  0  0  0  0  0  0  2  0  0  0  0
    2.1434    1.8562    0.0000 O   0  0  0  0  0  0  0  2  0  0  0  0
    2.8579    0.6187    0.0000 C   0  0  0  0  0  0  0  2  0  0  0  0
    3.5724    1.0312    0.0000 C   0  0  0  0  0  0  0  2  0  0  0  0
    3.5724    0.2062    0.0000 C   0  0  0  0  0  0  0  2  0  0  0  0
    2.8579   -0.2063    0.0000 C   0  0  0  0  0  0  0  2  0  0  0  0
    1.4289   -0.2063    0.0000 N   0  0  0  0  0  0  0  2  0  0  0  0
    2.0964   -0.6912    0.0000 N   0  0  0  0  0  0  0  2  0  0  0  0
    1.8414   -1.4758    0.0000 C   0  0  0  0  0  0  0  2  0  0  0  0
    1.0164   -1.4758    0.0000 N   0  0  0  0  0  0  0  2  0  0  0  0
    0.7615   -0.6912    0.0000 C   0  0  0  0  0  0  0  2  0  0  0  0
  1  2  4  0        0
  2  3  4  0        0
  3  4  1  0        0
  4  5  4  0        0
  5  6  4  0        0
  6  7  4  0        0
  7  8  4  0        0
  8  9  4  0        0
  4  9  4  0        0
  3 10  4  0        0
 10 11  4  0        0
 11 12  4  0        0
  1 12  4  0        0
 12 13  1  0        0
 13 14  1  0        0
 14 15  1  0        0
 15 16  1  0        0
 15 17  1  0        0
 17 18  1  0        0
 17 19  1  0        0
 17 20  1  0        0
 14 21  1  0        0
 21 22  4  0        0
 22 23  4  0        0
 23 24  4  0        0
 24 25  4  0        0
 21 25  4  0        0
M  END
$$$$

CDXL12

 17 18  0  0  0  0  0  0  0  0999 V2000
   -0.7145    1.0313    0.0000 Cl  0  0  0  0  0  0  0  2  0  0  0  0
   -0.7145    0.2062    0.0000 C   0  0  0  0  0  0  0  2  0  0  0  0
    0.0000   -0.2062    0.0000 C   0  0  0  0  0  0  0  2  0  0  0  0
    0.0000   -1.0313    0.0000 C   0  0  0  0  0  0  0  2  0  0  0  0
   -0.7145   -1.4437    0.0000 C   0  0  0  0  0  0  0  2  0  0  0  0
   -1.4289   -1.0313    0.0000 C   0  0  0  0  0  0  0  2  0  0  0  0
   -1.4289   -0.2062    0.0000 C   0  0  0  0  0  0  0  2  0  0  0  0
   -2.1434    0.2062    0.0000 Cl  0  0  0  0  0  0  0  2  0  0  0  0
   -2.1434   -1.4437    0.0000 Cl  0  0  0  0  0  0  0  2  0  0  0  0
    0.7145   -1.4438    0.0000 Cl  0  0  0  0  0  0  0  2  0  0  0  0
    0.7145    0.2062    0.0000 C   0  0  0  0  0  0  0  2  0  0  0  0
    1.4289   -0.2063    0.0000 C   0  0  0  0  0  0  0  2  0  0  0  0
    2.1434    0.2062    0.0000 C   0  0  0  0  0  0  0  2  0  0  0  0
    2.1434    1.0312    0.0000 C   0  0  0  0  0  0  0  2  0  0  0  0
    1.4289    1.4438    0.0000 C   0  0  0  0  0  0  0  2  0  0  0  0
    0.7145    1.0313    0.0000 C   0  0  0  0  0  0  0  2  0  0  0  0
    0.0000    1.4438    0.0000 Cl  0  0  0  0  0  0  0  2  0  0  0  0
  1  2  1  0        0
  2  3  4  0        0
  3  4  4  0        0
  4  5  4  0        0
  5  6  4  0        0
  6  7  4  0        0
  2  7  4  0        0
  7  8  1  0        0
  6  9  1  0        0
  4 10  1  0        0
  3 11  1  0        0
 11 12  4  0        0
 12 13  4  0        0
 13 14  4  0        0
 14 15  4  0        0
 15 16  4  0        0
 11 16  4  0        0
 16 17  1  0        0
M  END
$$$$

CDXL12

 18 19  0  0  0  0  0  0  0  0999 V2000
    2.5006   -0.2062    0.0000 Cl  0  0  0  0  0  0  0  2  0  0  0  0
    1.7862   -0.6188    0.0000 C   0  0  0  0  0  0  0  2  0  0  0  0
    1.7862   -1.4438    0.0000 C   0  0  0  0  0  0  0  2  0  0  0  0
    1.0717   -1.8563    0.0000 C   0  0  0  0  0  0  0  2  0  0  0  0
    0.3572   -1.4438    0.0000 C   0  0  0  0  0  0  0  2  0  0  0  0
    0.3572   -0.6188    0.0000 C   0  0  0  0  0  0  0  2  0  0  0  0
    1.0717   -0.2062    0.0000 C   0  0  0  0  0  0  0  2  0  0  0  0
    1.0717    0.6187    0.0000 Cl  0  0  0  0  0  0  0  2  0  0  0  0
   -0.3572   -0.2062    0.0000 C   0  0  0  0  0  0  0  2  0  0  0  0
   -1.0717   -0.6187    0.0000 C   0  0  0  0  0  0  0  2  0  0  0  0
   -1.7862   -0.2062    0.0000 C   0  0  0  0  0  0  0  2  0  0  0  0
   -2.5006   -0.6187    0.0000 Cl  0  0  0  0  0  0  0  2  0  0  0  0
   -1.7862    0.6188    0.0000 C   0  0  0  0  0  0  0  2  0  0  0  0
   -2.5006    1.0313    0.0000 Cl  0  0  0  0  0  0  0  2  0  0  0  0
   -1.0717    1.0313    0.0000 C   0  0  0  0  0  0  0  2  0  0  0  0
   -1.0717    1.8563    0.0000 Cl  0  0  0  0  0  0  0  2  0  0  0  0
   -0.3572    0.6188    0.0000 C   0  0  0  0  0  0  0  2  0  0  0  0
    0.3572    1.0313    0.0000 Cl  0  0  0  0  0  0  0  2  0  0  0  0
  1  2  1  0        0
  2  3  4  0        0
  3  4  4  0        0
  4  5  4  0        0
  5  6  4  0        0
  6  7  4  0        0
  2  7  4  0        0
  7  8  1  0        0
  6  9  1  0        0
  9 10  4  0        0
 10 11  4  0        0
 11 12  1  0        0
 11 13  4  0        0
 13 14  1  0        0
 13 15  4  0        0
 15 16  1  0        0
 15 17  4  0        0
  9 17  4  0        0
 17 18  1  0        0
M  END
$$$$

CDXL12

 20 21  0  0  0  0  0  0  0  0999 V2000
   -0.7145   -0.3965    0.0000 C   0  0  0  0  0  0  0  2  0  0  0  0
   -1.4289   -0.8090    0.0000 C   0  0  0  0  0  0  0  2  0  0  0  0
   -2.1434   -0.3965    0.0000 C   0  0  0  0  0  0  0  2  0  0  0  0
   -2.8579   -0.8090    0.0000 Cl  0  0  0  0  0  0  0  2  0  0  0  0
   -2.1434    0.4285    0.0000 C   0  0  0  0  0  0  0  2  0  0  0  0
   -1.4289    0.8410    0.0000 C   0  0  0  0  0  0  0  2  0  0  0  0
   -0.7145    0.4285    0.0000 C   0  0  0  0  0  0  0  2  0  0  0  0
    0.0000    0.8410    0.0000 O   0  0  0  0  0  0  0  2  0  0  0  0
    0.7145    0.4285    0.0000 C   0  0  0  0  0  0  0  2  0  0  0  0
    0.7145   -0.3965    0.0000 N   0  0  0  0  0  0  0  2  0  0  0  0
    1.3819   -0.8814    0.0000 N   0  0  0  0  0  0  0  2  0  0  0  0
    1.1270   -1.6660    0.0000 C   0  0  0  0  0  0  0  2  0  0  0  0
    0.3020   -1.6660    0.0000 N   0  0  0  0  0  0  0  2  0  0  0  0
    0.0470   -0.8814    0.0000 C   0  0  0  0  0  0  0  2  0  0  0  0
    1.4289    0.8410    0.0000 C   0  0  0  0  0  0  0  2  0  0  0  0
    1.4289    1.6660    0.0000 O   0  0  0  0  0  0  0  2  0  0  0  0
    2.1434    0.4285    0.0000 C   0  0  0  0  0  0  0  2  0  0  0  0
    2.8579    0.8410    0.0000 C   0  0  0  0  0  0  0  2  0  0  0  0
    2.8579    0.0160    0.0000 C   0  0  0  0  0  0  0  2  0  0  0  0
    2.1434   -0.3965    0.0000 C   0  0  0  0  0  0  0  2  0  0  0  0
  1  2  4  0        0
  2  3  4  0        0
  3  4  1  0        0
  3  5  4  0        0
  5  6  4  0        0
  6  7  4  0        0
  1  7  4  0        0
  7  8  1  0        0
  8  9  1  0        0
  9 10  1  0        0
 10 11  4  0        0
 11 12  4  0        0
 12 13  4  0        0
 13 14  4  0        0
 10 14  4  0        0
  9 15  1  0        0
 15 16  1  0        0
 15 17  1  0        0
 17 18  1  0        0
 17 19  1  0        0
 17 20  1  0        0
M  END
$$$$

CDXL12

 23 23  0  0  0  0  0  0  0  0999 V2000
   -1.4289    1.2375    0.0000 O   0  0  0  0  0  0  0  2  0  0  0  0
   -1.4289    0.4125    0.0000 N   0  0  0  0  0  0  0  2  0  0  0  0
   -2.1434    0.0000    0.0000 O   0  0  0  0  0  0  0  2  0  0  0  0
   -0.7145    0.0000    0.0000 C   0  0  0  0  0  0  0  2  0  0  0  0
    0.0000    0.4125    0.0000 C   0  0  0  0  0  0  0  2  0  0  0  0
    0.0000    1.2375    0.0000 N   0  0  0  0  0  0  0  2  0  0  0  0
   -0.7145    1.6500    0.0000 C   0  0  0  0  0  0  0  2  0  0  0  0
   -0.7145    2.4750    0.0000 C   0  0  0  0  0  0  0  2  0  0  0  0
    0.0000    2.8875    0.0000 C   0  0  0  0  0  0  0  2  0  0  0  0
   -1.4289    2.8875    0.0000 C   0  0  0  0  0  0  0  2  0  0  0  0
    0.7145    1.6500    0.0000 C   0  0  0  0  0  0  0  2  0  0  0  0
    0.7145    2.4750    0.0000 C   0  0  0  0  0  0  0  2  0  0  0  0
    0.7145    0.0000    0.0000 C   0  0  0  0  0  0  0  2  0  0  0  0
    1.4289    0.4125    0.0000 N   0  0  0  0  0  0  0  2  0  0  0  0
    1.4289    1.2375    0.0000 O   0  0  0  0  0  0  0  2  0  0  0  0
    2.1434    0.0000    0.0000 O   0  0  0  0  0  0  0  2  0  0  0  0
    0.7145   -0.8250    0.0000 C   0  0  0  0  0  0  0  2  0  0  0  0
    0.0000   -1.2375    0.0000 C   0  0  0  0  0  0  0  2  0  0  0  0
    0.0000   -2.0625    0.0000 C   0  0  0  0  0  0  0  2  0  0  0  0
   -0.7145   -2.4750    0.0000 F   0  0  0  0  0  0  0  2  0  0  0  0
    0.0000   -2.8875    0.0000 F   0  0  0  0  0  0  0  2  0  0  0  0
    0.7145   -2.4750    0.0000 F   0  0  0  0  0  0  0  2  0  0  0  0
   -0.7145   -0.8250    0.0000 C   0  0  0  0  0  0  0  2  0  0  0  0
  1  2  2  0        0
  2  3  2  0        0
  2  4  1  0        0
  4  5  4  0        0
  5  6  1  0        0
  6  7  1  0        0
  7  8  1  0        0
  8  9  2  0        0
  8 10  1  0        0
  6 11  1  0        0
 11 12  1  0        0
  5 13  4  0        0
 13 14  1  0        0
 14 15  2  0        0
 14 16  2  0        0
 13 17  4  0        0
 17 18  4  0        0
 18 19  1  0        0
 19 20  1  0        0
 19 21  1  0        0
 19 22  1  0        0
 18 23  4  0        0
  4 23  4  0        0
M  END
$$$$

CDXL12

 26 27  0  0  0  0  0  0  0  0999 V2000
    2.5006    0.7909    0.0000 C   0  0  0  0  0  0  0  2  0  0  0  0
    1.8876    1.3429    0.0000 O   0  0  0  0  0  0  0  2  0  0  0  0
    2.2231    2.0966    0.0000 C   0  0  0  0  0  0  0  2  0  0  0  0
    3.0436    2.0104    0.0000 C   0  0  0  0  0  0  0  2  0  0  0  0
    3.2151    1.2034    0.0000 C   0  0  0  0  0  0  0  2  0  0  0  0
    3.9296    0.7909    0.0000 C   0  0  0  0  0  0  0  2  0  0  0  0
    3.9296   -0.0341    0.0000 C   0  0  0  0  0  0  0  2  0  0  0  0
    3.2151   -0.4466    0.0000 C   0  0  0  0  0  0  0  2  0  0  0  0
    2.5006   -0.0341    0.0000 C   0  0  0  0  0  0  0  2  0  0  0  0
    1.7862   -0.4466    0.0000 O   0  0  0  0  0  0  0  2  0  0  0  0
    1.0717   -0.0341    0.0000 C   0  0  0  0  0  0  0  2  0  0  0  0
    1.0717    0.7909    0.0000 O   0  0  0  0  0  0  0  2  0  0  0  0
    0.3572   -0.4466    0.0000 N   0  0  0  0  0  0  0  2  0  0  0  0
    0.3572   -1.2716    0.0000 C   0  0  0  0  0  0  0  2  0  0  0  0
   -0.3572   -0.0341    0.0000 S   0  0  0  0  0  0  0  2  0  0  0  0
   -1.0717   -0.4466    0.0000 N   0  0  0  0  0  0  0  2  0  0  0  0
   -1.7862   -0.0341    0.0000 C   0  0  0  0  0  0  0  2  0  0  0  0
   -2.5006   -0.4466    0.0000 C   0  0  0  0  0  0  0  2  0  0  0  0
   -3.2151   -0.0341    0.0000 C   0  0  0  0  0  0  0  2  0  0  0  0
   -3.9296   -0.4466    0.0000 C   0  0  0  0  0  0  0  2  0  0  0  0
   -1.0717   -1.2716    0.0000 C   0  0  0  0  0  0  0  2  0  0  0  0
   -1.7862   -1.6841    0.0000 C   0  0  0  0  0  0  0  2  0  0  0  0
   -1.7862   -2.5091    0.0000 C   0  0  0  0  0  0  0  2  0  0  0  0
   -2.5006   -2.9216    0.0000 C   0  0  0  0  0  0  0  2  0  0  0  0
    1.5086    2.5091    0.0000 C   0  0  0  0  0  0  0  2  0  0  0  0
    2.2231    2.9216    0.0000 C   0  0  0  0  0  0  0  2  0  0  0  0
  1  2  1  0        0
  2  3  1  0        0
  3  4  1  0        0
  4  5  1  0        0
  1  5  4  0        0
  5  6  4  0        0
  6  7  4  0        0
  7  8  4  0        0
  8  9  4  0        0
  1  9  4  0        0
  9 10  1  0        0
 10 11  1  0        0
 11 12  2  0        0
 11 13  1  0        0
 13 14  1  0        0
 13 15  1  0        0
 15 16  1  0        0
 16 17  1  0        0
 17 18  1  0        0
 18 19  1  0        0
 19 20  1  0        0
 16 21  1  0        0
 21 22  1  0        0
 22 23  1  0        0
 23 24  1  0        0
  3 25  1  0        0
  3 26  1  0        0
M  END
$$$$

CDXL12

 12 12  0  0  0  0  0  0  0  0999 V2000
    1.4289   -0.5635    0.0000 C   0  0  0  0  0  0  0  2  0  0  0  0
    0.7145   -0.1510    0.0000 C   0  0  0  0  0  0  0  2  0  0  0  0
    0.0000   -0.5635    0.0000 C   0  0  0  0  0  0  0  2  0  0  0  0
    0.0000   -1.3885    0.0000 C   0  0  0  0  0  0  0  2  0  0  0  0
   -0.7145   -0.1510    0.0000 S   0  0  0  0  0  0  0  2  0  0  0  0
   -1.5395   -0.1510    0.0000 O   0  0  0  0  0  0  0  2  0  0  0  0
   -1.1270   -0.8655    0.0000 O   0  0  0  0  0  0  0  2  0  0  0  0
   -0.7145    0.6740    0.0000 C   0  0  0  0  0  0  0  2  0  0  0  0
    0.0000    1.0865    0.0000 C   0  0  0  0  0  0  0  2  0  0  0  0
    0.7145    0.6740    0.0000 S   0  0  0  0  0  0  0  2  0  0  0  0
    1.5395    0.6740    0.0000 O   0  0  0  0  0  0  0  2  0  0  0  0
    1.1270    1.3885    0.0000 O   0  0  0  0  0  0  0  2  0  0  0  0
  1  2  1  0        0
  2  3  2  0        0
  3  4  1  0        0
  3  5  1  0        0
  5  6  2  0        0
  5  7  2  0        0
  5  8  1  0        0
  8  9  1  0        0
  9 10  1  0        0
  2 10  1  0        0
 10 11  2  0        0
 10 12  2  0        0
M  END
$$$$

CDXL12

 17 18  0  0  0  0  0  0  0  0999 V2000
    0.7145    1.8562    0.0000 Cl  0  0  0  0  0  0  0  2  0  0  0  0
    0.7145    1.0312    0.0000 C   0  0  0  0  0  0  0  2  0  0  0  0
    1.4289    0.6187    0.0000 C   0  0  0  0  0  0  0  2  0  0  0  0
    1.4289   -0.2063    0.0000 C   0  0  0  0  0  0  0  2  0  0  0  0
    0.7145   -0.6187    0.0000 C   0  0  0  0  0  0  0  2  0  0  0  0
    0.0000   -0.2063    0.0000 C   0  0  0  0  0  0  0  2  0  0  0  0
    0.0000    0.6187    0.0000 C   0  0  0  0  0  0  0  2  0  0  0  0
   -0.7145    1.0312    0.0000 Cl  0  0  0  0  0  0  0  2  0  0  0  0
   -0.7145   -0.6187    0.0000 C   0  0  0  0  0  0  0  2  0  0  0  0
   -1.4289   -0.2063    0.0000 C   0  0  0  0  0  0  0  2  0  0  0  0
   -2.1434   -0.6187    0.0000 C   0  0  0  0  0  0  0  2  0  0  0  0
   -2.1434   -1.4437    0.0000 C   0  0  0  0  0  0  0  2  0  0  0  0
   -1.4289   -1.8562    0.0000 C   0  0  0  0  0  0  0  2  0  0  0  0
   -0.7145   -1.4437    0.0000 C   0  0  0  0  0  0  0  2  0  0  0  0
    0.0000   -1.8562    0.0000 Cl  0  0  0  0  0  0  0  2  0  0  0  0
    2.1434   -0.6188    0.0000 Cl  0  0  0  0  0  0  0  2  0  0  0  0
    2.1434    1.0312    0.0000 Cl  0  0  0  0  0  0  0  2  0  0  0  0
  1  2  1  0        0
  2  3  4  0        0
  3  4  4  0        0
  4  5  4  0        0
  5  6  4  0        0
  6  7  4  0        0
  2  7  4  0        0
  7  8  1  0        0
  6  9  1  0        0
  9 10  4  0        0
 10 11  4  0        0
 11 12  4  0        0
 12 13  4  0        0
 13 14  4  0        0
  9 14  4  0        0
 14 15  1  0        0
  4 16  1  0        0
  3 17  1  0        0
M  END
$$$$

CDXL12

 14 14  0  0  0  0  0  0  0  0999 V2000
    2.5006    0.0000    0.0000 O   0  0  0  0  0  0  0  2  0  0  0  0
    1.7862    0.4125    0.0000 C   0  0  0  0  0  0  0  2  0  0  0  0
    1.7862    1.2375    0.0000 O   0  0  0  0  0  0  0  2  0  0  0  0
    1.0717    0.0000    0.0000 C   0  0  0  0  0  0  0  2  0  0  0  0
    0.3572    0.4125    0.0000 O   0  0  0  0  0  0  0  2  0  0  0  0
   -0.3572    0.0000    0.0000 C   0  0  0  0  0  0  0  2  0  0  0  0
   -1.0717    0.4125    0.0000 N   0  0  0  0  0  0  0  2  0  0  0  0
   -1.7862    0.0000    0.0000 C   0  0  0  0  0  0  0  2  0  0  0  0
   -2.5006    0.4125    0.0000 Cl  0  0  0  0  0  0  0  2  0  0  0  0
   -1.7862   -0.8250    0.0000 C   0  0  0  0  0  0  0  2  0  0  0  0
   -2.5006   -1.2375    0.0000 Cl  0  0  0  0  0  0  0  2  0  0  0  0
   -1.0717   -1.2375    0.0000 C   0  0  0  0  0  0  0  2  0  0  0  0
   -0.3572   -0.8250    0.0000 C   0  0  0  0  0  0  0  2  0  0  0  0
    0.3572   -1.2375    0.0000 Cl  0  0  0  0  0  0  0  2  0  0  0  0
  1  2  1  0        0
  2  3  2  0        0
  2  4  1  0        0
  4  5  1  0        0
  5  6  1  0        0
  6  7  4  0        0
  7  8  4  0        0
  8  9  1  0        0
  8 10  4  0        0
 10 11  1  0        0
 10 12  4  0        0
 12 13  4  0        0
  6 13  4  0        0
 13 14  1  0        0
M  END
$$$$

CDXL12

 17 18  0  0  0  0  0  0  0  0999 V2000
   -0.5546   -1.3810    0.0000 O   0  0  0  0  0  0  0  2  0  0  0  0
   -1.0396   -0.7136    0.0000 C   0  0  0  0  0  0  0  2  0  0  0  0
   -1.8646   -0.7136    0.0000 C   0  0  0  0  0  0  0  2  0  0  0  0
   -2.1195    0.0711    0.0000 N   0  0  0  0  0  0  0  2  0  0  0  0
   -2.9041    0.3260    0.0000 C   0  0  0  0  0  0  0  2  0  0  0  0
   -1.4521    0.5560    0.0000 C   0  0  0  0  0  0  0  2  0  0  0  0
   -1.4521    1.3810    0.0000 O   0  0  0  0  0  0  0  2  0  0  0  0
   -0.7846    0.0711    0.0000 N   0  0  0  0  0  0  0  2  0  0  0  0
   -0.0000    0.3260    0.0000 C   0  0  0  0  0  0  0  2  0  0  0  0
    0.2549    1.1106    0.0000 N   0  0  0  0  0  0  0  2  0  0  0  0
    1.0799    1.1106    0.0000 N   0  0  0  0  0  0  0  2  0  0  0  0
    1.3349    0.3260    0.0000 C   0  0  0  0  0  0  0  2  0  0  0  0
    2.1195    0.0711    0.0000 C   0  0  0  0  0  0  0  2  0  0  0  0
    2.9041   -0.1839    0.0000 C   0  0  0  0  0  0  0  2  0  0  0  0
    2.2910   -0.7359    0.0000 C   0  0  0  0  0  0  0  2  0  0  0  0
    2.7326    0.6231    0.0000 C   0  0  0  0  0  0  0  2  0  0  0  0
    0.6674   -0.1589    0.0000 S   0  0  0  0  0  0  0  2  0  0  0  0
  1  2  1  0        0
  2  3  1  0        0
  3  4  1  0        0
  4  5  1  0        0
  4  6  1  0        0
  6  7  2  0        0
  6  8  1  0        0
  2  8  1  0        0
  8  9  1  0        0
  9 10  4  0        0
 10 11  4  0        0
 11 12  4  0        0
 12 13  1  0        0
 13 14  1  0        0
 13 15  1  0        0
 13 16  1  0        0
 12 17  4  0        0
  9 17  4  0        0
M  END
$$$$

CDXL12

 25 26  0  0  0  0  0  0  0  0999 V2000
    3.2151   -1.2375    0.0000 C   0  0  0  0  0  0  0  2  0  0  0  0
    3.2151   -2.0625    0.0000 C   0  0  0  0  0  0  0  2  0  0  0  0
    3.9296   -2.4750    0.0000 C   0  0  0  0  0  0  0  2  0  0  0  0
    4.6441   -2.0625    0.0000 C   0  0  0  0  0  0  0  2  0  0  0  0
    4.6441   -1.2375    0.0000 C   0  0  0  0  0  0  0  2  0  0  0  0
    3.9296   -0.8250    0.0000 C   0  0  0  0  0  0  0  2  0  0  0  0
    3.9296   -0.0000    0.0000 C   0  0  0  0  0  0  0  2  0  0  0  0
    4.6441    0.4125    0.0000 N   0  0  0  0  0  0  0  2  0  0  0  0
    4.6441    1.2375    0.0000 N   0  0  0  0  0  0  0  2  0  0  0  0
    3.9296    1.6500    0.0000 C   0  0  0  0  0  0  0  2  0  0  0  0
    3.9296    2.4750    0.0000 Cl  0  0  0  0  0  0  0  2  0  0  0  0
    3.2151    1.2375    0.0000 C   0  0  0  0  0  0  0  2  0  0  0  0
    3.2151    0.4125    0.0000 C   0  0  0  0  0  0  0  2  0  0  0  0
    2.5006   -0.0000    0.0000 O   0  0  0  0  0  0  0  2  0  0  0  0
    1.7862    0.4125    0.0000 C   0  0  0  0  0  0  0  2  0  0  0  0
    1.7862    1.2375    0.0000 O   0  0  0  0  0  0  0  2  0  0  0  0
    1.0717   -0.0000    0.0000 S   0  0  0  0  0  0  0  2  0  0  0  0
    0.3572    0.4125    0.0000 C   0  0  0  0  0  0  0  2  0  0  0  0
   -0.3572   -0.0000    0.0000 C   0  0  0  0  0  0  0  2  0  0  0  0
   -1.0717    0.4125    0.0000 C   0  0  0  0  0  0  0  2  0  0  0  0
   -1.7862   -0.0000    0.0000 C   0  0  0  0  0  0  0  2  0  0  0  0
   -2.5006    0.4125    0.0000 C   0  0  0  0  0  0  0  2  0  0  0  0
   -3.2151   -0.0000    0.0000 C   0  0  0  0  0  0  0  2  0  0  0  0
   -3.9296    0.4125    0.0000 C   0  0  0  0  0  0  0  2  0  0  0  0
   -4.6441   -0.0000    0.0000 C   0  0  0  0  0  0  0  2  0  0  0  0
  1  2  4  0        0
  2  3  4  0        0
  3  4  4  0        0
  4  5  4  0        0
  5  6  4  0        0
  1  6  4  0        0
  6  7  1  0        0
  7  8  4  0        0
  8  9  4  0        0
  9 10  4  0        0
 10 11  1  0        0
 10 12  4  0        0
 12 13  4  0        0
  7 13  4  0        0
 13 14  1  0        0
 14 15  1  0        0
 15 16  2  0        0
 15 17  1  0        0
 17 18  1  0        0
 18 19  1  0        0
 19 20  1  0        0
 20 21  1  0        0
 21 22  1  0        0
 22 23  1  0        0
 23 24  1  0        0
 24 25  1  0        0
M  END
$$$$

CDXL12

 11 11  0  0  0  0  0  0  0  0999 V2000
   -0.0553   -0.5635    0.0000 C   0  0  0  0  0  0  0  2  0  0  0  0
   -0.0553   -1.3885    0.0000 O   0  0  0  0  0  0  0  2  0  0  0  0
    0.6592   -0.1510    0.0000 N   0  0  0  0  0  0  0  2  0  0  0  0
    1.3737   -0.5635    0.0000 K   0  0  0  0  0  0  0  2  0  0  0  0
    0.6592    0.6740    0.0000 S   0  0  0  0  0  0  0  2  0  0  0  0
    1.4842    0.6740    0.0000 O   0  0  0  0  0  0  0  2  0  0  0  0
    1.0717    1.3885    0.0000 O   0  0  0  0  0  0  0  2  0  0  0  0
   -0.0553    1.0865    0.0000 O   0  0  0  0  0  0  0  2  0  0  0  0
   -0.7697    0.6740    0.0000 C   0  0  0  0  0  0  0  2  0  0  0  0
   -0.7697   -0.1510    0.0000 C   0  0  0  0  0  0  0  2  0  0  0  0
   -1.4842    1.0865    0.0000 C   0  0  0  0  0  0  0  2  0  0  0  0
  1  2  2  0        0
  1  3  1  0        0
  3  4  1  0        0
  3  5  1  0        0
  5  6  2  0        0
  5  7  2  0        0
  5  8  1  0        0
  8  9  1  0        0
  9 10  2  0        0
  1 10  1  0        0
  9 11  1  0        0
M  END
$$$$

CDXL12

 24 24  0  0  0  0  0  0  0  0999 V2000
    0.3572   -1.4437    0.0000 C   0  0  0  0  0  0  0  2  0  0  0  0
   -0.3572   -1.8562    0.0000 N   0  0  0  0  0  0  0  2  0  0  0  0
   -1.0717   -1.4437    0.0000 O   0  0  0  0  0  0  0  2  0  0  0  0
   -1.7862   -1.8562    0.0000 C   0  0  0  0  0  0  0  2  0  0  0  0
   -2.5006   -1.4437    0.0000 C   0  0  0  0  0  0  0  2  0  0  0  0
   -3.2151   -1.8562    0.0000 C   0  0  0  0  0  0  0  2  0  0  0  0
    1.0717   -1.8562    0.0000 C   0  0  0  0  0  0  0  2  0  0  0  0
    1.7862   -1.4437    0.0000 C   0  0  0  0  0  0  0  2  0  0  0  0
    2.5006   -1.8562    0.0000 C   0  0  0  0  0  0  0  2  0  0  0  0
    0.3572   -0.6187    0.0000 C   0  0  0  0  0  0  0  2  0  0  0  0
   -0.3572   -0.2062    0.0000 C   0  0  0  0  0  0  0  2  0  0  0  0
   -1.0717   -0.6187    0.0000 O   0  0  0  0  0  0  0  2  0  0  0  0
   -1.7862   -0.2062    0.0000 Na  0  0  0  0  0  0  0  2  0  0  0  0
   -0.3572    0.6188    0.0000 C   0  0  0  0  0  0  0  2  0  0  0  0
    0.3572    1.0313    0.0000 C   0  0  0  0  0  0  0  2  0  0  0  0
   -0.0553    1.7457    0.0000 C   0  0  0  0  0  0  0  2  0  0  0  0
    0.7697    1.7457    0.0000 C   0  0  0  0  0  0  0  2  0  0  0  0
    1.0717    0.6188    0.0000 C   0  0  0  0  0  0  0  2  0  0  0  0
    1.7862    1.0313    0.0000 C   0  0  0  0  0  0  0  2  0  0  0  0
    1.7862    1.8562    0.0000 O   0  0  0  0  0  0  0  2  0  0  0  0
    2.5006    0.6188    0.0000 O   0  0  0  0  0  0  0  2  0  0  0  0
    3.2151    1.0313    0.0000 C   0  0  0  0  0  0  0  2  0  0  0  0
    1.0717   -0.2062    0.0000 C   0  0  0  0  0  0  0  2  0  0  0  0
    1.7862   -0.6187    0.0000 O   0  0  0  0  0  0  0  2  0  0  0  0
  1  2  2  0        0
  2  3  1  0        0
  3  4  1  0        0
  4  5  1  0        0
  5  6  2  0        0
  1  7  1  0        0
  7  8  1  0        0
  8  9  1  0        0
  1 10  1  0        0
 10 11  2  0        0
 11 12  1  0        0
 12 13  1  0        0
 11 14  1  0        0
 14 15  1  0        0
 15 16  1  0        0
 15 17  1  0        0
 15 18  1  0        0
 18 19  1  0        0
 19 20  2  0        0
 19 21  1  0        0
 21 22  1  0        0
 18 23  1  0        0
 10 23  1  0        0
 23 24  2  0        0
M  END
$$$$

CDXL12

 15 16  0  0  0  0  0  0  0  0999 V2000
   -2.1434   -0.2062    0.0000 Cl  0  0  0  0  0  0  0  2  0  0  0  0
   -1.4289    0.2062    0.0000 C   0  0  0  0  0  0  0  2  0  0  0  0
   -1.4289    1.0313    0.0000 C   0  0  0  0  0  0  0  2  0  0  0  0
   -0.7145    1.4438    0.0000 C   0  0  0  0  0  0  0  2  0  0  0  0
    0.0000    1.0312    0.0000 C   0  0  0  0  0  0  0  2  0  0  0  0
    0.7145    1.4437    0.0000 Cl  0  0  0  0  0  0  0  2  0  0  0  0
    0.0000    0.2062    0.0000 C   0  0  0  0  0  0  0  2  0  0  0  0
    0.7145   -0.2062    0.0000 C   0  0  0  0  0  0  0  2  0  0  0  0
    1.4289    0.2062    0.0000 C   0  0  0  0  0  0  0  2  0  0  0  0
    2.1434   -0.2062    0.0000 C   0  0  0  0  0  0  0  2  0  0  0  0
    2.1434   -1.0313    0.0000 C   0  0  0  0  0  0  0  2  0  0  0  0
    1.4289   -1.4438    0.0000 C   0  0  0  0  0  0  0  2  0  0  0  0
    0.7145   -1.0313    0.0000 C   0  0  0  0  0  0  0  2  0  0  0  0
   -0.7145   -0.2062    0.0000 C   0  0  0  0  0  0  0  2  0  0  0  0
   -0.7145   -1.0312    0.0000 Cl  0  0  0  0  0  0  0  2  0  0  0  0
  1  2  1  0        0
  2  3  4  0        0
  3  4  4  0        0
  4  5  4  0        0
  5  6  1  0        0
  5  7  4  0        0
  7  8  1  0        0
  8  9  4  0        0
  9 10  4  0        0
 10 11  4  0        0
 11 12  4  0        0
 12 13  4  0        0
  8 13  4  0        0
  7 14  4  0        0
  2 14  4  0        0
 14 15  1  0        0
M  END
$$$$

CDXL12

 15 16  0  0  0  0  0  0  0  0999 V2000
   -2.1434   -1.0312    0.0000 Cl  0  0  0  0  0  0  0  2  0  0  0  0
   -1.4289   -0.6188    0.0000 C   0  0  0  0  0  0  0  2  0  0  0  0
   -1.4289    0.2062    0.0000 C   0  0  0  0  0  0  0  2  0  0  0  0
   -0.7145    0.6188    0.0000 C   0  0  0  0  0  0  0  2  0  0  0  0
    0.0000    0.2062    0.0000 C   0  0  0  0  0  0  0  2  0  0  0  0
    0.7145    0.6187    0.0000 C   0  0  0  0  0  0  0  2  0  0  0  0
    0.7145    1.4437    0.0000 C   0  0  0  0  0  0  0  2  0  0  0  0
    1.4289    1.8562    0.0000 C   0  0  0  0  0  0  0  2  0  0  0  0
    2.1434    1.4437    0.0000 C   0  0  0  0  0  0  0  2  0  0  0  0
    2.1434    0.6188    0.0000 C   0  0  0  0  0  0  0  2  0  0  0  0
    1.4289    0.2062    0.0000 C   0  0  0  0  0  0  0  2  0  0  0  0
    0.0000   -0.6188    0.0000 C   0  0  0  0  0  0  0  2  0  0  0  0
   -0.7145   -1.0312    0.0000 C   0  0  0  0  0  0  0  2  0  0  0  0
   -0.7145   -1.8562    0.0000 Cl  0  0  0  0  0  0  0  2  0  0  0  0
    0.7145   -1.0313    0.0000 Cl  0  0  0  0  0  0  0  2  0  0  0  0
  1  2  1  0        0
  2  3  4  0        0
  3  4  4  0        0
  4  5  4  0        0
  5  6  1  0        0
  6  7  4  0        0
  7  8  4  0        0
  8  9  4  0        0
  9 10  4  0        0
 10 11  4  0        0
  6 11  4  0        0
  5 12  4  0        0
 12 13  4  0        0
  2 13  4  0        0
 13 14  1  0        0
 12 15  1  0        0
M  END
$$$$

CDXL12

 13 14  0  0  0  0  0  0  0  0999 V2000
   -2.1434    0.4125    0.0000 Cl  0  0  0  0  0  0  0  2  0  0  0  0
   -1.4289   -0.0000    0.0000 C   0  0  0  0  0  0  0  2  0  0  0  0
   -1.4289   -0.8250    0.0000 C   0  0  0  0  0  0  0  2  0  0  0  0
   -0.7145   -1.2375    0.0000 C   0  0  0  0  0  0  0  2  0  0  0  0
    0.0000   -0.8250    0.0000 C   0  0  0  0  0  0  0  2  0  0  0  0
    0.7145   -1.2375    0.0000 C   0  0  0  0  0  0  0  2  0  0  0  0
    1.4289   -0.8250    0.0000 C   0  0  0  0  0  0  0  2  0  0  0  0
    2.1434   -1.2375    0.0000 Cl  0  0  0  0  0  0  0  2  0  0  0  0
    1.4289    0.0000    0.0000 C   0  0  0  0  0  0  0  2  0  0  0  0
    0.7145    0.4125    0.0000 C   0  0  0  0  0  0  0  2  0  0  0  0
    0.7145    1.2375    0.0000 Cl  0  0  0  0  0  0  0  2  0  0  0  0
    0.0000    0.0000    0.0000 C   0  0  0  0  0  0  0  2  0  0  0  0
   -0.7145    0.4125    0.0000 C   0  0  0  0  0  0  0  2  0  0  0  0
  1  2  1  0        0
  2  3  4  0        0
  3  4  4  0        0
  4  5  4  0        0
  5  6  4  0        0
  6  7  4  0        0
  7  8  1  0        0
  7  9  4  0        0
  9 10  4  0        0
 10 11  1  0        0
 10 12  4  0        0
  5 12  4  0        0
 12 13  4  0        0
  2 13  4  0        0
M  END
$$$$

CDXL12

 15 16  0  0  0  0  0  0  0  0999 V2000
    1.4289   -0.2062    0.0000 C   0  0  0  0  0  0  0  2  0  0  0  0
    2.1434   -0.6188    0.0000 C   0  0  0  0  0  0  0  2  0  0  0  0
    2.1434   -1.4438    0.0000 C   0  0  0  0  0  0  0  2  0  0  0  0
    1.4289   -1.8563    0.0000 C   0  0  0  0  0  0  0  2  0  0  0  0
    0.7145   -1.4437    0.0000 C   0  0  0  0  0  0  0  2  0  0  0  0
    0.7145   -0.6187    0.0000 C   0  0  0  0  0  0  0  2  0  0  0  0
    0.0000   -0.2062    0.0000 C   0  0  0  0  0  0  0  2  0  0  0  0
    0.0000    0.6188    0.0000 C   0  0  0  0  0  0  0  2  0  0  0  0
    0.7145    1.0313    0.0000 Cl  0  0  0  0  0  0  0  2  0  0  0  0
   -0.7145    1.0313    0.0000 C   0  0  0  0  0  0  0  2  0  0  0  0
   -0.7145    1.8563    0.0000 Cl  0  0  0  0  0  0  0  2  0  0  0  0
   -1.4289    0.6187    0.0000 C   0  0  0  0  0  0  0  2  0  0  0  0
   -1.4289   -0.2062    0.0000 C   0  0  0  0  0  0  0  2  0  0  0  0
   -2.1434   -0.6188    0.0000 Cl  0  0  0  0  0  0  0  2  0  0  0  0
   -0.7145   -0.6187    0.0000 C   0  0  0  0  0  0  0  2  0  0  0  0
  1  2  4  0        0
  2  3  4  0        0
  3  4  4  0        0
  4  5  4  0        0
  5  6  4  0        0
  1  6  4  0        0
  6  7  1  0        0
  7  8  4  0        0
  8  9  1  0        0
  8 10  4  0        0
 10 11  1  0        0
 10 12  4  0        0
 12 13  4  0        0
 13 14  1  0        0
 13 15  4  0        0
  7 15  4  0        0
M  END
$$$$

CDXL12

 15 15  0  0  0  0  0  0  0  0999 V2000
   -0.0418   -0.9432    0.0000 N   0  0  0  0  0  0  0  2  0  0  0  0
   -0.8488   -1.1148    0.0000 O   0  0  0  0  0  0  0  2  0  0  0  0
   -1.2613   -0.4003    0.0000 C   0  0  0  0  0  0  0  2  0  0  0  0
   -2.0818   -0.3140    0.0000 C   0  0  0  0  0  0  0  2  0  0  0  0
   -2.9023   -0.2278    0.0000 C   0  0  0  0  0  0  0  2  0  0  0  0
   -2.4174    0.4396    0.0000 C   0  0  0  0  0  0  0  2  0  0  0  0
   -2.5667   -0.9815    0.0000 C   0  0  0  0  0  0  0  2  0  0  0  0
   -0.7093    0.2128    0.0000 C   0  0  0  0  0  0  0  2  0  0  0  0
    0.0444   -0.1227    0.0000 C   0  0  0  0  0  0  0  2  0  0  0  0
    0.7589    0.2898    0.0000 N   0  0  0  0  0  0  0  2  0  0  0  0
    1.4733   -0.1227    0.0000 C   0  0  0  0  0  0  0  2  0  0  0  0
    1.4733   -0.9477    0.0000 O   0  0  0  0  0  0  0  2  0  0  0  0
    2.1878    0.2898    0.0000 N   0  0  0  0  0  0  0  2  0  0  0  0
    2.1878    1.1148    0.0000 C   0  0  0  0  0  0  0  2  0  0  0  0
    2.9023   -0.1227    0.0000 C   0  0  0  0  0  0  0  2  0  0  0  0
  1  2  4  0        0
  2  3  4  0        0
  3  4  1  0        0
  4  5  1  0        0
  4  6  1  0        0
  4  7  1  0        0
  3  8  4  0        0
  8  9  4  0        0
  1  9  4  0        0
  9 10  1  0        0
 10 11  1  0        0
 11 12  2  0        0
 11 13  1  0        0
 13 14  1  0        0
 13 15  1  0        0
M  END
$$$$

CDXL12

 26 28  0  0  0  0  0  0  0  0999 V2000
   -0.7145    1.0313    0.0000 O   0  0  0  0  0  0  0  2  0  0  0  0
   -0.7145    0.2062    0.0000 P   0  0  0  0  0  0  0  2  0  0  0  0
    0.0000   -0.2062    0.0000 O   0  0  0  0  0  0  0  2  0  0  0  0
    0.7145    0.2062    0.0000 C   0  0  0  0  0  0  0  2  0  0  0  0
    0.7145    1.0312    0.0000 C   0  0  0  0  0  0  0  2  0  0  0  0
    1.4289    1.4438    0.0000 C   0  0  0  0  0  0  0  2  0  0  0  0
    2.1434    1.0313    0.0000 C   0  0  0  0  0  0  0  2  0  0  0  0
    2.1434    0.2062    0.0000 C   0  0  0  0  0  0  0  2  0  0  0  0
    1.4289   -0.2062    0.0000 C   0  0  0  0  0  0  0  2  0  0  0  0
    2.8579    1.4438    0.0000 C   0  0  0  0  0  0  0  2  0  0  0  0
    2.8579    2.2687    0.0000 C   0  0  0  0  0  0  0  2  0  0  0  0
    3.5724    1.0313    0.0000 C   0  0  0  0  0  0  0  2  0  0  0  0
   -1.4289   -0.2062    0.0000 O   0  0  0  0  0  0  0  2  0  0  0  0
   -2.1434    0.2062    0.0000 C   0  0  0  0  0  0  0  2  0  0  0  0
   -2.8579   -0.2062    0.0000 C   0  0  0  0  0  0  0  2  0  0  0  0
   -3.5724    0.2062    0.0000 C   0  0  0  0  0  0  0  2  0  0  0  0
   -3.5724    1.0313    0.0000 C   0  0  0  0  0  0  0  2  0  0  0  0
   -2.8579    1.4438    0.0000 C   0  0  0  0  0  0  0  2  0  0  0  0
   -2.1434    1.0312    0.0000 C   0  0  0  0  0  0  0  2  0  0  0  0
   -0.7145   -0.6188    0.0000 O   0  0  0  0  0  0  0  2  0  0  0  0
    0.0000   -1.0313    0.0000 C   0  0  0  0  0  0  0  2  0  0  0  0
    0.7145   -0.6188    0.0000 C   0  0  0  0  0  0  0  2  0  0  0  0
    1.4289   -1.0313    0.0000 C   0  0  0  0  0  0  0  2  0  0  0  0
    1.4289   -1.8563    0.0000 C   0  0  0  0  0  0  0  2  0  0  0  0
    0.7145   -2.2687    0.0000 C   0  0  0  0  0  0  0  2  0  0  0  0
    0.0000   -1.8563    0.0000 C   0  0  0  0  0  0  0  2  0  0  0  0
  1  2  2  0        0
  2  3  1  0        0
  3  4  1  0        0
  4  5  4  0        0
  5  6  4  0        0
  6  7  4  0        0
  7  8  4  0        0
  8  9  4  0        0
  4  9  4  0        0
  7 10  1  0        0
 10 11  1  0        0
 10 12  1  0        0
  2 13  1  0        0
 13 14  1  0        0
 14 15  4  0        0
 15 16  4  0        0
 16 17  4  0        0
 17 18  4  0        0
 18 19  4  0        0
 14 19  4  0        0
  2 20  1  0        0
 20 21  1  0        0
 21 22  4  0        0
 22 23  4  0        0
 23 24  4  0        0
 24 25  4  0        0
 25 26  4  0        0
 21 26  4  0        0
M  END
$$$$

CDXL12

 34 39  0  0  0  0  0  0  0  0999 V2000
   -1.0717    1.4437    0.0000 O   0  0  0  0  0  0  0  2  0  0  0  0
   -1.7862    1.0312    0.0000 C   0  0  0  0  0  0  0  2  0  0  0  0
   -2.5006    1.4437    0.0000 O   0  0  0  0  0  0  0  2  0  0  0  0
   -3.2151    1.0312    0.0000 C   0  0  0  0  0  0  0  2  0  0  0  0
   -3.9296    1.4437    0.0000 C   0  0  0  0  0  0  0  2  0  0  0  0
   -4.6441    1.0312    0.0000 C   0  0  0  0  0  0  0  2  0  0  0  0
   -4.6441    0.2062    0.0000 C   0  0  0  0  0  0  0  2  0  0  0  0
   -3.9296   -0.2063    0.0000 C   0  0  0  0  0  0  0  2  0  0  0  0
   -3.2151    0.2062    0.0000 C   0  0  0  0  0  0  0  2  0  0  0  0
   -2.5006   -0.2062    0.0000 C   0  0  0  0  0  0  0  2  0  0  0  0
   -2.5006   -1.0312    0.0000 O   0  0  0  0  0  0  0  2  0  0  0  0
   -1.7862    0.2063    0.0000 C   0  0  0  0  0  0  0  2  0  0  0  0
   -1.0717   -0.2062    0.0000 C   0  0  0  0  0  0  0  2  0  0  0  0
   -1.0717   -1.0312    0.0000 C   0  0  0  0  0  0  0  2  0  0  0  0
   -1.7862   -1.4437    0.0000 C   0  0  0  0  0  0  0  2  0  0  0  0
   -1.7862   -2.2687    0.0000 C   0  0  0  0  0  0  0  2  0  0  0  0
   -1.0717   -2.6812    0.0000 C   0  0  0  0  0  0  0  2  0  0  0  0
   -0.3572   -2.2687    0.0000 C   0  0  0  0  0  0  0  2  0  0  0  0
   -0.3572   -1.4437    0.0000 C   0  0  0  0  0  0  0  2  0  0  0  0
    0.3572   -1.0312    0.0000 C   0  0  0  0  0  0  0  2  0  0  0  0
    0.3572   -0.2062    0.0000 C   0  0  0  0  0  0  0  2  0  0  0  0
    1.0717    0.2063    0.0000 C   0  0  0  0  0  0  0  2  0  0  0  0
    1.0717    1.0312    0.0000 C   0  0  0  0  0  0  0  2  0  0  0  0
    1.7862    1.4437    0.0000 C   0  0  0  0  0  0  0  2  0  0  0  0
    2.5006    1.0312    0.0000 C   0  0  0  0  0  0  0  2  0  0  0  0
    3.2151    1.4437    0.0000 C   0  0  0  0  0  0  0  2  0  0  0  0
    3.2151    2.2687    0.0000 C   0  0  0  0  0  0  0  2  0  0  0  0
    3.9296    2.6812    0.0000 C   0  0  0  0  0  0  0  2  0  0  0  0
    4.6441    2.2687    0.0000 C   0  0  0  0  0  0  0  2  0  0  0  0
    4.6441    1.4437    0.0000 C   0  0  0  0  0  0  0  2  0  0  0  0
    3.9296    1.0312    0.0000 C   0  0  0  0  0  0  0  2  0  0  0  0
    2.5006    0.2063    0.0000 C   0  0  0  0  0  0  0  2  0  0  0  0
    1.7862   -0.2062    0.0000 C   0  0  0  0  0  0  0  2  0  0  0  0
   -0.3572    0.2063    0.0000 C   0  0  0  0  0  0  0  2  0  0  0  0
  1  2  2  0        0
  2  3  1  0        0
  3  4  1  0        0
  4  5  4  0        0
  5  6  4  0        0
  6  7  4  0        0
  7  8  4  0        0
  8  9  4  0        0
  4  9  4  0        0
  9 10  1  0        0
 10 11  1  0        0
 10 12  2  0        0
  2 12  1  0        0
 12 13  1  0        0
 13 14  1  0        0
 14 15  4  0        0
 15 16  4  0        0
 16 17  4  0        0
 17 18  4  0        0
 18 19  4  0        0
 14 19  4  0        0
 19 20  1  0        0
 20 21  1  0        0
 21 22  1  0        0
 22 23  4  0        0
 23 24  4  0        0
 24 25  4  0        0
 25 26  1  0        0
 26 27  4  0        0
 27 28  4  0        0
 28 29  4  0        0
 29 30  4  0        0
 30 31  4  0        0
 26 31  4  0        0
 25 32  4  0        0
 32 33  4  0        0
 22 33  4  0        0
 21 34  1  0        0
 13 34  1  0        0
M  END
$$$$

CDXL12

 16 16  0  0  0  0  0  0  0  0999 V2000
   -0.3572    1.6500    0.0000 Cl  0  0  0  0  0  0  0  2  0  0  0  0
   -0.3572    0.8250    0.0000 C   0  0  0  0  0  0  0  2  0  0  0  0
   -1.0717    0.4125    0.0000 C   0  0  0  0  0  0  0  2  0  0  0  0
   -1.7862    0.8250    0.0000 Cl  0  0  0  0  0  0  0  2  0  0  0  0
   -1.0717   -0.4125    0.0000 C   0  0  0  0  0  0  0  2  0  0  0  0
   -1.7862   -0.8250    0.0000 Cl  0  0  0  0  0  0  0  2  0  0  0  0
   -0.3572   -0.8250    0.0000 C   0  0  0  0  0  0  0  2  0  0  0  0
   -0.3572   -1.6500    0.0000 Cl  0  0  0  0  0  0  0  2  0  0  0  0
    0.3572   -0.4125    0.0000 C   0  0  0  0  0  0  0  2  0  0  0  0
    1.0717   -0.8250    0.0000 C   0  0  0  0  0  0  0  2  0  0  0  0
    1.0717   -1.6500    0.0000 O   0  0  0  0  0  0  0  2  0  0  0  0
    1.7862   -0.4125    0.0000 O   0  0  0  0  0  0  0  2  0  0  0  0
    0.3572    0.4125    0.0000 C   0  0  0  0  0  0  0  2  0  0  0  0
    1.0717    0.8250    0.0000 C   0  0  0  0  0  0  0  2  0  0  0  0
    1.0717    1.6500    0.0000 O   0  0  0  0  0  0  0  2  0  0  0  0
    1.7862    0.4125    0.0000 N   0  0  0  0  0  0  0  2  0  0  0  0
  1  2  1  0        0
  2  3  4  0        0
  3  4  1  0        0
  3  5  4  0        0
  5  6  1  0        0
  5  7  4  0        0
  7  8  1  0        0
  7  9  4  0        0
  9 10  1  0        0
 10 11  2  0        0
 10 12  1  0        0
  9 13  4  0        0
  2 13  4  0        0
 13 14  1  0        0
 14 15  2  0        0
 14 16  1  0        0
M  END
$$$$

CDXL12

 22 23  0  0  0  0  0  0  0  0999 V2000
    0.7145   -1.6500    0.0000 C   0  0  0  0  0  0  0  2  0  0  0  0
    0.0000   -2.0625    0.0000 C   0  0  0  0  0  0  0  2  0  0  0  0
   -0.7145   -1.6500    0.0000 C   0  0  0  0  0  0  0  2  0  0  0  0
   -1.4289   -2.0625    0.0000 O   0  0  0  0  0  0  0  2  0  0  0  0
   -2.1434   -1.6500    0.0000 C   0  0  0  0  0  0  0  2  0  0  0  0
   -2.1434   -0.8250    0.0000 F   0  0  0  0  0  0  0  2  0  0  0  0
   -2.8579   -1.2375    0.0000 F   0  0  0  0  0  0  0  2  0  0  0  0
   -2.8579   -2.0625    0.0000 F   0  0  0  0  0  0  0  2  0  0  0  0
   -0.7145   -0.8250    0.0000 C   0  0  0  0  0  0  0  2  0  0  0  0
    0.0000   -0.4125    0.0000 C   0  0  0  0  0  0  0  2  0  0  0  0
    0.7145   -0.8250    0.0000 C   0  0  0  0  0  0  0  2  0  0  0  0
    1.4289   -0.4125    0.0000 C   0  0  0  0  0  0  0  2  0  0  0  0
    1.4289   -1.2375    0.0000 O   0  0  0  0  0  0  0  2  0  0  0  0
    2.1434   -0.8250    0.0000 C   0  0  0  0  0  0  0  2  0  0  0  0
    2.8579   -0.4125    0.0000 C   0  0  0  0  0  0  0  2  0  0  0  0
    2.1434   -1.6500    0.0000 C   0  0  0  0  0  0  0  2  0  0  0  0
    1.4289    0.4125    0.0000 C   0  0  0  0  0  0  0  2  0  0  0  0
    0.7145    0.8250    0.0000 C   0  0  0  0  0  0  0  2  0  0  0  0
    0.7145    1.6500    0.0000 N   0  0  0  0  0  0  0  2  0  0  0  0
    1.4289    2.0625    0.0000 C   0  0  0  0  0  0  0  2  0  0  0  0
    2.1434    1.6500    0.0000 N   0  0  0  0  0  0  0  2  0  0  0  0
    2.1434    0.8250    0.0000 C   0  0  0  0  0  0  0  2  0  0  0  0
  1  2  4  0        0
  2  3  4  0        0
  3  4  1  0        0
  4  5  1  0        0
  5  6  1  0        0
  5  7  1  0        0
  5  8  1  0        0
  3  9  4  0        0
  9 10  4  0        0
 10 11  4  0        0
  1 11  4  0        0
 11 12  1  0        0
 12 13  1  0        0
 12 14  1  0        0
 14 15  1  0        0
 14 16  1  0        0
 12 17  1  0        0
 17 18  4  0        0
 18 19  4  0        0
 19 20  4  0        0
 20 21  4  0        0
 21 22  4  0        0
 17 22  4  0        0
M  END
$$$$

CDXL12

 17 18  0  0  0  0  0  0  0  0999 V2000
   -0.7145    1.0313    0.0000 Cl  0  0  0  0  0  0  0  2  0  0  0  0
   -0.7145    0.2062    0.0000 C   0  0  0  0  0  0  0  2  0  0  0  0
    0.0000   -0.2062    0.0000 C   0  0  0  0  0  0  0  2  0  0  0  0
    0.0000   -1.0313    0.0000 C   0  0  0  0  0  0  0  2  0  0  0  0
   -0.7145   -1.4437    0.0000 C   0  0  0  0  0  0  0  2  0  0  0  0
   -1.4289   -1.0313    0.0000 C   0  0  0  0  0  0  0  2  0  0  0  0
   -1.4289   -0.2062    0.0000 C   0  0  0  0  0  0  0  2  0  0  0  0
   -2.1434   -1.4437    0.0000 Cl  0  0  0  0  0  0  0  2  0  0  0  0
    0.7145   -1.4438    0.0000 Cl  0  0  0  0  0  0  0  2  0  0  0  0
    0.7145    0.2062    0.0000 C   0  0  0  0  0  0  0  2  0  0  0  0
    0.7145    1.0313    0.0000 C   0  0  0  0  0  0  0  2  0  0  0  0
    1.4289    1.4438    0.0000 C   0  0  0  0  0  0  0  2  0  0  0  0
    2.1434    1.0313    0.0000 C   0  0  0  0  0  0  0  2  0  0  0  0
    2.1434    0.2062    0.0000 C   0  0  0  0  0  0  0  2  0  0  0  0
    1.4289   -0.2062    0.0000 C   0  0  0  0  0  0  0  2  0  0  0  0
    1.4289   -1.0313    0.0000 Cl  0  0  0  0  0  0  0  2  0  0  0  0
    0.0000    1.4438    0.0000 Cl  0  0  0  0  0  0  0  2  0  0  0  0
  1  2  1  0        0
  2  3  4  0        0
  3  4  4  0        0
  4  5  4  0        0
  5  6  4  0        0
  6  7  4  0        0
  2  7  4  0        0
  6  8  1  0        0
  4  9  1  0        0
  3 10  1  0        0
 10 11  4  0        0
 11 12  4  0        0
 12 13  4  0        0
 13 14  4  0        0
 14 15  4  0        0
 10 15  4  0        0
 15 16  1  0        0
 11 17  1  0        0
M  END
$$$$

CDXL12

 12 12  0  0  0  0  0  0  0  0999 V2000
    1.7862    0.0000    0.0000 C   0  0  0  0  0  0  0  2  0  0  0  0
    1.0717   -0.4125    0.0000 O   0  0  0  0  0  0  0  2  0  0  0  0
    0.3572   -0.0000    0.0000 C   0  0  0  0  0  0  0  2  0  0  0  0
    0.3572    0.8250    0.0000 C   0  0  0  0  0  0  0  2  0  0  0  0
    1.0717    1.2375    0.0000 O   0  0  0  0  0  0  0  2  0  0  0  0
   -0.3572    1.2375    0.0000 C   0  0  0  0  0  0  0  2  0  0  0  0
   -1.0717    0.8250    0.0000 C   0  0  0  0  0  0  0  2  0  0  0  0
   -1.7862    1.2375    0.0000 Cl  0  0  0  0  0  0  0  2  0  0  0  0
   -1.0717   -0.0000    0.0000 C   0  0  0  0  0  0  0  2  0  0  0  0
   -1.7862   -0.4125    0.0000 Cl  0  0  0  0  0  0  0  2  0  0  0  0
   -0.3572   -0.4125    0.0000 C   0  0  0  0  0  0  0  2  0  0  0  0
   -0.3572   -1.2375    0.0000 Cl  0  0  0  0  0  0  0  2  0  0  0  0
  1  2  1  0        0
  2  3  1  0        0
  3  4  4  0        0
  4  5  1  0        0
  4  6  4  0        0
  6  7  4  0        0
  7  8  1  0        0
  7  9  4  0        0
  9 10  1  0        0
  9 11  4  0        0
  3 11  4  0        0
 11 12  1  0        0
M  END
$$$$

CDXL12

 35 38  0  0  0  0  0  0  0  0999 V2000
   -2.1434   -0.4125    0.0000 O   0  0  0  0  0  0  0  2  0  0  0  0
   -2.1434   -1.2375    0.0000 C   0  0  0  0  0  0  0  2  0  0  0  0
   -2.8579   -1.6500    0.0000 C   0  0  0  0  0  0  0  2  0  0  0  0
   -2.8579   -2.4750    0.0000 C   0  0  0  0  0  0  0  2  0  0  0  0
   -2.1434   -2.8875    0.0000 C   0  0  0  0  0  0  0  2  0  0  0  0
   -2.1434   -3.7125    0.0000 C   0  0  0  0  0  0  0  2  0  0  0  0
   -1.4289   -4.1250    0.0000 O   0  0  0  0  0  0  0  2  0  0  0  0
   -2.8579   -4.1250    0.0000 C   0  0  0  0  0  0  0  2  0  0  0  0
   -1.4289   -2.4750    0.0000 C   0  0  0  0  0  0  0  2  0  0  0  0
   -1.4289   -1.6500    0.0000 C   0  0  0  0  0  0  0  2  0  0  0  0
   -0.7145   -1.2375    0.0000 N   0  0  0  0  0  0  0  2  0  0  0  0
   -0.0000   -1.6500    0.0000 C   0  0  0  0  0  0  0  2  0  0  0  0
   -0.0000   -2.4750    0.0000 C   0  0  0  0  0  0  0  2  0  0  0  0
   -0.7145   -2.8875    0.0000 C   0  0  0  0  0  0  0  2  0  0  0  0
   -0.0000   -0.8250    0.0000 H   0  0  0  0  0  0  0  2  0  0  0  0
   -0.7145   -0.4125    0.0000 O   0  0  0  0  0  0  0  2  0  0  0  0
   -0.0000    0.0000    0.0000 S   0  0  0  0  0  0  0  2  0  0  0  0
    0.4125   -0.7145    0.0000 O   0  0  0  0  0  0  0  2  0  0  0  0
   -0.4125    0.7145    0.0000 O   0  0  0  0  0  0  0  2  0  0  0  0
    0.7145    0.4125    0.0000 O   0  0  0  0  0  0  0  2  0  0  0  0
    0.7145    1.2375    0.0000 N   0  0  0  0  0  0  0  2  0  0  0  0
   -0.0000    1.6500    0.0000 C   0  0  0  0  0  0  0  2  0  0  0  0
   -0.0000    2.4750    0.0000 C   0  0  0  0  0  0  0  2  0  0  0  0
    0.7145    2.8875    0.0000 C   0  0  0  0  0  0  0  2  0  0  0  0
    1.4289    2.4750    0.0000 C   0  0  0  0  0  0  0  2  0  0  0  0
    1.4289    1.6500    0.0000 C   0  0  0  0  0  0  0  2  0  0  0  0
    2.1434    1.2375    0.0000 C   0  0  0  0  0  0  0  2  0  0  0  0
    2.8579    1.6500    0.0000 C   0  0  0  0  0  0  0  2  0  0  0  0
    2.8579    2.4750    0.0000 C   0  0  0  0  0  0  0  2  0  0  0  0
    2.1434    2.8875    0.0000 C   0  0  0  0  0  0  0  2  0  0  0  0
    2.1434    3.7125    0.0000 C   0  0  0  0  0  0  0  2  0  0  0  0
    2.8579    4.1250    0.0000 O   0  0  0  0  0  0  0  2  0  0  0  0
    1.4289    4.1250    0.0000 C   0  0  0  0  0  0  0  2  0  0  0  0
    2.1434    0.4125    0.0000 O   0  0  0  0  0  0  0  2  0  0  0  0
   -0.0000    0.8250    0.0000 H   0  0  0  0  0  0  0  2  0  0  0  0
  1  2  1  0        0
  2  3  4  0        0
  3  4  4  0        0
  4  5  4  0        0
  5  6  1  0        0
  6  7  2  0        0
  6  8  1  0        0
  5  9  4  0        0
  9 10  4  0        0
  2 10  4  0        0
 10 11  1  0        0
 11 12  1  0        0
 12 13  1  0        0
 13 14  1  0        0
  9 14  1  0        0
 11 15  1  0        0
 11 16  1  0        0
 16 17  1  0        0
 17 18  2  0        0
 17 19  2  0        0
 17 20  1  0        0
 20 21  1  0        0
 21 22  1  0        0
 22 23  1  0        0
 23 24  1  0        0
 24 25  1  0        0
 25 26  1  0        0
 21 26  1  0        0
 26 27  1  0        0
 27 28  1  0        0
 28 29  1  0        0
 29 30  1  0        0
 25 30  1  0        0
 30 31  1  0        0
 31 32  2  0        0
 31 33  1  0        0
 27 34  1  0        0
 21 35  1  0        0
M  END
$$$$

CDXL12

 13 15  0  0  0  0  0  0  0  0999 V2000
    1.7862    0.0286    0.0000 C   0  0  0  0  0  0  0  2  0  0  0  0
    1.7862   -0.7964    0.0000 C   0  0  0  0  0  0  0  2  0  0  0  0
    1.0717   -1.2089    0.0000 C   0  0  0  0  0  0  0  2  0  0  0  0
    0.3572   -0.7964    0.0000 C   0  0  0  0  0  0  0  2  0  0  0  0
   -0.3572   -1.2089    0.0000 C   0  0  0  0  0  0  0  2  0  0  0  0
   -1.0717   -0.7964    0.0000 C   0  0  0  0  0  0  0  2  0  0  0  0
   -1.0717    0.0286    0.0000 C   0  0  0  0  0  0  0  2  0  0  0  0
   -1.7862    0.4411    0.0000 O   0  0  0  0  0  0  0  2  0  0  0  0
   -0.3572    0.4411    0.0000 N   0  0  0  0  0  0  0  2  0  0  0  0
    0.3572    0.0286    0.0000 C   0  0  0  0  0  0  0  2  0  0  0  0
    1.0717    0.4411    0.0000 C   0  0  0  0  0  0  0  2  0  0  0  0
    0.7697    1.2089    0.0000 C   0  0  0  0  0  0  0  2  0  0  0  0
   -0.0553    1.2089    0.0000 C   0  0  0  0  0  0  0  2  0  0  0  0
  1  2  4  0        0
  2  3  4  0        0
  3  4  4  0        0
  4  5  1  0        0
  5  6  1  0        0
  6  7  1  0        0
  7  8  2  0        0
  7  9  1  0        0
  9 10  1  0        0
  4 10  4  0        0
 10 11  4  0        0
  1 11  4  0        0
 11 12  1  0        0
 12 13  1  0        0
  9 13  1  0        0
M  END
$$$$

CDXL12

 25 26  0  0  0  0  0  0  0  0999 V2000
   -2.1434    0.8250    0.0000 C   0  0  0  0  0  0  0  2  0  0  0  0
   -2.1434    1.6500    0.0000 C   0  0  0  0  0  0  0  2  0  0  0  0
   -2.8579    2.0625    0.0000 C   0  0  0  0  0  0  0  2  0  0  0  0
   -3.5724    1.6500    0.0000 C   0  0  0  0  0  0  0  2  0  0  0  0
   -3.5724    0.8250    0.0000 C   0  0  0  0  0  0  0  2  0  0  0  0
   -2.8579    0.4125    0.0000 C   0  0  0  0  0  0  0  2  0  0  0  0
   -2.8579   -0.4125    0.0000 N   0  0  0  0  0  0  0  2  0  0  0  0
   -3.5724   -0.8250    0.0000 C   0  0  0  0  0  0  0  2  0  0  0  0
   -4.2868   -0.4125    0.0000 C   0  0  0  0  0  0  0  2  0  0  0  0
   -2.1434   -0.8250    0.0000 C   0  0  0  0  0  0  0  2  0  0  0  0
   -2.1434   -1.6500    0.0000 O   0  0  0  0  0  0  0  2  0  0  0  0
   -1.4289   -0.4125    0.0000 O   0  0  0  0  0  0  0  2  0  0  0  0
   -0.7145   -0.8250    0.0000 C   0  0  0  0  0  0  0  2  0  0  0  0
   -0.7145   -1.6500    0.0000 C   0  0  0  0  0  0  0  2  0  0  0  0
    0.0000   -2.0625    0.0000 C   0  0  0  0  0  0  0  2  0  0  0  0
    0.7145   -1.6500    0.0000 C   0  0  0  0  0  0  0  2  0  0  0  0
    0.7145   -0.8250    0.0000 C   0  0  0  0  0  0  0  2  0  0  0  0
    1.4289   -0.4125    0.0000 N   0  0  0  0  0  0  0  2  0  0  0  0
    2.1434   -0.8250    0.0000 C   0  0  0  0  0  0  0  2  0  0  0  0
    2.1434   -1.6500    0.0000 O   0  0  0  0  0  0  0  2  0  0  0  0
    2.8579   -0.4125    0.0000 O   0  0  0  0  0  0  0  2  0  0  0  0
    3.5724   -0.8250    0.0000 C   0  0  0  0  0  0  0  2  0  0  0  0
    4.2868   -0.4125    0.0000 C   0  0  0  0  0  0  0  2  0  0  0  0
    3.5724   -1.6500    0.0000 C   0  0  0  0  0  0  0  2  0  0  0  0
    0.0000   -0.4125    0.0000 C   0  0  0  0  0  0  0  2  0  0  0  0
  1  2  4  0        0
  2  3  4  0        0
  3  4  4  0        0
  4  5  4  0        0
  5  6  4  0        0
  1  6  4  0        0
  6  7  1  0        0
  7  8  1  0        0
  8  9  1  0        0
  7 10  1  0        0
 10 11  2  0        0
 10 12  1  0        0
 12 13  1  0        0
 13 14  4  0        0
 14 15  4  0        0
 15 16  4  0        0
 16 17  4  0        0
 17 18  1  0        0
 18 19  1  0        0
 19 20  2  0        0
 19 21  1  0        0
 21 22  1  0        0
 22 23  1  0        0
 22 24  1  0        0
 17 25  4  0        0
 13 25  4  0        0
M  END
$$$$

CDXL12

 17 18  0  0  0  0  0  0  0  0999 V2000
    2.5006    1.0312    0.0000 Cl  0  0  0  0  0  0  0  2  0  0  0  0
    1.7862    0.6187    0.0000 C   0  0  0  0  0  0  0  2  0  0  0  0
    1.7862   -0.2063    0.0000 C   0  0  0  0  0  0  0  2  0  0  0  0
    1.0717   -0.6187    0.0000 C   0  0  0  0  0  0  0  2  0  0  0  0
    0.3572   -0.2063    0.0000 C   0  0  0  0  0  0  0  2  0  0  0  0
    0.3572    0.6187    0.0000 C   0  0  0  0  0  0  0  2  0  0  0  0
    1.0717    1.0312    0.0000 C   0  0  0  0  0  0  0  2  0  0  0  0
    1.0717    1.8562    0.0000 Cl  0  0  0  0  0  0  0  2  0  0  0  0
   -0.3572   -0.6187    0.0000 C   0  0  0  0  0  0  0  2  0  0  0  0
   -0.3572   -1.4437    0.0000 C   0  0  0  0  0  0  0  2  0  0  0  0
   -1.0717   -1.8562    0.0000 C   0  0  0  0  0  0  0  2  0  0  0  0
   -1.7862   -1.4437    0.0000 C   0  0  0  0  0  0  0  2  0  0  0  0
   -1.7862   -0.6187    0.0000 C   0  0  0  0  0  0  0  2  0  0  0  0
   -1.0717   -0.2063    0.0000 C   0  0  0  0  0  0  0  2  0  0  0  0
   -2.5006   -0.2063    0.0000 Cl  0  0  0  0  0  0  0  2  0  0  0  0
   -2.5006   -1.8562    0.0000 Cl  0  0  0  0  0  0  0  2  0  0  0  0
    2.5006   -0.6188    0.0000 Cl  0  0  0  0  0  0  0  2  0  0  0  0
  1  2  1  0        0
  2  3  4  0        0
  3  4  4  0        0
  4  5  4  0        0
  5  6  4  0        0
  6  7  4  0        0
  2  7  4  0        0
  7  8  1  0        0
  5  9  1  0        0
  9 10  4  0        0
 10 11  4  0        0
 11 12  4  0        0
 12 13  4  0        0
 13 14  4  0        0
  9 14  4  0        0
 13 15  1  0        0
 12 16  1  0        0
  3 17  1  0        0
M  END
$$$$

CDXL12

 22 23  0  0  0  0  0  0  0  0999 V2000
    2.5006    0.3965    0.0000 C   0  0  0  0  0  0  0  2  0  0  0  0
    1.7862   -0.0160    0.0000 O   0  0  0  0  0  0  0  2  0  0  0  0
    1.0717    0.3965    0.0000 C   0  0  0  0  0  0  0  2  0  0  0  0
    1.0717    1.2215    0.0000 O   0  0  0  0  0  0  0  2  0  0  0  0
    0.3572   -0.0160    0.0000 C   0  0  0  0  0  0  0  2  0  0  0  0
   -0.3572    0.3965    0.0000 C   0  0  0  0  0  0  0  2  0  0  0  0
   -1.0717   -0.0160    0.0000 N   0  0  0  0  0  0  0  2  0  0  0  0
   -1.0717   -0.8410    0.0000 C   0  0  0  0  0  0  0  2  0  0  0  0
   -0.3572   -1.2535    0.0000 C   0  0  0  0  0  0  0  2  0  0  0  0
    0.3572   -0.8410    0.0000 C   0  0  0  0  0  0  0  2  0  0  0  0
   -0.3572   -2.0785    0.0000 C   0  0  0  0  0  0  0  2  0  0  0  0
   -1.0717   -2.4910    0.0000 C   0  0  0  0  0  0  0  2  0  0  0  0
   -1.7862   -2.0785    0.0000 C   0  0  0  0  0  0  0  2  0  0  0  0
   -1.7862   -1.2535    0.0000 C   0  0  0  0  0  0  0  2  0  0  0  0
   -2.5006   -0.8410    0.0000 C   0  0  0  0  0  0  0  2  0  0  0  0
   -1.7862    0.3965    0.0000 C   0  0  0  0  0  0  0  2  0  0  0  0
   -2.5006   -0.0160    0.0000 O   0  0  0  0  0  0  0  2  0  0  0  0
   -1.7862    1.2215    0.0000 C   0  0  0  0  0  0  0  2  0  0  0  0
   -1.1187    1.7064    0.0000 O   0  0  0  0  0  0  0  2  0  0  0  0
   -1.3737    2.4910    0.0000 C   0  0  0  0  0  0  0  2  0  0  0  0
   -2.1987    2.4910    0.0000 C   0  0  0  0  0  0  0  2  0  0  0  0
   -2.4536    1.7064    0.0000 C   0  0  0  0  0  0  0  2  0  0  0  0
  1  2  1  0        0
  2  3  1  0        0
  3  4  2  0        0
  3  5  1  0        0
  5  6  1  0        0
  6  7  1  0        0
  7  8  1  0        0
  8  9  4  0        0
  9 10  1  0        0
  9 11  4  0        0
 11 12  4  0        0
 12 13  4  0        0
 13 14  4  0        0
  8 14  4  0        0
 14 15  1  0        0
  7 16  1  0        0
 16 17  2  0        0
 16 18  1  0        0
 18 19  4  0        0
 19 20  4  0        0
 20 21  4  0        0
 21 22  4  0        0
 18 22  4  0        0
M  END
$$$$

CDXL12

 20 20  0  0  0  0  0  0  0  0999 V2000
   -2.1434   -0.0000    0.0000 C   0  0  0  0  0  0  0  2  0  0  0  0
   -1.4289    0.4125    0.0000 O   0  0  0  0  0  0  0  2  0  0  0  0
   -0.7145   -0.0000    0.0000 C   0  0  0  0  0  0  0  2  0  0  0  0
    0.0000    0.4125    0.0000 C   0  0  0  0  0  0  0  2  0  0  0  0
    0.0000    1.2375    0.0000 O   0  0  0  0  0  0  0  2  0  0  0  0
    0.7145   -0.0000    0.0000 N   0  0  0  0  0  0  0  2  0  0  0  0
    1.4289    0.4125    0.0000 C   0  0  0  0  0  0  0  2  0  0  0  0
    2.1434   -0.0000    0.0000 C   0  0  0  0  0  0  0  2  0  0  0  0
    1.4289    1.2375    0.0000 C   0  0  0  0  0  0  0  2  0  0  0  0
    0.7145    1.6500    0.0000 O   0  0  0  0  0  0  0  2  0  0  0  0
    2.1434    1.6500    0.0000 O   0  0  0  0  0  0  0  2  0  0  0  0
    2.1434    2.4750    0.0000 C   0  0  0  0  0  0  0  2  0  0  0  0
    0.7145   -0.8250    0.0000 C   0  0  0  0  0  0  0  2  0  0  0  0
    1.4289   -1.2375    0.0000 C   0  0  0  0  0  0  0  2  0  0  0  0
    2.1434   -0.8250    0.0000 C   0  0  0  0  0  0  0  2  0  0  0  0
    1.4289   -2.0625    0.0000 C   0  0  0  0  0  0  0  2  0  0  0  0
    0.7145   -2.4750    0.0000 C   0  0  0  0  0  0  0  2  0  0  0  0
    0.0000   -2.0625    0.0000 C   0  0  0  0  0  0  0  2  0  0  0  0
    0.0000   -1.2375    0.0000 C   0  0  0  0  0  0  0  2  0  0  0  0
   -0.7145   -0.8250    0.0000 C   0  0  0  0  0  0  0  2  0  0  0  0
  1  2  1  0        0
  2  3  1  0        0
  3  4  1  0        0
  4  5  2  0        0
  4  6  1  0        0
  6  7  1  0        0
  7  8  1  0        0
  7  9  1  0        0
  9 10  2  0        0
  9 11  1  0        0
 11 12  1  0        0
  6 13  1  0        0
 13 14  4  0        0
 14 15  1  0        0
 14 16  4  0        0
 16 17  4  0        0
 17 18  4  0        0
 18 19  4  0        0
 13 19  4  0        0
 19 20  1  0        0
M  END
$$$$

CDXL12

 14 13  0  0  0  0  0  0  0  0999 V2000
    1.0717   -1.4437    0.0000 O   0  0  0  0  0  0  0  2  0  0  0  0
    1.0717   -0.6187    0.0000 C   0  0  0  0  0  0  0  2  0  0  0  0
    1.7862   -0.2062    0.0000 N   0  0  0  0  0  0  0  2  0  0  0  0
    2.5006   -0.6187    0.0000 C   0  0  0  0  0  0  0  2  0  0  0  0
    3.2151   -0.2062    0.0000 C   0  0  0  0  0  0  0  2  0  0  0  0
    0.3572   -0.2062    0.0000 N   0  0  0  0  0  0  0  2  0  0  0  0
   -0.3572   -0.6187    0.0000 C   0  0  0  0  0  0  0  2  0  0  0  0
   -0.3572   -1.4438    0.0000 O   0  0  0  0  0  0  0  2  0  0  0  0
   -1.0717   -0.2062    0.0000 C   0  0  0  0  0  0  0  2  0  0  0  0
   -1.7862   -0.6187    0.0000 N   0  0  0  0  0  0  0  2  0  0  0  0
   -2.5006   -0.2062    0.0000 O   0  0  0  0  0  0  0  2  0  0  0  0
   -3.2151   -0.6187    0.0000 C   0  0  0  0  0  0  0  2  0  0  0  0
   -1.0717    0.6188    0.0000 C   0  0  0  0  0  0  0  2  0  0  0  0
   -1.0717    1.4438    0.0000 N   0  0  0  0  0  0  0  2  0  0  0  0
  1  2  2  0        0
  2  3  1  0        0
  3  4  1  0        0
  4  5  1  0        0
  2  6  1  0        0
  6  7  1  0        0
  7  8  2  0        0
  7  9  1  0        0
  9 10  2  0        0
 10 11  1  0        0
 11 12  1  0        0
  9 13  1  0        0
 13 14  3  0        0
M  END
$$$$

CDXL12

 16 17  0  0  0  0  0  0  0  0999 V2000
   -0.3572    1.8562    0.0000 Cl  0  0  0  0  0  0  0  2  0  0  0  0
    0.3572    1.4437    0.0000 C   0  0  0  0  0  0  0  2  0  0  0  0
    1.0717    1.8562    0.0000 Cl  0  0  0  0  0  0  0  2  0  0  0  0
    0.3572    2.2687    0.0000 Cl  0  0  0  0  0  0  0  2  0  0  0  0
    0.3572    0.6187    0.0000 C   0  0  0  0  0  0  0  2  0  0  0  0
    1.0717    0.2062    0.0000 C   0  0  0  0  0  0  0  2  0  0  0  0
    1.7862   -0.2063    0.0000 O   0  0  0  0  0  0  0  2  0  0  0  0
    1.7862    0.6187    0.0000 C   0  0  0  0  0  0  0  2  0  0  0  0
    0.3572   -0.2063    0.0000 C   0  0  0  0  0  0  0  2  0  0  0  0
    0.3572   -1.0313    0.0000 C   0  0  0  0  0  0  0  2  0  0  0  0
   -0.3572   -1.4437    0.0000 C   0  0  0  0  0  0  0  2  0  0  0  0
   -0.3572   -2.2687    0.0000 Cl  0  0  0  0  0  0  0  2  0  0  0  0
   -1.0717   -1.0313    0.0000 C   0  0  0  0  0  0  0  2  0  0  0  0
   -1.0717   -0.2063    0.0000 C   0  0  0  0  0  0  0  2  0  0  0  0
   -1.7862    0.2062    0.0000 Cl  0  0  0  0  0  0  0  2  0  0  0  0
   -0.3572    0.2062    0.0000 C   0  0  0  0  0  0  0  2  0  0  0  0
  1  2  1  0        0
  2  3  1  0        0
  2  4  1  0        0
  2  5  1  0        0
  5  6  1  0        0
  6  7  1  0        0
  7  8  1  0        0
  6  8  1  0        0
  6  9  1  0        0
  9 10  4  0        0
 10 11  4  0        0
 11 12  1  0        0
 11 13  4  0        0
 13 14  4  0        0
 14 15  1  0        0
 14 16  4  0        0
  9 16  4  0        0
M  END
$$$$

CDXL12

 20 23  0  0  0  0  0  0  0  0999 V2000
   -2.8579   -1.4438    0.0000 C   0  0  0  0  0  0  0  2  0  0  0  0
   -2.1434   -1.0313    0.0000 C   0  0  0  0  0  0  0  2  0  0  0  0
   -1.4289   -1.4438    0.0000 C   0  0  0  0  0  0  0  2  0  0  0  0
   -0.7145   -1.0313    0.0000 C   0  0  0  0  0  0  0  2  0  0  0  0
   -0.7145   -0.2062    0.0000 C   0  0  0  0  0  0  0  2  0  0  0  0
    0.0000    0.2062    0.0000 C   0  0  0  0  0  0  0  2  0  0  0  0
    0.7145   -0.2062    0.0000 C   0  0  0  0  0  0  0  2  0  0  0  0
    0.7145   -1.0312    0.0000 C   0  0  0  0  0  0  0  2  0  0  0  0
    0.0000   -1.4438    0.0000 C   0  0  0  0  0  0  0  2  0  0  0  0
    1.4289   -1.4438    0.0000 C   0  0  0  0  0  0  0  2  0  0  0  0
    2.1434   -1.0313    0.0000 C   0  0  0  0  0  0  0  2  0  0  0  0
    2.1434   -0.2062    0.0000 C   0  0  0  0  0  0  0  2  0  0  0  0
    1.4289    0.2062    0.0000 C   0  0  0  0  0  0  0  2  0  0  0  0
    1.4289    1.0313    0.0000 C   0  0  0  0  0  0  0  2  0  0  0  0
    2.1434    1.4438    0.0000 C   0  0  0  0  0  0  0  2  0  0  0  0
    2.8579    1.0313    0.0000 C   0  0  0  0  0  0  0  2  0  0  0  0
    2.8579    0.2062    0.0000 C   0  0  0  0  0  0  0  2  0  0  0  0
   -1.4289    0.2062    0.0000 C   0  0  0  0  0  0  0  2  0  0  0  0
   -2.1434   -0.2063    0.0000 C   0  0  0  0  0  0  0  2  0  0  0  0
   -2.8579    0.2062    0.0000 C   0  0  0  0  0  0  0  2  0  0  0  0
  1  2  1  0        0
  2  3  4  0        0
  3  4  4  0        0
  4  5  4  0        0
  5  6  4  0        0
  6  7  4  0        0
  7  8  4  0        0
  8  9  4  0        0
  4  9  4  0        0
  8 10  4  0        0
 10 11  4  0        0
 11 12  4  0        0
 12 13  4  0        0
  7 13  4  0        0
 13 14  4  0        0
 14 15  4  0        0
 15 16  4  0        0
 16 17  4  0        0
 12 17  4  0        0
  5 18  4  0        0
 18 19  4  0        0
  2 19  4  0        0
 19 20  1  0        0
M  END
$$$$

CDXL12

 15 16  0  0  0  0  0  0  0  0999 V2000
    0.9838    1.2381    0.0000 N   0  0  0  0  0  0  0  2  0  0  0  0
    1.6757    0.7888    0.0000 C   0  0  0  0  0  0  0  2  0  0  0  0
    2.4459    1.0844    0.0000 S   0  0  0  0  0  0  0  2  0  0  0  0
    1.4622   -0.0081    0.0000 N   0  0  0  0  0  0  0  2  0  0  0  0
    0.6383   -0.0513    0.0000 C   0  0  0  0  0  0  0  2  0  0  0  0
    0.3427    0.7189    0.0000 C   0  0  0  0  0  0  0  2  0  0  0  0
   -0.4542    0.9324    0.0000 C   0  0  0  0  0  0  0  2  0  0  0  0
   -1.0376    0.3491    0.0000 C   0  0  0  0  0  0  0  2  0  0  0  0
   -1.0376   -0.4759    0.0000 N   0  0  0  0  0  0  0  2  0  0  0  0
   -1.3533   -1.2381    0.0000 C   0  0  0  0  0  0  0  2  0  0  0  0
   -0.4542   -1.0593    0.0000 C   0  0  0  0  0  0  0  2  0  0  0  0
   -0.2754   -0.1602    0.0000 C   0  0  0  0  0  0  0  2  0  0  0  0
   -1.8626   -0.4759    0.0000 O   0  0  0  0  0  0  0  2  0  0  0  0
   -1.8626    0.3491    0.0000 C   0  0  0  0  0  0  0  2  0  0  0  0
   -2.4459    0.9324    0.0000 O   0  0  0  0  0  0  0  2  0  0  0  0
  1  2  4  0        0
  2  3  1  0        0
  2  4  4  0        0
  4  5  4  0        0
  5  6  4  0        0
  1  6  4  0        0
  6  7  1  0        0
  7  8  1  0        0
  8  9  1  0        0
  9 10  1  0        0
  9 11  1  0        0
  9 12  1  0        0
  9 13  1  0        0
 13 14  1  0        0
  8 14  1  0        0
 14 15  2  0        0
M  END
$$$$

CDXL12

 19 20  0  0  0  0  0  0  0  0999 V2000
   -1.3673   -0.4800    0.0000 C   0  0  0  0  0  0  0  2  0  0  0  0
   -0.6529   -0.8925    0.0000 C   0  0  0  0  0  0  0  2  0  0  0  0
   -0.6529   -1.7175    0.0000 C   0  0  0  0  0  0  0  2  0  0  0  0
    0.0616   -2.1300    0.0000 C   0  0  0  0  0  0  0  2  0  0  0  0
    0.7761   -1.7175    0.0000 C   0  0  0  0  0  0  0  2  0  0  0  0
    0.7761   -0.8925    0.0000 C   0  0  0  0  0  0  0  2  0  0  0  0
    1.4906   -0.4800    0.0000 C   0  0  0  0  0  0  0  2  0  0  0  0
    0.0616   -0.4800    0.0000 C   0  0  0  0  0  0  0  2  0  0  0  0
    0.0616    0.3450    0.0000 N   0  0  0  0  0  0  0  2  0  0  0  0
   -0.6529    0.7575    0.0000 C   0  0  0  0  0  0  0  2  0  0  0  0
   -0.6529    1.5825    0.0000 O   0  0  0  0  0  0  0  2  0  0  0  0
   -1.3673    0.3450    0.0000 C   0  0  0  0  0  0  0  2  0  0  0  0
   -2.0818    0.7575    0.0000 Cl  0  0  0  0  0  0  0  2  0  0  0  0
    0.7761    0.7575    0.0000 C   0  0  0  0  0  0  0  2  0  0  0  0
    0.8623    1.5780    0.0000 C   0  0  0  0  0  0  0  2  0  0  0  0
    0.2492    2.1300    0.0000 O   0  0  0  0  0  0  0  2  0  0  0  0
    1.6693    1.7495    0.0000 O   0  0  0  0  0  0  0  2  0  0  0  0
    2.0818    1.0350    0.0000 C   0  0  0  0  0  0  0  2  0  0  0  0
    1.5298    0.4219    0.0000 C   0  0  0  0  0  0  0  2  0  0  0  0
  1  2  1  0        0
  2  3  4  0        0
  3  4  4  0        0
  4  5  4  0        0
  5  6  4  0        0
  6  7  1  0        0
  6  8  4  0        0
  2  8  4  0        0
  8  9  1  0        0
  9 10  1  0        0
 10 11  2  0        0
 10 12  1  0        0
 12 13  1  0        0
  9 14  1  0        0
 14 15  1  0        0
 15 16  2  0        0
 15 17  1  0        0
 17 18  1  0        0
 18 19  1  0        0
 14 19  1  0        0
M  END
$$$$

CDXL12

 15 16  0  0  0  0  0  0  0  0999 V2000
   -2.1434   -1.4437    0.0000 Br  0  0  0  0  0  0  0  2  0  0  0  0
   -1.4289   -1.0312    0.0000 C   0  0  0  0  0  0  0  2  0  0  0  0
   -1.4289   -0.2062    0.0000 C   0  0  0  0  0  0  0  2  0  0  0  0
   -0.7145    0.2063    0.0000 C   0  0  0  0  0  0  0  2  0  0  0  0
   -0.7145    1.0313    0.0000 Br  0  0  0  0  0  0  0  2  0  0  0  0
    0.0000   -0.2063    0.0000 C   0  0  0  0  0  0  0  2  0  0  0  0
    0.0000   -1.0312    0.0000 C   0  0  0  0  0  0  0  2  0  0  0  0
    0.7145   -1.4437    0.0000 Br  0  0  0  0  0  0  0  2  0  0  0  0
   -0.7145   -1.4437    0.0000 C   0  0  0  0  0  0  0  2  0  0  0  0
    0.7145    0.2062    0.0000 C   0  0  0  0  0  0  0  2  0  0  0  0
    0.7145    1.0312    0.0000 C   0  0  0  0  0  0  0  2  0  0  0  0
    1.4289    1.4437    0.0000 C   0  0  0  0  0  0  0  2  0  0  0  0
    2.1434    1.0312    0.0000 C   0  0  0  0  0  0  0  2  0  0  0  0
    2.1434    0.2063    0.0000 C   0  0  0  0  0  0  0  2  0  0  0  0
    1.4289   -0.2063    0.0000 C   0  0  0  0  0  0  0  2  0  0  0  0
  1  2  1  0        0
  2  3  4  0        0
  3  4  4  0        0
  4  5  1  0        0
  4  6  4  0        0
  6  7  4  0        0
  7  8  1  0        0
  7  9  4  0        0
  2  9  4  0        0
  6 10  1  0        0
 10 11  4  0        0
 11 12  4  0        0
 12 13  4  0        0
 13 14  4  0        0
 14 15  4  0        0
 10 15  4  0        0
M  END
$$$$

CDXL12

 18 19  0  0  0  0  0  0  0  0999 V2000
   -1.0717    0.6188    0.0000 Cl  0  0  0  0  0  0  0  2  0  0  0  0
   -1.0717   -0.2062    0.0000 C   0  0  0  0  0  0  0  2  0  0  0  0
   -0.3572   -0.6188    0.0000 C   0  0  0  0  0  0  0  2  0  0  0  0
   -0.3572   -1.4438    0.0000 C   0  0  0  0  0  0  0  2  0  0  0  0
   -1.0717   -1.8562    0.0000 C   0  0  0  0  0  0  0  2  0  0  0  0
   -1.7862   -1.4438    0.0000 C   0  0  0  0  0  0  0  2  0  0  0  0
   -1.7862   -0.6188    0.0000 C   0  0  0  0  0  0  0  2  0  0  0  0
   -2.5006   -1.8562    0.0000 Cl  0  0  0  0  0  0  0  2  0  0  0  0
    0.3572   -1.8563    0.0000 Cl  0  0  0  0  0  0  0  2  0  0  0  0
    0.3572   -0.2062    0.0000 C   0  0  0  0  0  0  0  2  0  0  0  0
    1.0717   -0.6188    0.0000 C   0  0  0  0  0  0  0  2  0  0  0  0
    1.7862   -0.2063    0.0000 C   0  0  0  0  0  0  0  2  0  0  0  0
    1.7862    0.6187    0.0000 C   0  0  0  0  0  0  0  2  0  0  0  0
    1.0717    1.0313    0.0000 C   0  0  0  0  0  0  0  2  0  0  0  0
    0.3572    0.6188    0.0000 C   0  0  0  0  0  0  0  2  0  0  0  0
    1.0717    1.8563    0.0000 Cl  0  0  0  0  0  0  0  2  0  0  0  0
    2.5006    1.0312    0.0000 Cl  0  0  0  0  0  0  0  2  0  0  0  0
    2.5006   -0.6188    0.0000 Cl  0  0  0  0  0  0  0  2  0  0  0  0
  1  2  1  0        0
  2  3  4  0        0
  3  4  4  0        0
  4  5  4  0        0
  5  6  4  0        0
  6  7  4  0        0
  2  7  4  0        0
  6  8  1  0        0
  4  9  1  0        0
  3 10  1  0        0
 10 11  4  0        0
 11 12  4  0        0
 12 13  4  0        0
 13 14  4  0        0
 14 15  4  0        0
 10 15  4  0        0
 14 16  1  0        0
 13 17  1  0        0
 12 18  1  0        0
M  END
$$$$

CDXL12

 21 20  0  0  0  0  0  0  0  0999 V2000
   -3.5724   -1.0313    0.0000 C   0  0  0  0  0  0  0  2  0  0  0  0
   -3.5724   -0.2062    0.0000 C   0  0  0  0  0  0  0  2  0  0  0  0
   -4.2868    0.2062    0.0000 S   0  0  0  0  0  0  0  2  0  0  0  0
   -5.0013   -0.2062    0.0000 C   0  0  0  0  0  0  0  2  0  0  0  0
   -2.8579    0.2062    0.0000 N   0  0  0  0  0  0  0  2  0  0  0  0
   -2.1434   -0.2062    0.0000 O   0  0  0  0  0  0  0  2  0  0  0  0
   -1.4289    0.2062    0.0000 C   0  0  0  0  0  0  0  2  0  0  0  0
   -1.4289    1.0313    0.0000 O   0  0  0  0  0  0  0  2  0  0  0  0
   -0.7145   -0.2062    0.0000 N   0  0  0  0  0  0  0  2  0  0  0  0
   -0.7145   -1.0313    0.0000 C   0  0  0  0  0  0  0  2  0  0  0  0
    0.0000    0.2062    0.0000 S   0  0  0  0  0  0  0  2  0  0  0  0
    0.7145   -0.2062    0.0000 N   0  0  0  0  0  0  0  2  0  0  0  0
    0.7145   -1.0313    0.0000 C   0  0  0  0  0  0  0  2  0  0  0  0
    1.4289    0.2062    0.0000 C   0  0  0  0  0  0  0  2  0  0  0  0
    1.4289    1.0312    0.0000 O   0  0  0  0  0  0  0  2  0  0  0  0
    2.1434   -0.2062    0.0000 O   0  0  0  0  0  0  0  2  0  0  0  0
    2.8579    0.2062    0.0000 N   0  0  0  0  0  0  0  2  0  0  0  0
    3.5724   -0.2062    0.0000 C   0  0  0  0  0  0  0  2  0  0  0  0
    4.2868    0.2062    0.0000 S   0  0  0  0  0  0  0  2  0  0  0  0
    5.0013   -0.2062    0.0000 C   0  0  0  0  0  0  0  2  0  0  0  0
    3.5724   -1.0313    0.0000 C   0  0  0  0  0  0  0  2  0  0  0  0
  1  2  1  0        0
  2  3  1  0        0
  3  4  1  0        0
  2  5  2  0        0
  5  6  1  0        0
  6  7  1  0        0
  7  8  2  0        0
  7  9  1  0        0
  9 10  1  0        0
  9 11  1  0        0
 11 12  1  0        0
 12 13  1  0        0
 12 14  1  0        0
 14 15  2  0        0
 14 16  1  0        0
 16 17  1  0        0
 17 18  2  0        0
 18 19  1  0        0
 19 20  1  0        0
 18 21  1  0        0
M  END
$$$$

CDXL12

 18 17  0  0  0  0  0  0  0  0999 V2000
   -3.5724   -1.6500    0.0000 O   0  0  0  0  0  0  0  2  0  0  0  0
   -3.5724   -0.8250    0.0000 N   0  0  0  0  0  0  0  2  0  0  0  0
   -4.2868   -0.4125    0.0000 O   0  0  0  0  0  0  0  2  0  0  0  0
   -2.8579   -0.4125    0.0000 O   0  0  0  0  0  0  0  2  0  0  0  0
   -2.1434   -0.8250    0.0000 C   0  0  0  0  0  0  0  2  0  0  0  0
   -1.4289   -0.4125    0.0000 C   0  0  0  0  0  0  0  2  0  0  0  0
   -1.4289    0.4125    0.0000 O   0  0  0  0  0  0  0  2  0  0  0  0
   -2.1434    0.8250    0.0000 N   0  0  0  0  0  0  0  2  0  0  0  0
   -2.1434    1.6500    0.0000 O   0  0  0  0  0  0  0  2  0  0  0  0
   -2.8579    0.4125    0.0000 O   0  0  0  0  0  0  0  2  0  0  0  0
   -0.7145   -0.8250    0.0000 C   0  0  0  0  0  0  0  2  0  0  0  0
    0.0000   -0.4125    0.0000 C   0  0  0  0  0  0  0  2  0  0  0  0
    0.7145   -0.8250    0.0000 C   0  0  0  0  0  0  0  2  0  0  0  0
    1.4289   -0.4125    0.0000 C   0  0  0  0  0  0  0  2  0  0  0  0
    2.1434   -0.8250    0.0000 C   0  0  0  0  0  0  0  2  0  0  0  0
    2.8579   -0.4125    0.0000 C   0  0  0  0  0  0  0  2  0  0  0  0
    3.5724   -0.8250    0.0000 C   0  0  0  0  0  0  0  2  0  0  0  0
    4.2868   -0.4125    0.0000 C   0  0  0  0  0  0  0  2  0  0  0  0
  1  2  2  0        0
  2  3  2  0        0
  2  4  1  0        0
  4  5  1  0        0
  5  6  1  0        0
  6  7  1  0        0
  7  8  1  0        0
  8  9  2  0        0
  8 10  2  0        0
  6 11  1  0        0
 11 12  1  0        0
 12 13  1  0        0
 13 14  1  0        0
 14 15  1  0        0
 15 16  1  0        0
 16 17  1  0        0
 17 18  1  0        0
M  END
$$$$

CDXL12

 18 19  0  0  0  0  0  0  0  0999 V2000
    0.3572   -1.4438    0.0000 Cl  0  0  0  0  0  0  0  2  0  0  0  0
   -0.3572   -1.0313    0.0000 C   0  0  0  0  0  0  0  2  0  0  0  0
   -1.0717   -1.4437    0.0000 C   0  0  0  0  0  0  0  2  0  0  0  0
   -1.7862   -1.0313    0.0000 C   0  0  0  0  0  0  0  2  0  0  0  0
   -1.7862   -0.2062    0.0000 C   0  0  0  0  0  0  0  2  0  0  0  0
   -1.0717    0.2062    0.0000 C   0  0  0  0  0  0  0  2  0  0  0  0
   -0.3572   -0.2062    0.0000 C   0  0  0  0  0  0  0  2  0  0  0  0
    0.3572    0.2062    0.0000 C   0  0  0  0  0  0  0  2  0  0  0  0
    0.3572    1.0313    0.0000 C   0  0  0  0  0  0  0  2  0  0  0  0
    1.0717    1.4438    0.0000 C   0  0  0  0  0  0  0  2  0  0  0  0
    1.7862    1.0313    0.0000 C   0  0  0  0  0  0  0  2  0  0  0  0
    1.7862    0.2062    0.0000 C   0  0  0  0  0  0  0  2  0  0  0  0
    1.0717   -0.2062    0.0000 C   0  0  0  0  0  0  0  2  0  0  0  0
    2.5006   -0.2062    0.0000 Cl  0  0  0  0  0  0  0  2  0  0  0  0
    2.5006    1.4438    0.0000 Cl  0  0  0  0  0  0  0  2  0  0  0  0
   -0.3572    1.4438    0.0000 Cl  0  0  0  0  0  0  0  2  0  0  0  0
   -1.0717    1.0313    0.0000 Cl  0  0  0  0  0  0  0  2  0  0  0  0
   -2.5006   -1.4437    0.0000 Cl  0  0  0  0  0  0  0  2  0  0  0  0
  1  2  1  0        0
  2  3  4  0        0
  3  4  4  0        0
  4  5  4  0        0
  5  6  4  0        0
  6  7  4  0        0
  2  7  4  0        0
  7  8  1  0        0
  8  9  4  0        0
  9 10  4  0        0
 10 11  4  0        0
 11 12  4  0        0
 12 13  4  0        0
  8 13  4  0        0
 12 14  1  0        0
 11 15  1  0        0
  9 16  1  0        0
  6 17  1  0        0
  4 18  1  0        0
M  END
$$$$

CDXL12

 19 20  0  0  0  0  0  0  0  0999 V2000
    1.0717    1.8562    0.0000 Cl  0  0  0  0  0  0  0  2  0  0  0  0
    1.0717    1.0312    0.0000 C   0  0  0  0  0  0  0  2  0  0  0  0
    1.7862    0.6187    0.0000 C   0  0  0  0  0  0  0  2  0  0  0  0
    1.7862   -0.2063    0.0000 C   0  0  0  0  0  0  0  2  0  0  0  0
    1.0717   -0.6187    0.0000 C   0  0  0  0  0  0  0  2  0  0  0  0
    0.3572   -0.2063    0.0000 C   0  0  0  0  0  0  0  2  0  0  0  0
    0.3572    0.6187    0.0000 C   0  0  0  0  0  0  0  2  0  0  0  0
   -0.3572    1.0312    0.0000 Cl  0  0  0  0  0  0  0  2  0  0  0  0
   -0.3572   -0.6187    0.0000 C   0  0  0  0  0  0  0  2  0  0  0  0
   -0.3572   -1.4437    0.0000 C   0  0  0  0  0  0  0  2  0  0  0  0
   -1.0717   -1.8562    0.0000 C   0  0  0  0  0  0  0  2  0  0  0  0
   -1.7862   -1.4437    0.0000 C   0  0  0  0  0  0  0  2  0  0  0  0
   -1.7862   -0.6187    0.0000 C   0  0  0  0  0  0  0  2  0  0  0  0
   -1.0717   -0.2063    0.0000 C   0  0  0  0  0  0  0  2  0  0  0  0
   -1.0717    0.6187    0.0000 Cl  0  0  0  0  0  0  0  2  0  0  0  0
   -2.5006   -1.8562    0.0000 Cl  0  0  0  0  0  0  0  2  0  0  0  0
    0.3572   -1.8562    0.0000 Cl  0  0  0  0  0  0  0  2  0  0  0  0
    2.5006   -0.6188    0.0000 Cl  0  0  0  0  0  0  0  2  0  0  0  0
    2.5006    1.0312    0.0000 Cl  0  0  0  0  0  0  0  2  0  0  0  0
  1  2  1  0        0
  2  3  4  0        0
  3  4  4  0        0
  4  5  4  0        0
  5  6  4  0        0
  6  7  4  0        0
  2  7  4  0        0
  7  8  1  0        0
  6  9  1  0        0
  9 10  4  0        0
 10 11  4  0        0
 11 12  4  0        0
 12 13  4  0        0
 13 14  4  0        0
  9 14  4  0        0
 14 15  1  0        0
 12 16  1  0        0
 10 17  1  0        0
  4 18  1  0        0
  3 19  1  0        0
M  END
$$$$

CDXL12

 22 24  0  0  0  0  0  0  0  0999 V2000
    1.4289   -2.4750    0.0000 N   0  0  0  0  0  0  0  2  0  0  0  0
    0.7145   -2.0625    0.0000 C   0  0  0  0  0  0  0  2  0  0  0  0
    0.7145   -1.2375    0.0000 C   0  0  0  0  0  0  0  2  0  0  0  0
    0.0000   -0.8250    0.0000 C   0  0  0  0  0  0  0  2  0  0  0  0
   -0.7145   -0.4125    0.0000 O   0  0  0  0  0  0  0  2  0  0  0  0
    0.0000    0.0000    0.0000 C   0  0  0  0  0  0  0  2  0  0  0  0
   -0.7145    0.4125    0.0000 C   0  0  0  0  0  0  0  2  0  0  0  0
   -0.7145    1.2375    0.0000 C   0  0  0  0  0  0  0  2  0  0  0  0
    0.0000    1.6500    0.0000 C   0  0  0  0  0  0  0  2  0  0  0  0
    0.7145    1.2375    0.0000 C   0  0  0  0  0  0  0  2  0  0  0  0
    0.7145    0.4125    0.0000 C   0  0  0  0  0  0  0  2  0  0  0  0
    0.0000    2.4750    0.0000 Cl  0  0  0  0  0  0  0  2  0  0  0  0
   -0.7145   -1.2375    0.0000 C   0  0  0  0  0  0  0  2  0  0  0  0
   -0.7145   -2.0625    0.0000 C   0  0  0  0  0  0  0  2  0  0  0  0
   -1.4289   -2.4750    0.0000 C   0  0  0  0  0  0  0  2  0  0  0  0
   -2.1434   -2.0625    0.0000 C   0  0  0  0  0  0  0  2  0  0  0  0
   -2.1434   -1.2375    0.0000 C   0  0  0  0  0  0  0  2  0  0  0  0
   -1.4289   -0.8250    0.0000 C   0  0  0  0  0  0  0  2  0  0  0  0
    0.0000   -2.4750    0.0000 Cl  0  0  0  0  0  0  0  2  0  0  0  0
    1.4289   -0.8250    0.0000 C   0  0  0  0  0  0  0  2  0  0  0  0
    2.1434   -1.2375    0.0000 N   0  0  0  0  0  0  0  2  0  0  0  0
    2.1434   -2.0625    0.0000 C   0  0  0  0  0  0  0  2  0  0  0  0
  1  2  4  0        0
  2  3  4  0        0
  3  4  1  0        0
  4  5  1  0        0
  4  6  1  0        0
  6  7  4  0        0
  7  8  4  0        0
  8  9  4  0        0
  9 10  4  0        0
 10 11  4  0        0
  6 11  4  0        0
  9 12  1  0        0
  4 13  1  0        0
 13 14  4  0        0
 14 15  4  0        0
 15 16  4  0        0
 16 17  4  0        0
 17 18  4  0        0
 13 18  4  0        0
 14 19  1  0        0
  3 20  4  0        0
 20 21  4  0        0
 21 22  4  0        0
  1 22  4  0        0
M  END
$$$$

CDXL12

 22 24  0  0  0  0  0  0  0  0999 V2000
   -0.2501   -2.0785    0.0000 Cl  0  0  0  0  0  0  0  2  0  0  0  0
   -0.9646   -1.6660    0.0000 C   0  0  0  0  0  0  0  2  0  0  0  0
   -1.6790   -2.0785    0.0000 C   0  0  0  0  0  0  0  2  0  0  0  0
   -2.3935   -1.6660    0.0000 C   0  0  0  0  0  0  0  2  0  0  0  0
   -3.1080   -2.0785    0.0000 Cl  0  0  0  0  0  0  0  2  0  0  0  0
   -2.3935   -0.8410    0.0000 C   0  0  0  0  0  0  0  2  0  0  0  0
   -1.6790   -0.4285    0.0000 C   0  0  0  0  0  0  0  2  0  0  0  0
   -0.9646   -0.8410    0.0000 C   0  0  0  0  0  0  0  2  0  0  0  0
   -0.2501   -0.4285    0.0000 C   0  0  0  0  0  0  0  2  0  0  0  0
   -0.9646   -0.0160    0.0000 C   0  0  0  0  0  0  0  2  0  0  0  0
   -0.9646    0.8090    0.0000 N   0  0  0  0  0  0  0  2  0  0  0  0
   -1.6320    1.2939    0.0000 N   0  0  0  0  0  0  0  2  0  0  0  0
   -1.3771    2.0785    0.0000 C   0  0  0  0  0  0  0  2  0  0  0  0
   -0.5521    2.0785    0.0000 N   0  0  0  0  0  0  0  2  0  0  0  0
   -0.2971    1.2939    0.0000 C   0  0  0  0  0  0  0  2  0  0  0  0
    0.2348   -1.0960    0.0000 O   0  0  0  0  0  0  0  2  0  0  0  0
    1.0194   -0.8410    0.0000 C   0  0  0  0  0  0  0  2  0  0  0  0
    1.6869   -1.3259    0.0000 C   0  0  0  0  0  0  0  2  0  0  0  0
    2.4406   -0.9904    0.0000 C   0  0  0  0  0  0  0  2  0  0  0  0
    3.1080   -1.4753    0.0000 C   0  0  0  0  0  0  0  2  0  0  0  0
    1.0194   -0.0160    0.0000 C   0  0  0  0  0  0  0  2  0  0  0  0
    0.2348    0.2389    0.0000 O   0  0  0  0  0  0  0  2  0  0  0  0
  1  2  1  0        0
  2  3  4  0        0
  3  4  4  0        0
  4  5  1  0        0
  4  6  4  0        0
  6  7  4  0        0
  7  8  4  0        0
  2  8  4  0        0
  8  9  1  0        0
  9 10  1  0        0
 10 11  1  0        0
 11 12  4  0        0
 12 13  4  0        0
 13 14  4  0        0
 14 15  4  0        0
 11 15  4  0        0
  9 16  1  0        0
 16 17  1  0        0
 17 18  1  0        0
 18 19  1  0        0
 19 20  1  0        0
 17 21  1  0        0
 21 22  1  0        0
  9 22  1  0        0
M  END
$$$$

CDXL12

 21 23  0  0  0  0  0  0  0  0999 V2000
    0.0836   -2.0785    0.0000 Cl  0  0  0  0  0  0  0  2  0  0  0  0
   -0.6309   -1.6660    0.0000 C   0  0  0  0  0  0  0  2  0  0  0  0
   -1.3453   -2.0785    0.0000 C   0  0  0  0  0  0  0  2  0  0  0  0
   -2.0598   -1.6660    0.0000 C   0  0  0  0  0  0  0  2  0  0  0  0
   -2.7743   -2.0785    0.0000 Cl  0  0  0  0  0  0  0  2  0  0  0  0
   -2.0598   -0.8410    0.0000 C   0  0  0  0  0  0  0  2  0  0  0  0
   -1.3453   -0.4285    0.0000 C   0  0  0  0  0  0  0  2  0  0  0  0
   -0.6309   -0.8410    0.0000 C   0  0  0  0  0  0  0  2  0  0  0  0
    0.0836   -0.4285    0.0000 C   0  0  0  0  0  0  0  2  0  0  0  0
   -0.6309   -0.0160    0.0000 C   0  0  0  0  0  0  0  2  0  0  0  0
   -0.6309    0.8090    0.0000 N   0  0  0  0  0  0  0  2  0  0  0  0
   -1.2983    1.2939    0.0000 N   0  0  0  0  0  0  0  2  0  0  0  0
   -1.0434    2.0785    0.0000 C   0  0  0  0  0  0  0  2  0  0  0  0
   -0.2184    2.0785    0.0000 N   0  0  0  0  0  0  0  2  0  0  0  0
    0.0366    1.2939    0.0000 C   0  0  0  0  0  0  0  2  0  0  0  0
    0.5685   -1.0960    0.0000 O   0  0  0  0  0  0  0  2  0  0  0  0
    1.3532   -0.8410    0.0000 C   0  0  0  0  0  0  0  2  0  0  0  0
    1.3532   -0.0160    0.0000 C   0  0  0  0  0  0  0  2  0  0  0  0
    2.0206    0.4689    0.0000 C   0  0  0  0  0  0  0  2  0  0  0  0
    2.7743    0.1333    0.0000 C   0  0  0  0  0  0  0  2  0  0  0  0
    0.5685    0.2389    0.0000 O   0  0  0  0  0  0  0  2  0  0  0  0
  1  2  1  0        0
  2  3  4  0        0
  3  4  4  0        0
  4  5  1  0        0
  4  6  4  0        0
  6  7  4  0        0
  7  8  4  0        0
  2  8  4  0        0
  8  9  1  0        0
  9 10  1  0        0
 10 11  1  0        0
 11 12  4  0        0
 12 13  4  0        0
 13 14  4  0        0
 14 15  4  0        0
 11 15  4  0        0
  9 16  1  0        0
 16 17  1  0        0
 17 18  1  0        0
 18 19  1  0        0
 19 20  1  0        0
 18 21  1  0        0
  9 21  1  0        0
M  END
$$$$

CDXL12

 18 19  0  0  0  0  0  0  0  0999 V2000
   -1.7013    1.7613    0.0000 C   0  0  0  0  0  0  0  2  0  0  0  0
   -1.5298    0.9543    0.0000 C   0  0  0  0  0  0  0  2  0  0  0  0
   -2.0818    0.3412    0.0000 O   0  0  0  0  0  0  0  2  0  0  0  0
   -1.6693   -0.3733    0.0000 C   0  0  0  0  0  0  0  2  0  0  0  0
   -2.0049   -1.1269    0.0000 C   0  0  0  0  0  0  0  2  0  0  0  0
   -0.8623   -0.2017    0.0000 C   0  0  0  0  0  0  0  2  0  0  0  0
   -0.7761    0.6188    0.0000 C   0  0  0  0  0  0  0  2  0  0  0  0
   -0.0616    1.0312    0.0000 C   0  0  0  0  0  0  0  2  0  0  0  0
   -0.0616    1.8563    0.0000 O   0  0  0  0  0  0  0  2  0  0  0  0
    0.6529    0.6188    0.0000 N   0  0  0  0  0  0  0  2  0  0  0  0
    1.3673    1.0313    0.0000 O   0  0  0  0  0  0  0  2  0  0  0  0
    2.0818    0.6188    0.0000 C   0  0  0  0  0  0  0  2  0  0  0  0
    0.6529   -0.2062    0.0000 C   0  0  0  0  0  0  0  2  0  0  0  0
    1.3673   -0.6188    0.0000 C   0  0  0  0  0  0  0  2  0  0  0  0
    1.3673   -1.4438    0.0000 C   0  0  0  0  0  0  0  2  0  0  0  0
    0.6529   -1.8563    0.0000 C   0  0  0  0  0  0  0  2  0  0  0  0
   -0.0616   -1.4438    0.0000 C   0  0  0  0  0  0  0  2  0  0  0  0
   -0.0616   -0.6188    0.0000 C   0  0  0  0  0  0  0  2  0  0  0  0
  1  2  1  0        0
  2  3  4  0        0
  3  4  4  0        0
  4  5  1  0        0
  4  6  4  0        0
  6  7  4  0        0
  2  7  4  0        0
  7  8  1  0        0
  8  9  2  0        0
  8 10  1  0        0
 10 11  1  0        0
 11 12  1  0        0
 10 13  1  0        0
 13 14  1  0        0
 14 15  1  0        0
 15 16  1  0        0
 16 17  1  0        0
 17 18  1  0        0
 13 18  1  0        0
M  END
$$$$

CDXL12

 19 20  0  0  0  0  0  0  0  0999 V2000
   -0.2338   -1.2853    0.0000 C   0  0  0  0  0  0  0  2  0  0  0  0
   -0.9483   -1.6978    0.0000 C   0  0  0  0  0  0  0  2  0  0  0  0
   -1.6628   -1.2853    0.0000 C   0  0  0  0  0  0  0  2  0  0  0  0
   -1.6628   -0.4603    0.0000 C   0  0  0  0  0  0  0  2  0  0  0  0
   -2.3773   -0.0478    0.0000 C   0  0  0  0  0  0  0  2  0  0  0  0
   -2.3773    0.7772    0.0000 F   0  0  0  0  0  0  0  2  0  0  0  0
   -3.0917    0.3647    0.0000 F   0  0  0  0  0  0  0  2  0  0  0  0
   -3.0917   -0.4603    0.0000 F   0  0  0  0  0  0  0  2  0  0  0  0
   -0.9483   -0.0478    0.0000 C   0  0  0  0  0  0  0  2  0  0  0  0
   -0.2338   -0.4603    0.0000 C   0  0  0  0  0  0  0  2  0  0  0  0
    0.4806   -0.0478    0.0000 N   0  0  0  0  0  0  0  2  0  0  0  0
    0.5669    0.7726    0.0000 C   0  0  0  0  0  0  0  2  0  0  0  0
   -0.0462    1.3247    0.0000 O   0  0  0  0  0  0  0  2  0  0  0  0
    1.3738    0.9442    0.0000 C   0  0  0  0  0  0  0  2  0  0  0  0
    1.7094    1.6978    0.0000 Cl  0  0  0  0  0  0  0  2  0  0  0  0
    1.7863    0.2297    0.0000 C   0  0  0  0  0  0  0  2  0  0  0  0
    2.6068    0.1435    0.0000 C   0  0  0  0  0  0  0  2  0  0  0  0
    3.0917    0.8109    0.0000 Cl  0  0  0  0  0  0  0  2  0  0  0  0
    1.2343   -0.3834    0.0000 C   0  0  0  0  0  0  0  2  0  0  0  0
  1  2  4  0        0
  2  3  4  0        0
  3  4  4  0        0
  4  5  1  0        0
  5  6  1  0        0
  5  7  1  0        0
  5  8  1  0        0
  4  9  4  0        0
  9 10  4  0        0
  1 10  4  0        0
 10 11  1  0        0
 11 12  1  0        0
 12 13  2  0        0
 12 14  1  0        0
 14 15  1  0        0
 14 16  1  0        0
 16 17  1  0        0
 17 18  1  0        0
 16 19  1  0        0
 11 19  1  0        0
M  END
$$$$

CDXL12

 25 27  0  0  0  0  0  0  0  0999 V2000
   -1.9961    0.4761    0.0000 N   0  0  0  0  0  0  0  2  0  0  0  0
   -1.1711    0.4761    0.0000 C   0  0  0  0  0  0  0  2  0  0  0  0
   -0.5877    1.0594    0.0000 O   0  0  0  0  0  0  0  2  0  0  0  0
   -1.1711   -0.3489    0.0000 C   0  0  0  0  0  0  0  2  0  0  0  0
   -0.5877   -0.9323    0.0000 N   0  0  0  0  0  0  0  2  0  0  0  0
    0.2092   -0.7188    0.0000 C   0  0  0  0  0  0  0  2  0  0  0  0
    0.4227    0.0781    0.0000 O   0  0  0  0  0  0  0  2  0  0  0  0
    0.7925   -1.3021    0.0000 C   0  0  0  0  0  0  0  2  0  0  0  0
    0.5790   -2.0990    0.0000 N   0  0  0  0  0  0  0  2  0  0  0  0
    1.5894   -1.0886    0.0000 C   0  0  0  0  0  0  0  2  0  0  0  0
    1.8030   -0.2917    0.0000 C   0  0  0  0  0  0  0  2  0  0  0  0
    2.5998   -0.0782    0.0000 C   0  0  0  0  0  0  0  2  0  0  0  0
    3.1832   -0.6615    0.0000 C   0  0  0  0  0  0  0  2  0  0  0  0
    3.9801   -0.4480    0.0000 O   0  0  0  0  0  0  0  2  0  0  0  0
    2.9697   -1.4584    0.0000 C   0  0  0  0  0  0  0  2  0  0  0  0
    2.1728   -1.6720    0.0000 C   0  0  0  0  0  0  0  2  0  0  0  0
   -1.9961   -0.3489    0.0000 C   0  0  0  0  0  0  0  2  0  0  0  0
   -2.7807   -0.6039    0.0000 S   0  0  0  0  0  0  0  2  0  0  0  0
   -3.2656    0.0636    0.0000 C   0  0  0  0  0  0  0  2  0  0  0  0
   -3.9801   -0.3489    0.0000 C   0  0  0  0  0  0  0  2  0  0  0  0
   -3.9801    0.4761    0.0000 C   0  0  0  0  0  0  0  2  0  0  0  0
   -2.7807    0.7310    0.0000 C   0  0  0  0  0  0  0  2  0  0  0  0
   -3.0356    1.5156    0.0000 C   0  0  0  0  0  0  0  2  0  0  0  0
   -2.4523    2.0990    0.0000 O   0  0  0  0  0  0  0  2  0  0  0  0
   -3.8325    1.7292    0.0000 O   0  0  0  0  0  0  0  2  0  0  0  0
  1  2  1  0        0
  2  3  2  0        0
  2  4  1  0        0
  4  5  1  0        0
  5  6  1  0        0
  6  7  2  0        0
  6  8  1  0        0
  8  9  1  0        0
  8 10  1  0        0
 10 11  4  0        0
 11 12  4  0        0
 12 13  4  0        0
 13 14  1  0        0
 13 15  4  0        0
 15 16  4  0        0
 10 16  4  0        0
  4 17  1  0        0
  1 17  1  0        0
 17 18  1  0        0
 18 19  1  0        0
 19 20  1  0        0
 19 21  1  0        0
 19 22  1  0        0
  1 22  1  0        0
 22 23  1  0        0
 23 24  2  0        0
 23 25  1  0        0
M  END
$$$$

CDXL12

 25 26  0  0  0  0  0  0  0  0999 V2000
   -0.3572    0.8250    0.0000 Cl  0  0  0  0  0  0  0  2  0  0  0  0
   -1.0717    0.4125    0.0000 C   0  0  0  0  0  0  0  2  0  0  0  0
   -1.7862    0.8250    0.0000 C   0  0  0  0  0  0  0  2  0  0  0  0
   -2.5006    0.4125    0.0000 C   0  0  0  0  0  0  0  2  0  0  0  0
   -2.5006   -0.4125    0.0000 C   0  0  0  0  0  0  0  2  0  0  0  0
   -1.7862   -0.8250    0.0000 C   0  0  0  0  0  0  0  2  0  0  0  0
   -1.0717   -0.4125    0.0000 C   0  0  0  0  0  0  0  2  0  0  0  0
   -0.3572   -0.8250    0.0000 O   0  0  0  0  0  0  0  2  0  0  0  0
    0.3572   -0.4125    0.0000 C   0  0  0  0  0  0  0  2  0  0  0  0
    0.3572    0.4125    0.0000 C   0  0  0  0  0  0  0  2  0  0  0  0
    1.0717    0.8250    0.0000 C   0  0  0  0  0  0  0  2  0  0  0  0
    1.7862    0.4125    0.0000 C   0  0  0  0  0  0  0  2  0  0  0  0
    2.5006    0.8250    0.0000 N   0  0  0  0  0  0  0  2  0  0  0  0
    2.5006    1.6500    0.0000 O   0  0  0  0  0  0  0  2  0  0  0  0
    3.2151    0.4125    0.0000 O   0  0  0  0  0  0  0  2  0  0  0  0
    1.7862   -0.4125    0.0000 C   0  0  0  0  0  0  0  2  0  0  0  0
    1.0717   -0.8250    0.0000 C   0  0  0  0  0  0  0  2  0  0  0  0
    2.5006   -0.8250    0.0000 C   0  0  0  0  0  0  0  2  0  0  0  0
    2.5006   -1.6500    0.0000 O   0  0  0  0  0  0  0  2  0  0  0  0
    3.2151   -0.4125    0.0000 O   0  0  0  0  0  0  0  2  0  0  0  0
    3.9296   -0.8250    0.0000 Na  0  0  0  0  0  0  0  2  0  0  0  0
   -3.2151    0.8250    0.0000 C   0  0  0  0  0  0  0  2  0  0  0  0
   -3.2151    1.6500    0.0000 F   0  0  0  0  0  0  0  2  0  0  0  0
   -3.9296    1.2375    0.0000 F   0  0  0  0  0  0  0  2  0  0  0  0
   -3.9296    0.4125    0.0000 F   0  0  0  0  0  0  0  2  0  0  0  0
  1  2  1  0        0
  2  3  4  0        0
  3  4  4  0        0
  4  5  4  0        0
  5  6  4  0        0
  6  7  4  0        0
  2  7  4  0        0
  7  8  1  0        0
  8  9  1  0        0
  9 10  4  0        0
 10 11  4  0        0
 11 12  4  0        0
 12 13  1  0        0
 13 14  2  0        0
 13 15  2  0        0
 12 16  4  0        0
 16 17  4  0        0
  9 17  4  0        0
 16 18  1  0        0
 18 19  2  0        0
 18 20  1  0        0
 20 21  1  0        0
  4 22  1  0        0
 22 23  1  0        0
 22 24  1  0        0
 22 25  1  0        0
M  END
$$$$

CDXL12

 14 13  0  0  0  0  0  0  0  0999 V2000
   -1.4289    1.0312    0.0000 S   0  0  0  0  0  0  0  2  0  0  0  0
   -1.4289    0.2062    0.0000 P   0  0  0  0  0  0  0  2  0  0  0  0
   -2.1434   -0.2062    0.0000 O   0  0  0  0  0  0  0  2  0  0  0  0
   -2.8579    0.2062    0.0000 C   0  0  0  0  0  0  0  2  0  0  0  0
   -1.4289   -0.6188    0.0000 O   0  0  0  0  0  0  0  2  0  0  0  0
   -2.1434   -1.0313    0.0000 C   0  0  0  0  0  0  0  2  0  0  0  0
   -0.7145   -0.2062    0.0000 O   0  0  0  0  0  0  0  2  0  0  0  0
    0.0000    0.2062    0.0000 C   0  0  0  0  0  0  0  2  0  0  0  0
    0.7145   -0.2062    0.0000 C   0  0  0  0  0  0  0  2  0  0  0  0
    0.7145   -1.0313    0.0000 C   0  0  0  0  0  0  0  2  0  0  0  0
    1.4289    0.2062    0.0000 C   0  0  0  0  0  0  0  2  0  0  0  0
    1.4289    1.0313    0.0000 O   0  0  0  0  0  0  0  2  0  0  0  0
    2.1434   -0.2062    0.0000 O   0  0  0  0  0  0  0  2  0  0  0  0
    2.8579    0.2062    0.0000 C   0  0  0  0  0  0  0  2  0  0  0  0
  1  2  2  0        0
  2  3  1  0        0
  3  4  1  0        0
  2  5  1  0        0
  5  6  1  0        0
  2  7  1  0        0
  7  8  1  0        0
  8  9  2  0        0
  9 10  1  0        0
  9 11  1  0        0
 11 12  2  0        0
 11 13  1  0        0
 13 14  1  0        0
M  END
$$$$

CDXL12

 17 17  0  0  0  0  0  0  0  0999 V2000
    2.5006   -0.8250    0.0000 C   0  0  0  0  0  0  0  2  0  0  0  0
    3.2151   -1.2375    0.0000 C   0  0  0  0  0  0  0  2  0  0  0  0
    3.9296   -0.8250    0.0000 C   0  0  0  0  0  0  0  2  0  0  0  0
    3.9296    0.0000    0.0000 C   0  0  0  0  0  0  0  2  0  0  0  0
    3.2151    0.4125    0.0000 C   0  0  0  0  0  0  0  2  0  0  0  0
    2.5006   -0.0000    0.0000 C   0  0  0  0  0  0  0  2  0  0  0  0
    1.7862    0.4125    0.0000 O   0  0  0  0  0  0  0  2  0  0  0  0
    1.0717   -0.0000    0.0000 C   0  0  0  0  0  0  0  2  0  0  0  0
    0.3572    0.4125    0.0000 C   0  0  0  0  0  0  0  2  0  0  0  0
   -0.3572   -0.0000    0.0000 C   0  0  0  0  0  0  0  2  0  0  0  0
   -1.0717    0.4125    0.0000 C   0  0  0  0  0  0  0  2  0  0  0  0
   -1.7862   -0.0000    0.0000 S   0  0  0  0  0  0  0  2  0  0  0  0
   -2.5006    0.4125    0.0000 C   0  0  0  0  0  0  0  2  0  0  0  0
   -2.5006    1.2375    0.0000 O   0  0  0  0  0  0  0  2  0  0  0  0
   -3.2151   -0.0000    0.0000 N   0  0  0  0  0  0  0  2  0  0  0  0
   -3.9296    0.4125    0.0000 C   0  0  0  0  0  0  0  2  0  0  0  0
   -3.2151   -0.8250    0.0000 C   0  0  0  0  0  0  0  2  0  0  0  0
  1  2  4  0        0
  2  3  4  0        0
  3  4  4  0        0
  4  5  4  0        0
  5  6  4  0        0
  1  6  4  0        0
  6  7  1  0        0
  7  8  1  0        0
  8  9  1  0        0
  9 10  1  0        0
 10 11  1  0        0
 11 12  1  0        0
 12 13  1  0        0
 13 14  2  0        0
 13 15  1  0        0
 15 16  1  0        0
 15 17  1  0        0
M  END
$$$$

CDXL12

 19 20  0  0  0  0  0  0  0  0999 V2000
    2.1434    2.4750    0.0000 C   0  0  0  0  0  0  0  2  0  0  0  0
    1.4289    2.0625    0.0000 C   0  0  0  0  0  0  0  2  0  0  0  0
    1.4289    1.2375    0.0000 C   0  0  0  0  0  0  0  2  0  0  0  0
    0.7145    0.8250    0.0000 C   0  0  0  0  0  0  0  2  0  0  0  0
    0.0000    1.2375    0.0000 C   0  0  0  0  0  0  0  2  0  0  0  0
   -0.7145    0.8250    0.0000 C   0  0  0  0  0  0  0  2  0  0  0  0
   -0.7145    0.0000    0.0000 C   0  0  0  0  0  0  0  2  0  0  0  0
    0.0000   -0.4125    0.0000 C   0  0  0  0  0  0  0  2  0  0  0  0
    0.0000   -1.2375    0.0000 C   0  0  0  0  0  0  0  2  0  0  0  0
   -0.7145   -1.6500    0.0000 C   0  0  0  0  0  0  0  2  0  0  0  0
   -0.7145   -2.4750    0.0000 Cl  0  0  0  0  0  0  0  2  0  0  0  0
   -1.4289   -1.2375    0.0000 C   0  0  0  0  0  0  0  2  0  0  0  0
   -1.4289   -0.4125    0.0000 C   0  0  0  0  0  0  0  2  0  0  0  0
   -1.4289    1.2375    0.0000 C   0  0  0  0  0  0  0  2  0  0  0  0
   -2.1434    0.8250    0.0000 Cl  0  0  0  0  0  0  0  2  0  0  0  0
   -1.4289    2.0625    0.0000 Cl  0  0  0  0  0  0  0  2  0  0  0  0
   -2.1434    1.6500    0.0000 Cl  0  0  0  0  0  0  0  2  0  0  0  0
    0.0000    2.0625    0.0000 C   0  0  0  0  0  0  0  2  0  0  0  0
    0.7145    2.4750    0.0000 C   0  0  0  0  0  0  0  2  0  0  0  0
  1  2  1  0        0
  2  3  4  0        0
  3  4  4  0        0
  4  5  4  0        0
  5  6  1  0        0
  6  7  1  0        0
  7  8  4  0        0
  8  9  4  0        0
  9 10  4  0        0
 10 11  1  0        0
 10 12  4  0        0
 12 13  4  0        0
  7 13  4  0        0
  6 14  1  0        0
 14 15  1  0        0
 14 16  1  0        0
 14 17  1  0        0
  5 18  4  0        0
 18 19  4  0        0
  2 19  4  0        0
M  END
$$$$

CDXL12

 28 29  0  0  0  0  0  0  0  0999 V2000
    1.4289   -0.4537    0.0000 N   0  0  0  0  0  0  0  2  0  0  0  0
    1.4289    0.3713    0.0000 O   0  0  0  0  0  0  0  2  0  0  0  0
    2.1434   -0.8662    0.0000 O   0  0  0  0  0  0  0  2  0  0  0  0
    0.7145   -0.8662    0.0000 C   0  0  0  0  0  0  0  2  0  0  0  0
    0.7145   -1.6912    0.0000 C   0  0  0  0  0  0  0  2  0  0  0  0
    0.0000   -2.1038    0.0000 C   0  0  0  0  0  0  0  2  0  0  0  0
    0.0000   -2.9288    0.0000 C   0  0  0  0  0  0  0  2  0  0  0  0
   -0.7145   -3.3413    0.0000 F   0  0  0  0  0  0  0  2  0  0  0  0
    0.0000   -3.7538    0.0000 F   0  0  0  0  0  0  0  2  0  0  0  0
    0.7145   -3.3413    0.0000 F   0  0  0  0  0  0  0  2  0  0  0  0
   -0.7145   -1.6912    0.0000 C   0  0  0  0  0  0  0  2  0  0  0  0
   -0.7145   -0.8662    0.0000 C   0  0  0  0  0  0  0  2  0  0  0  0
   -1.4289   -0.4537    0.0000 N   0  0  0  0  0  0  0  2  0  0  0  0
   -1.4289    0.3713    0.0000 O   0  0  0  0  0  0  0  2  0  0  0  0
   -2.1434   -0.8662    0.0000 O   0  0  0  0  0  0  0  2  0  0  0  0
    0.0000   -0.4537    0.0000 C   0  0  0  0  0  0  0  2  0  0  0  0
    0.0000    0.8662    0.0000 N   0  0  0  0  0  0  0  2  0  0  0  0
   -0.7145    1.2788    0.0000 C   0  0  0  0  0  0  0  2  0  0  0  0
   -1.4289    0.8662    0.0000 C   0  0  0  0  0  0  0  2  0  0  0  0
    0.7145    1.2788    0.0000 C   0  0  0  0  0  0  0  2  0  0  0  0
    0.7145    2.1038    0.0000 C   0  0  0  0  0  0  0  2  0  0  0  0
    1.4289    2.5162    0.0000 C   0  0  0  0  0  0  0  2  0  0  0  0
    2.1434    2.1037    0.0000 F   0  0  0  0  0  0  0  2  0  0  0  0
    1.4289    3.3413    0.0000 C   0  0  0  0  0  0  0  2  0  0  0  0
    0.7145    3.7538    0.0000 C   0  0  0  0  0  0  0  2  0  0  0  0
    0.0000    3.3413    0.0000 C   0  0  0  0  0  0  0  2  0  0  0  0
    0.0000    2.5162    0.0000 C   0  0  0  0  0  0  0  2  0  0  0  0
   -0.7145    2.1038    0.0000 Cl  0  0  0  0  0  0  0  2  0  0  0  0
  1  2  2  0        0
  1  3  2  0        0
  1  4  1  0        0
  4  5  4  0        0
  5  6  4  0        0
  6  7  1  0        0
  7  8  1  0        0
  7  9  1  0        0
  7 10  1  0        0
  6 11  4  0        0
 11 12  4  0        0
 12 13  1  0        0
 13 14  2  0        0
 13 15  2  0        0
 12 16  4  0        0
  4 16  4  0        0
 16 17  1  0        0
 17 18  1  0        0
 18 19  1  0        0
 17 20  1  0        0
 20 21  1  0        0
 21 22  4  0        0
 22 23  1  0        0
 22 24  4  0        0
 24 25  4  0        0
 25 26  4  0        0
 26 27  4  0        0
 21 27  4  0        0
 27 28  1  0        0
M  END
$$$$

CDXL12

 14 14  0  0  0  0  0  0  0  0999 V2000
   -2.5006   -1.6500    0.0000 N   0  0  0  0  0  0  0  2  0  0  0  0
   -1.7862   -1.2375    0.0000 C   0  0  0  0  0  0  0  2  0  0  0  0
   -1.0717   -0.8250    0.0000 C   0  0  0  0  0  0  0  2  0  0  0  0
   -0.3572   -1.2375    0.0000 N   0  0  0  0  0  0  0  2  0  0  0  0
    0.3572   -0.8250    0.0000 O   0  0  0  0  0  0  0  2  0  0  0  0
    1.0717   -1.2375    0.0000 C   0  0  0  0  0  0  0  2  0  0  0  0
    1.7862   -0.8250    0.0000 C   0  0  0  0  0  0  0  2  0  0  0  0
    2.5006   -0.4125    0.0000 N   0  0  0  0  0  0  0  2  0  0  0  0
   -1.0717    0.0000    0.0000 C   0  0  0  0  0  0  0  2  0  0  0  0
   -0.3572    0.4125    0.0000 C   0  0  0  0  0  0  0  2  0  0  0  0
   -0.3572    1.2375    0.0000 C   0  0  0  0  0  0  0  2  0  0  0  0
   -1.0717    1.6500    0.0000 C   0  0  0  0  0  0  0  2  0  0  0  0
   -1.7862    1.2375    0.0000 C   0  0  0  0  0  0  0  2  0  0  0  0
   -1.7862    0.4125    0.0000 C   0  0  0  0  0  0  0  2  0  0  0  0
  1  2  3  0        0
  2  3  1  0        0
  3  4  2  0        0
  4  5  1  0        0
  5  6  1  0        0
  6  7  1  0        0
  7  8  3  0        0
  3  9  1  0        0
  9 10  4  0        0
 10 11  4  0        0
 11 12  4  0        0
 12 13  4  0        0
 13 14  4  0        0
  9 14  4  0        0
M  END
$$$$

CDXL12

 21 21  0  0  0  0  0  0  0  0999 V2000
    2.1434    0.2063    0.0000 C   0  0  0  0  0  0  0  2  0  0  0  0
    2.1434    1.0313    0.0000 C   0  0  0  0  0  0  0  2  0  0  0  0
    1.4289    1.4438    0.0000 C   0  0  0  0  0  0  0  2  0  0  0  0
    1.4289    2.2687    0.0000 Cl  0  0  0  0  0  0  0  2  0  0  0  0
    0.7145    1.0313    0.0000 C   0  0  0  0  0  0  0  2  0  0  0  0
    0.7145    0.2062    0.0000 C   0  0  0  0  0  0  0  2  0  0  0  0
    1.4289   -0.2062    0.0000 C   0  0  0  0  0  0  0  2  0  0  0  0
    1.4289   -1.0312    0.0000 N   0  0  0  0  0  0  0  2  0  0  0  0
    2.1434   -1.4437    0.0000 C   0  0  0  0  0  0  0  2  0  0  0  0
    2.1434   -2.2687    0.0000 C   0  0  0  0  0  0  0  2  0  0  0  0
    2.8579   -1.0312    0.0000 C   0  0  0  0  0  0  0  2  0  0  0  0
    0.7145   -1.4437    0.0000 C   0  0  0  0  0  0  0  2  0  0  0  0
    0.7145   -2.2687    0.0000 O   0  0  0  0  0  0  0  2  0  0  0  0
    0.0000   -1.0312    0.0000 C   0  0  0  0  0  0  0  2  0  0  0  0
   -0.7145   -1.4438    0.0000 S   0  0  0  0  0  0  0  2  0  0  0  0
   -1.4289   -1.0313    0.0000 P   0  0  0  0  0  0  0  2  0  0  0  0
   -1.4289   -0.2062    0.0000 S   0  0  0  0  0  0  0  2  0  0  0  0
   -2.1434   -1.4438    0.0000 O   0  0  0  0  0  0  0  2  0  0  0  0
   -2.8579   -1.0313    0.0000 C   0  0  0  0  0  0  0  2  0  0  0  0
   -1.4289   -1.8563    0.0000 O   0  0  0  0  0  0  0  2  0  0  0  0
   -2.1434   -2.2687    0.0000 C   0  0  0  0  0  0  0  2  0  0  0  0
  1  2  4  0        0
  2  3  4  0        0
  3  4  1  0        0
  3  5  4  0        0
  5  6  4  0        0
  6  7  4  0        0
  1  7  4  0        0
  7  8  1  0        0
  8  9  1  0        0
  9 10  1  0        0
  9 11  1  0        0
  8 12  1  0        0
 12 13  2  0        0
 12 14  1  0        0
 14 15  1  0        0
 15 16  1  0        0
 16 17  2  0        0
 16 18  1  0        0
 18 19  1  0        0
 16 20  1  0        0
 20 21  1  0        0
M  END
$$$$

CDXL12

 26 28  0  0  0  0  0  0  0  0999 V2000
   -2.8579   -0.7293    0.0000 C   0  0  0  0  0  0  0  2  0  0  0  0
   -3.6829   -0.7293    0.0000 C   0  0  0  0  0  0  0  2  0  0  0  0
   -3.2704   -0.0148    0.0000 C   0  0  0  0  0  0  0  2  0  0  0  0
   -2.4454   -1.4437    0.0000 C   0  0  0  0  0  0  0  2  0  0  0  0
   -2.0329   -2.1582    0.0000 C   0  0  0  0  0  0  0  2  0  0  0  0
   -2.8579   -2.1582    0.0000 C   0  0  0  0  0  0  0  2  0  0  0  0
   -2.0329   -0.7293    0.0000 C   0  0  0  0  0  0  0  2  0  0  0  0
   -1.3184   -0.3168    0.0000 C   0  0  0  0  0  0  0  2  0  0  0  0
   -1.3184    0.5082    0.0000 O   0  0  0  0  0  0  0  2  0  0  0  0
   -0.6039   -0.7293    0.0000 O   0  0  0  0  0  0  0  2  0  0  0  0
    0.1105   -0.3168    0.0000 C   0  0  0  0  0  0  0  2  0  0  0  0
    0.8250   -0.7293    0.0000 C   0  0  0  0  0  0  0  2  0  0  0  0
    1.5395   -1.1418    0.0000 N   0  0  0  0  0  0  0  2  0  0  0  0
    0.1105    0.5082    0.0000 C   0  0  0  0  0  0  0  2  0  0  0  0
   -0.6039    0.9207    0.0000 C   0  0  0  0  0  0  0  2  0  0  0  0
   -0.6039    1.7457    0.0000 C   0  0  0  0  0  0  0  2  0  0  0  0
    0.1105    2.1582    0.0000 C   0  0  0  0  0  0  0  2  0  0  0  0
    0.8250    1.7457    0.0000 C   0  0  0  0  0  0  0  2  0  0  0  0
    1.5395    2.1582    0.0000 O   0  0  0  0  0  0  0  2  0  0  0  0
    2.2539    1.7457    0.0000 C   0  0  0  0  0  0  0  2  0  0  0  0
    2.9684    2.1582    0.0000 C   0  0  0  0  0  0  0  2  0  0  0  0
    3.6829    1.7457    0.0000 C   0  0  0  0  0  0  0  2  0  0  0  0
    3.6829    0.9207    0.0000 C   0  0  0  0  0  0  0  2  0  0  0  0
    2.9684    0.5082    0.0000 C   0  0  0  0  0  0  0  2  0  0  0  0
    2.2539    0.9207    0.0000 C   0  0  0  0  0  0  0  2  0  0  0  0
    0.8250    0.9207    0.0000 C   0  0  0  0  0  0  0  2  0  0  0  0
  1  2  1  0        0
  1  3  1  0        0
  1  4  1  0        0
  4  5  1  0        0
  4  6  1  0        0
  4  7  1  0        0
  1  7  1  0        0
  7  8  1  0        0
  8  9  2  0        0
  8 10  1  0        0
 10 11  1  0        0
 11 12  1  0        0
 12 13  3  0        0
 11 14  1  0        0
 14 15  4  0        0
 15 16  4  0        0
 16 17  4  0        0
 17 18  4  0        0
 18 19  1  0        0
 19 20  1  0        0
 20 21  4  0        0
 21 22  4  0        0
 22 23  4  0        0
 23 24  4  0        0
 24 25  4  0        0
 20 25  4  0        0
 18 26  4  0        0
 14 26  4  0        0
M  END
$$$$

CDXL12

 23 24  0  0  0  0  0  0  0  0999 V2000
    1.7862   -1.0865    0.0000 N   0  0  0  0  0  0  0  2  0  0  0  0
    2.5006   -0.6740    0.0000 C   0  0  0  0  0  0  0  2  0  0  0  0
    3.2151   -1.0865    0.0000 O   0  0  0  0  0  0  0  2  0  0  0  0
    3.9296   -0.6740    0.0000 C   0  0  0  0  0  0  0  2  0  0  0  0
    2.5006    0.1510    0.0000 N   0  0  0  0  0  0  0  2  0  0  0  0
    1.7862    0.5635    0.0000 C   0  0  0  0  0  0  0  2  0  0  0  0
    1.7862    1.3885    0.0000 C   0  0  0  0  0  0  0  2  0  0  0  0
    1.0717    0.1510    0.0000 N   0  0  0  0  0  0  0  2  0  0  0  0
    1.0717   -0.6740    0.0000 C   0  0  0  0  0  0  0  2  0  0  0  0
    0.3572   -1.0865    0.0000 N   0  0  0  0  0  0  0  2  0  0  0  0
   -0.3572   -0.6740    0.0000 C   0  0  0  0  0  0  0  2  0  0  0  0
   -0.3572    0.1510    0.0000 O   0  0  0  0  0  0  0  2  0  0  0  0
   -1.0717   -1.0865    0.0000 N   0  0  0  0  0  0  0  2  0  0  0  0
   -1.7862   -0.6740    0.0000 S   0  0  0  0  0  0  0  2  0  0  0  0
   -1.3737    0.0405    0.0000 O   0  0  0  0  0  0  0  2  0  0  0  0
   -2.1987   -1.3885    0.0000 O   0  0  0  0  0  0  0  2  0  0  0  0
   -2.5006   -0.2615    0.0000 C   0  0  0  0  0  0  0  2  0  0  0  0
   -3.2151   -0.6740    0.0000 C   0  0  0  0  0  0  0  2  0  0  0  0
   -3.9296   -0.2615    0.0000 C   0  0  0  0  0  0  0  2  0  0  0  0
   -3.9296    0.5635    0.0000 C   0  0  0  0  0  0  0  2  0  0  0  0
   -3.2151    0.9760    0.0000 C   0  0  0  0  0  0  0  2  0  0  0  0
   -2.5006    0.5635    0.0000 C   0  0  0  0  0  0  0  2  0  0  0  0
   -1.7862    0.9760    0.0000 Cl  0  0  0  0  0  0  0  2  0  0  0  0
  1  2  4  0        0
  2  3  1  0        0
  3  4  1  0        0
  2  5  4  0        0
  5  6  4  0        0
  6  7  1  0        0
  6  8  4  0        0
  8  9  4  0        0
  1  9  4  0        0
  9 10  1  0        0
 10 11  1  0        0
 11 12  2  0        0
 11 13  1  0        0
 13 14  1  0        0
 14 15  2  0        0
 14 16  2  0        0
 14 17  1  0        0
 17 18  4  0        0
 18 19  4  0        0
 19 20  4  0        0
 20 21  4  0        0
 21 22  4  0        0
 17 22  4  0        0
 22 23  1  0        0
M  END
$$$$

CDXL12

 63 69  0  0  0  0  0  0  0  0999 V2000
   -3.9296    2.4750    0.0000 O   0  0  0  0  0  0  0  2  0  0  0  0
   -4.6441    2.8875    0.0000 C   0  0  0  0  0  0  0  2  0  0  0  0
   -4.6441    3.7125    0.0000 C   0  0  0  0  0  0  0  2  0  0  0  0
   -5.3585    2.4750    0.0000 C   0  0  0  0  0  0  0  2  0  0  0  0
   -6.0730    2.8875    0.0000 O   0  0  0  0  0  0  0  2  0  0  0  0
   -5.3585    1.6500    0.0000 C   0  0  0  0  0  0  0  2  0  0  0  0
   -6.0730    1.2375    0.0000 O   0  0  0  0  0  0  0  2  0  0  0  0
   -6.7875    1.6500    0.0000 C   0  0  0  0  0  0  0  2  0  0  0  0
   -4.6441    1.2375    0.0000 C   0  0  0  0  0  0  0  2  0  0  0  0
   -3.9296    1.6500    0.0000 C   0  0  0  0  0  0  0  2  0  0  0  0
   -3.2151    1.2375    0.0000 O   0  0  0  0  0  0  0  2  0  0  0  0
   -2.5006    1.6500    0.0000 C   0  0  0  0  0  0  0  2  0  0  0  0
   -2.5006    2.4750    0.0000 C   0  0  0  0  0  0  0  2  0  0  0  0
   -3.2151    2.8875    0.0000 O   0  0  0  0  0  0  0  2  0  0  0  0
   -3.2151    3.7125    0.0000 C   0  0  0  0  0  0  0  2  0  0  0  0
   -1.7862    2.8875    0.0000 C   0  0  0  0  0  0  0  2  0  0  0  0
   -1.0717    2.4750    0.0000 C   0  0  0  0  0  0  0  2  0  0  0  0
   -1.0717    3.3000    0.0000 H   0  0  0  0  0  0  0  2  0  0  0  0
   -1.0717    1.6500    0.0000 O   0  0  0  0  0  0  0  2  0  0  0  0
   -1.7862    1.2375    0.0000 C   0  0  0  0  0  0  0  2  0  0  0  0
   -1.7862    0.4125    0.0000 C   0  0  0  0  0  0  0  2  0  0  0  0
   -0.3572    2.8875    0.0000 O   0  0  0  0  0  0  0  2  0  0  0  0
    0.3572    2.4750    0.0000 C   0  0  0  0  0  0  0  2  0  0  0  0
    0.3572    1.6500    0.0000 C   0  0  0  0  0  0  0  2  0  0  0  0
   -0.3572    1.2375    0.0000 C   0  0  0  0  0  0  0  2  0  0  0  0
    1.0717    1.2375    0.0000 C   0  0  0  0  0  0  0  2  0  0  0  0
    1.0717    0.4125    0.0000 C   0  0  0  0  0  0  0  2  0  0  0  0
    1.7862   -0.0000    0.0000 C   0  0  0  0  0  0  0  2  0  0  0  0
    1.7862   -0.8250    0.0000 O   0  0  0  0  0  0  0  2  0  0  0  0
    2.5006   -1.2375    0.0000 C   0  0  0  0  0  0  0  2  0  0  0  0
    3.2151   -1.6500    0.0000 C   0  0  0  0  0  0  0  2  0  0  0  0
    3.2151   -2.4750    0.0000 C   0  0  0  0  0  0  0  2  0  0  0  0
    2.5006   -2.8875    0.0000 C   0  0  0  0  0  0  0  2  0  0  0  0
    2.5006   -3.7125    0.0000 C   0  0  0  0  0  0  0  2  0  0  0  0
    1.7862   -2.4750    0.0000 C   0  0  0  0  0  0  0  2  0  0  0  0
    1.0717   -2.8875    0.0000 C   0  0  0  0  0  0  0  2  0  0  0  0
    1.0717   -3.7125    0.0000 C   0  0  0  0  0  0  0  2  0  0  0  0
    0.3572   -2.4750    0.0000 C   0  0  0  0  0  0  0  2  0  0  0  0
   -0.3572   -2.8875    0.0000 C   0  0  0  0  0  0  0  2  0  0  0  0
    1.7862   -1.6500    0.0000 O   0  0  0  0  0  0  0  2  0  0  0  0
    3.2151   -0.8250    0.0000 C   0  0  0  0  0  0  0  2  0  0  0  0
    3.2151   -0.0000    0.0000 C   0  0  0  0  0  0  0  2  0  0  0  0
    2.5006    0.4125    0.0000 C   0  0  0  0  0  0  0  2  0  0  0  0
    3.9296    0.4125    0.0000 O   0  0  0  0  0  0  0  2  0  0  0  0
    3.9296    1.2375    0.0000 C   0  0  0  0  0  0  0  2  0  0  0  0
    3.2151    1.6500    0.0000 O   0  0  0  0  0  0  0  2  0  0  0  0
    4.6441    1.6500    0.0000 C   0  0  0  0  0  0  0  2  0  0  0  0
    5.3585    1.2375    0.0000 C   0  0  0  0  0  0  0  2  0  0  0  0
    6.0730    1.6500    0.0000 C   0  0  0  0  0  0  0  2  0  0  0  0
    6.7875    1.2375    0.0000 C   0  0  0  0  0  0  0  2  0  0  0  0
    6.0730    2.4750    0.0000 C   0  0  0  0  0  0  0  2  0  0  0  0
    6.7875    2.8875    0.0000 O   0  0  0  0  0  0  0  2  0  0  0  0
    5.3585    2.8875    0.0000 C   0  0  0  0  0  0  0  2  0  0  0  0
    5.0566    3.6552    0.0000 O   0  0  0  0  0  0  0  2  0  0  0  0
    4.2316    3.6552    0.0000 C   0  0  0  0  0  0  0  2  0  0  0  0
    3.9296    2.8875    0.0000 C   0  0  0  0  0  0  0  2  0  0  0  0
    4.6441    2.4750    0.0000 C   0  0  0  0  0  0  0  2  0  0  0  0
    4.6441    3.3000    0.0000 O   0  0  0  0  0  0  0  2  0  0  0  0
    3.2151    2.4750    0.0000 C   0  0  0  0  0  0  0  2  0  0  0  0
    2.5006    2.8875    0.0000 C   0  0  0  0  0  0  0  2  0  0  0  0
    1.7862    2.4750    0.0000 C   0  0  0  0  0  0  0  2  0  0  0  0
    1.0717    2.8875    0.0000 C   0  0  0  0  0  0  0  2  0  0  0  0
    1.0717    3.7125    0.0000 C   0  0  0  0  0  0  0  2  0  0  0  0
  1  2  1  0        0
  2  3  1  6        0
  2  4  1  0        0
  4  5  1  1        0
  4  6  1  0        0
  6  7  1  6        0
  7  8  1  0        0
  6  9  1  0        0
  9 10  1  0        0
  1 10  1  0        0
 10 11  1  1        0
 12 11  1  6        0
 12 13  1  0        0
 13 14  1  1        0
 14 15  1  0        0
 13 16  1  0        0
 16 17  1  0        0
 17 18  1  1        0
 17 19  1  0        0
 19 20  1  0        0
 12 20  1  0        0
 20 21  1  1        0
 17 22  1  0        0
 23 22  1  1        0
 23 24  1  0        0
 24 25  1  0        0
 24 26  2  0        0
 26 27  1  0        0
 27 28  1  0        0
 28 29  1  6        0
 29 30  1  0        0
 30 31  1  6        0
 31 32  2  0        0
 32 33  1  0        0
 33 34  1  6        0
 33 35  1  0        0
 35 36  1  0        0
 36 37  1  0        0
 36 38  1  0        0
 38 39  1  0        0
 35 40  1  1        0
 30 40  1  1        0
 30 41  1  0        0
 41 42  1  0        0
 42 43  1  0        0
 28 43  1  0        0
 42 44  1  6        0
 44 45  1  0        0
 45 46  2  0        0
 45 47  1  0        0
 47 48  1  6        0
 48 49  2  0        0
 49 50  1  0        0
 49 51  1  0        0
 51 52  1  6        0
 51 53  1  0        0
 53 54  1  6        0
 54 55  1  0        0
 55 56  1  0        0
 56 57  1  0        0
 47 57  1  0        0
 53 57  1  0        0
 57 58  1  0        0
 56 59  2  0        0
 59 60  1  0        0
 60 61  2  0        0
 61 62  1  0        0
 23 62  1  0        0
 62 63  1  0        0
M  END
$$$$

CDXL12

 20 19  0  0  0  0  0  0  0  0999 V2000
    3.2151    1.0313    0.0000 C   0  0  0  0  0  0  0  2  0  0  0  0
    3.2151    0.2063    0.0000 C   0  0  0  0  0  0  0  2  0  0  0  0
    3.9296   -0.2062    0.0000 C   0  0  0  0  0  0  0  2  0  0  0  0
    2.5006   -0.2062    0.0000 N   0  0  0  0  0  0  0  2  0  0  0  0
    2.5006   -1.0312    0.0000 C   0  0  0  0  0  0  0  2  0  0  0  0
    3.2151   -1.4437    0.0000 C   0  0  0  0  0  0  0  2  0  0  0  0
    1.7862   -1.4437    0.0000 C   0  0  0  0  0  0  0  2  0  0  0  0
    1.7862    0.2062    0.0000 C   0  0  0  0  0  0  0  2  0  0  0  0
    1.0717   -0.2062    0.0000 C   0  0  0  0  0  0  0  2  0  0  0  0
    0.3572    0.2062    0.0000 S   0  0  0  0  0  0  0  2  0  0  0  0
   -0.3572   -0.2062    0.0000 S   0  0  0  0  0  0  0  2  0  0  0  0
   -1.0717    0.2062    0.0000 C   0  0  0  0  0  0  0  2  0  0  0  0
   -1.7862   -0.2062    0.0000 C   0  0  0  0  0  0  0  2  0  0  0  0
   -2.5006    0.2062    0.0000 N   0  0  0  0  0  0  0  2  0  0  0  0
   -3.2151   -0.2062    0.0000 C   0  0  0  0  0  0  0  2  0  0  0  0
   -3.2151   -1.0312    0.0000 C   0  0  0  0  0  0  0  2  0  0  0  0
   -3.9296    0.2062    0.0000 C   0  0  0  0  0  0  0  2  0  0  0  0
   -2.5006    1.0312    0.0000 C   0  0  0  0  0  0  0  2  0  0  0  0
   -3.2151    1.4437    0.0000 C   0  0  0  0  0  0  0  2  0  0  0  0
   -1.7862    1.4437    0.0000 C   0  0  0  0  0  0  0  2  0  0  0  0
  1  2  1  0        0
  2  3  1  0        0
  2  4  1  0        0
  4  5  1  0        0
  5  6  1  0        0
  5  7  1  0        0
  4  8  1  0        0
  8  9  1  0        0
  9 10  1  0        0
 10 11  1  0        0
 11 12  1  0        0
 12 13  1  0        0
 13 14  1  0        0
 14 15  1  0        0
 15 16  1  0        0
 15 17  1  0        0
 14 18  1  0        0
 18 19  1  0        0
 18 20  1  0        0
M  END
$$$$

CDXL12

 17 18  0  0  0  0  0  0  0  0999 V2000
    1.0717    1.8562    0.0000 Cl  0  0  0  0  0  0  0  2  0  0  0  0
    1.0717    1.0312    0.0000 C   0  0  0  0  0  0  0  2  0  0  0  0
    1.7862    0.6187    0.0000 C   0  0  0  0  0  0  0  2  0  0  0  0
    1.7862   -0.2063    0.0000 C   0  0  0  0  0  0  0  2  0  0  0  0
    1.0717   -0.6187    0.0000 C   0  0  0  0  0  0  0  2  0  0  0  0
    0.3572   -0.2063    0.0000 C   0  0  0  0  0  0  0  2  0  0  0  0
    0.3572    0.6187    0.0000 C   0  0  0  0  0  0  0  2  0  0  0  0
   -0.3572    1.0312    0.0000 Cl  0  0  0  0  0  0  0  2  0  0  0  0
   -0.3572   -0.6187    0.0000 C   0  0  0  0  0  0  0  2  0  0  0  0
   -0.3572   -1.4437    0.0000 C   0  0  0  0  0  0  0  2  0  0  0  0
   -1.0717   -1.8562    0.0000 C   0  0  0  0  0  0  0  2  0  0  0  0
   -1.7862   -1.4437    0.0000 C   0  0  0  0  0  0  0  2  0  0  0  0
   -1.7862   -0.6187    0.0000 C   0  0  0  0  0  0  0  2  0  0  0  0
   -1.0717   -0.2063    0.0000 C   0  0  0  0  0  0  0  2  0  0  0  0
   -2.5006   -1.8562    0.0000 Cl  0  0  0  0  0  0  0  2  0  0  0  0
    2.5006   -0.6188    0.0000 Cl  0  0  0  0  0  0  0  2  0  0  0  0
    2.5006    1.0312    0.0000 Cl  0  0  0  0  0  0  0  2  0  0  0  0
  1  2  1  0        0
  2  3  4  0        0
  3  4  4  0        0
  4  5  4  0        0
  5  6  4  0        0
  6  7  4  0        0
  2  7  4  0        0
  7  8  1  0        0
  6  9  1  0        0
  9 10  4  0        0
 10 11  4  0        0
 11 12  4  0        0
 12 13  4  0        0
 13 14  4  0        0
  9 14  4  0        0
 12 15  1  0        0
  4 16  1  0        0
  3 17  1  0        0
M  END
$$$$

CDXL12

 26 27  0  0  0  0  0  0  0  0999 V2000
   -2.7191   -1.2716    0.0000 C   0  0  0  0  0  0  0  2  0  0  0  0
   -3.4336   -1.6841    0.0000 C   0  0  0  0  0  0  0  2  0  0  0  0
   -4.1481   -1.2716    0.0000 C   0  0  0  0  0  0  0  2  0  0  0  0
   -4.1481   -0.4466    0.0000 C   0  0  0  0  0  0  0  2  0  0  0  0
   -4.7612    0.1054    0.0000 C   0  0  0  0  0  0  0  2  0  0  0  0
   -4.4256    0.8591    0.0000 C   0  0  0  0  0  0  0  2  0  0  0  0
   -5.1401    1.2716    0.0000 C   0  0  0  0  0  0  0  2  0  0  0  0
   -4.4256    1.6841    0.0000 C   0  0  0  0  0  0  0  2  0  0  0  0
   -3.6051    0.7729    0.0000 O   0  0  0  0  0  0  0  2  0  0  0  0
   -3.4336   -0.0341    0.0000 C   0  0  0  0  0  0  0  2  0  0  0  0
   -2.7191   -0.4466    0.0000 C   0  0  0  0  0  0  0  2  0  0  0  0
   -2.0046   -0.0341    0.0000 O   0  0  0  0  0  0  0  2  0  0  0  0
   -1.2902   -0.4466    0.0000 C   0  0  0  0  0  0  0  2  0  0  0  0
   -1.2902   -1.2716    0.0000 O   0  0  0  0  0  0  0  2  0  0  0  0
   -0.5757   -0.0341    0.0000 N   0  0  0  0  0  0  0  2  0  0  0  0
   -0.5757    0.7909    0.0000 C   0  0  0  0  0  0  0  2  0  0  0  0
    0.1388   -0.4466    0.0000 S   0  0  0  0  0  0  0  2  0  0  0  0
    0.8532   -0.0341    0.0000 N   0  0  0  0  0  0  0  2  0  0  0  0
    0.8532    0.7909    0.0000 C   0  0  0  0  0  0  0  2  0  0  0  0
    1.5677   -0.4466    0.0000 C   0  0  0  0  0  0  0  2  0  0  0  0
    1.5677   -1.2716    0.0000 O   0  0  0  0  0  0  0  2  0  0  0  0
    2.2822   -0.0341    0.0000 O   0  0  0  0  0  0  0  2  0  0  0  0
    2.9967   -0.4466    0.0000 C   0  0  0  0  0  0  0  2  0  0  0  0
    3.7111   -0.0341    0.0000 C   0  0  0  0  0  0  0  2  0  0  0  0
    4.4256   -0.4466    0.0000 C   0  0  0  0  0  0  0  2  0  0  0  0
    5.1401   -0.0341    0.0000 C   0  0  0  0  0  0  0  2  0  0  0  0
  1  2  4  0        0
  2  3  4  0        0
  3  4  4  0        0
  4  5  1  0        0
  5  6  1  0        0
  6  7  1  0        0
  6  8  1  0        0
  6  9  1  0        0
  9 10  1  0        0
  4 10  4  0        0
 10 11  4  0        0
  1 11  4  0        0
 11 12  1  0        0
 12 13  1  0        0
 13 14  2  0        0
 13 15  1  0        0
 15 16  1  0        0
 15 17  1  0        0
 17 18  1  0        0
 18 19  1  0        0
 18 20  1  0        0
 20 21  2  0        0
 20 22  1  0        0
 22 23  1  0        0
 23 24  1  0        0
 24 25  1  0        0
 25 26  1  0        0
M  END
$$$$

CDXL12

 20 20  0  0  0  0  0  0  0  0999 V2000
   -0.7145   -2.0625    0.0000 O   0  0  0  0  0  0  0  2  0  0  0  0
   -0.0000   -1.6500    0.0000 N   0  0  0  0  0  0  0  2  0  0  0  0
    0.7145   -2.0625    0.0000 O   0  0  0  0  0  0  0  2  0  0  0  0
   -0.0000   -0.8250    0.0000 C   0  0  0  0  0  0  0  2  0  0  0  0
    0.7145   -0.4125    0.0000 C   0  0  0  0  0  0  0  2  0  0  0  0
    0.7145    0.4125    0.0000 C   0  0  0  0  0  0  0  2  0  0  0  0
   -0.0000    0.8250    0.0000 C   0  0  0  0  0  0  0  2  0  0  0  0
   -0.0000    1.6500    0.0000 C   0  0  0  0  0  0  0  2  0  0  0  0
    0.7145    2.0625    0.0000 C   0  0  0  0  0  0  0  2  0  0  0  0
    1.4289    1.6500    0.0000 C   0  0  0  0  0  0  0  2  0  0  0  0
    1.4289    0.8250    0.0000 C   0  0  0  0  0  0  0  2  0  0  0  0
    1.4289   -0.8250    0.0000 O   0  0  0  0  0  0  0  2  0  0  0  0
    2.1434   -0.4125    0.0000 C   0  0  0  0  0  0  0  2  0  0  0  0
    2.1434    0.4125    0.0000 O   0  0  0  0  0  0  0  2  0  0  0  0
    2.8579   -0.8250    0.0000 C   0  0  0  0  0  0  0  2  0  0  0  0
   -0.7145   -0.4125    0.0000 C   0  0  0  0  0  0  0  2  0  0  0  0
   -1.4289   -0.8250    0.0000 O   0  0  0  0  0  0  0  2  0  0  0  0
   -2.1434   -0.4125    0.0000 C   0  0  0  0  0  0  0  2  0  0  0  0
   -2.1434    0.4125    0.0000 O   0  0  0  0  0  0  0  2  0  0  0  0
   -2.8579   -0.8250    0.0000 C   0  0  0  0  0  0  0  2  0  0  0  0
  1  2  2  0        0
  2  3  2  0        0
  2  4  1  0        0
  4  5  1  0        0
  5  6  1  0        0
  6  7  4  0        0
  7  8  4  0        0
  8  9  4  0        0
  9 10  4  0        0
 10 11  4  0        0
  6 11  4  0        0
  5 12  1  0        0
 12 13  1  0        0
 13 14  2  0        0
 13 15  1  0        0
  4 16  1  0        0
 16 17  1  0        0
 17 18  1  0        0
 18 19  2  0        0
 18 20  1  0        0
M  END
$$$$

CDXL12

 23 25  0  0  0  0  0  0  0  0999 V2000
    2.1434    1.4598    0.0000 C   0  0  0  0  0  0  0  2  0  0  0  0
    2.8579    1.8723    0.0000 C   0  0  0  0  0  0  0  2  0  0  0  0
    3.5724    1.4598    0.0000 C   0  0  0  0  0  0  0  2  0  0  0  0
    3.5724    0.6348    0.0000 C   0  0  0  0  0  0  0  2  0  0  0  0
    2.8579    0.2223    0.0000 C   0  0  0  0  0  0  0  2  0  0  0  0
    2.1434    0.6348    0.0000 C   0  0  0  0  0  0  0  2  0  0  0  0
    1.4289    0.2223    0.0000 N   0  0  0  0  0  0  0  2  0  0  0  0
    0.7145    0.6348    0.0000 C   0  0  0  0  0  0  0  2  0  0  0  0
    0.7145    1.4598    0.0000 O   0  0  0  0  0  0  0  2  0  0  0  0
    0.0000    0.2223    0.0000 N   0  0  0  0  0  0  0  2  0  0  0  0
    0.0000   -0.6027    0.0000 C   0  0  0  0  0  0  0  2  0  0  0  0
    0.6674   -1.0877    0.0000 C   0  0  0  0  0  0  0  2  0  0  0  0
    0.4125   -1.8723    0.0000 C   0  0  0  0  0  0  0  2  0  0  0  0
   -0.4125   -1.8723    0.0000 C   0  0  0  0  0  0  0  2  0  0  0  0
   -0.6674   -1.0877    0.0000 C   0  0  0  0  0  0  0  2  0  0  0  0
   -0.7145    0.6348    0.0000 C   0  0  0  0  0  0  0  2  0  0  0  0
   -1.4289    0.2223    0.0000 C   0  0  0  0  0  0  0  2  0  0  0  0
   -1.4289   -0.6027    0.0000 C   0  0  0  0  0  0  0  2  0  0  0  0
   -2.1434   -1.0152    0.0000 C   0  0  0  0  0  0  0  2  0  0  0  0
   -2.8579   -0.6027    0.0000 C   0  0  0  0  0  0  0  2  0  0  0  0
   -3.5724   -1.0152    0.0000 Cl  0  0  0  0  0  0  0  2  0  0  0  0
   -2.8579    0.2223    0.0000 C   0  0  0  0  0  0  0  2  0  0  0  0
   -2.1434    0.6348    0.0000 C   0  0  0  0  0  0  0  2  0  0  0  0
  1  2  4  0        0
  2  3  4  0        0
  3  4  4  0        0
  4  5  4  0        0
  5  6  4  0        0
  1  6  4  0        0
  6  7  1  0        0
  7  8  1  0        0
  8  9  2  0        0
  8 10  1  0        0
 10 11  1  0        0
 11 12  1  0        0
 12 13  1  0        0
 13 14  1  0        0
 14 15  1  0        0
 11 15  1  0        0
 10 16  1  0        0
 16 17  1  0        0
 17 18  4  0        0
 18 19  4  0        0
 19 20  4  0        0
 20 21  1  0        0
 20 22  4  0        0
 22 23  4  0        0
 17 23  4  0        0
M  END
$$$$

CDXL12

 12 13  0  0  0  0  0  0  0  0999 V2000
   -0.0553   -0.0000    0.0000 N   0  0  0  0  0  0  0  2  0  0  0  0
   -0.7697   -0.4125    0.0000 C   0  0  0  0  0  0  0  2  0  0  0  0
   -0.7697   -1.2375    0.0000 N   0  0  0  0  0  0  0  2  0  0  0  0
   -1.4842   -0.0000    0.0000 N   0  0  0  0  0  0  0  2  0  0  0  0
   -1.4842    0.8250    0.0000 C   0  0  0  0  0  0  0  2  0  0  0  0
   -2.1987    1.2375    0.0000 N   0  0  0  0  0  0  0  2  0  0  0  0
   -0.7697    1.2375    0.0000 N   0  0  0  0  0  0  0  2  0  0  0  0
   -0.0553    0.8250    0.0000 C   0  0  0  0  0  0  0  2  0  0  0  0
    0.6592    1.2375    0.0000 N   0  0  0  0  0  0  0  2  0  0  0  0
    1.3737    0.8250    0.0000 C   0  0  0  0  0  0  0  2  0  0  0  0
    2.1987    0.8250    0.0000 C   0  0  0  0  0  0  0  2  0  0  0  0
    1.7862    0.1105    0.0000 C   0  0  0  0  0  0  0  2  0  0  0  0
  1  2  4  0        0
  2  3  1  0        0
  2  4  4  0        0
  4  5  4  0        0
  5  6  1  0        0
  5  7  4  0        0
  7  8  4  0        0
  1  8  4  0        0
  8  9  1  0        0
  9 10  1  0        0
 10 11  1  0        0
 11 12  1  0        0
 10 12  1  0        0
M  END
$$$$

CDXL12

 30 32  0  0  0  0  0  0  0  0999 V2000
   -1.7862   -2.2687    0.0000 C   0  0  0  0  0  0  0  2  0  0  0  0
   -1.7862   -3.0937    0.0000 C   0  0  0  0  0  0  0  2  0  0  0  0
   -1.0717   -3.5062    0.0000 C   0  0  0  0  0  0  0  2  0  0  0  0
   -1.0717   -4.3312    0.0000 Cl  0  0  0  0  0  0  0  2  0  0  0  0
   -0.3572   -3.0937    0.0000 C   0  0  0  0  0  0  0  2  0  0  0  0
   -0.3572   -2.2687    0.0000 C   0  0  0  0  0  0  0  2  0  0  0  0
   -1.0717   -1.8562    0.0000 C   0  0  0  0  0  0  0  2  0  0  0  0
   -1.0717   -1.0312    0.0000 C   0  0  0  0  0  0  0  2  0  0  0  0
   -1.7862   -0.6187    0.0000 C   0  0  0  0  0  0  0  2  0  0  0  0
   -1.7862    0.2063    0.0000 C   0  0  0  0  0  0  0  2  0  0  0  0
   -2.5006   -1.0312    0.0000 C   0  0  0  0  0  0  0  2  0  0  0  0
   -0.3572   -0.6187    0.0000 C   0  0  0  0  0  0  0  2  0  0  0  0
   -0.3572    0.2063    0.0000 O   0  0  0  0  0  0  0  2  0  0  0  0
    0.3572   -1.0312    0.0000 O   0  0  0  0  0  0  0  2  0  0  0  0
    1.0717   -0.6188    0.0000 C   0  0  0  0  0  0  0  2  0  0  0  0
    1.7862   -1.0312    0.0000 C   0  0  0  0  0  0  0  2  0  0  0  0
    2.5006   -1.4437    0.0000 N   0  0  0  0  0  0  0  2  0  0  0  0
    1.0717    0.2062    0.0000 C   0  0  0  0  0  0  0  2  0  0  0  0
    1.7862    0.6187    0.0000 C   0  0  0  0  0  0  0  2  0  0  0  0
    1.7862    1.4437    0.0000 C   0  0  0  0  0  0  0  2  0  0  0  0
    1.0717    1.8563    0.0000 C   0  0  0  0  0  0  0  2  0  0  0  0
    0.3572    1.4438    0.0000 C   0  0  0  0  0  0  0  2  0  0  0  0
   -0.3572    1.8563    0.0000 O   0  0  0  0  0  0  0  2  0  0  0  0
   -0.3572    2.6813    0.0000 C   0  0  0  0  0  0  0  2  0  0  0  0
   -1.0717    3.0937    0.0000 C   0  0  0  0  0  0  0  2  0  0  0  0
   -1.0717    3.9187    0.0000 C   0  0  0  0  0  0  0  2  0  0  0  0
   -0.3572    4.3312    0.0000 C   0  0  0  0  0  0  0  2  0  0  0  0
    0.3572    3.9187    0.0000 C   0  0  0  0  0  0  0  2  0  0  0  0
    0.3572    3.0938    0.0000 C   0  0  0  0  0  0  0  2  0  0  0  0
    0.3572    0.6188    0.0000 C   0  0  0  0  0  0  0  2  0  0  0  0
  1  2  4  0        0
  2  3  4  0        0
  3  4  1  0        0
  3  5  4  0        0
  5  6  4  0        0
  6  7  4  0        0
  1  7  4  0        0
  7  8  1  0        0
  8  9  1  0        0
  9 10  1  0        0
  9 11  1  0        0
  8 12  1  0        0
 12 13  2  0        0
 12 14  1  0        0
 14 15  1  0        0
 15 16  1  0        0
 16 17  3  0        0
 15 18  1  0        0
 18 19  4  0        0
 19 20  4  0        0
 20 21  4  0        0
 21 22  4  0        0
 22 23  1  0        0
 23 24  1  0        0
 24 25  4  0        0
 25 26  4  0        0
 26 27  4  0        0
 27 28  4  0        0
 28 29  4  0        0
 24 29  4  0        0
 22 30  4  0        0
 18 30  4  0        0
M  END
$$$$

CDXL12

 18 19  0  0  0  0  0  0  0  0999 V2000
    1.2196   -0.6233    0.0000 N   0  0  0  0  0  0  0  2  0  0  0  0
    2.0265   -0.4517    0.0000 C   0  0  0  0  0  0  0  2  0  0  0  0
    2.4390   -1.1662    0.0000 N   0  0  0  0  0  0  0  2  0  0  0  0
    1.8870   -1.7793    0.0000 C   0  0  0  0  0  0  0  2  0  0  0  0
    1.1333   -1.4438    0.0000 N   0  0  0  0  0  0  0  2  0  0  0  0
    0.4189   -1.8563    0.0000 C   0  0  0  0  0  0  0  2  0  0  0  0
   -0.2956   -1.4438    0.0000 C   0  0  0  0  0  0  0  2  0  0  0  0
   -0.2956   -0.6188    0.0000 C   0  0  0  0  0  0  0  2  0  0  0  0
   -1.0101   -0.2062    0.0000 C   0  0  0  0  0  0  0  2  0  0  0  0
   -1.7246   -0.6188    0.0000 Cl  0  0  0  0  0  0  0  2  0  0  0  0
   -1.0101    0.6188    0.0000 C   0  0  0  0  0  0  0  2  0  0  0  0
   -0.2956    1.0313    0.0000 C   0  0  0  0  0  0  0  2  0  0  0  0
   -0.2956    1.8563    0.0000 Cl  0  0  0  0  0  0  0  2  0  0  0  0
    0.4189    0.6188    0.0000 C   0  0  0  0  0  0  0  2  0  0  0  0
    0.4189   -0.2062    0.0000 C   0  0  0  0  0  0  0  2  0  0  0  0
   -1.0101   -1.8563    0.0000 C   0  0  0  0  0  0  0  2  0  0  0  0
   -1.7246   -1.4438    0.0000 C   0  0  0  0  0  0  0  2  0  0  0  0
   -2.4390   -1.8563    0.0000 C   0  0  0  0  0  0  0  2  0  0  0  0
  1  2  4  0        0
  2  3  4  0        0
  3  4  4  0        0
  4  5  4  0        0
  1  5  4  0        0
  5  6  1  0        0
  6  7  1  0        0
  7  8  1  0        0
  8  9  4  0        0
  9 10  1  0        0
  9 11  4  0        0
 11 12  4  0        0
 12 13  1  0        0
 12 14  4  0        0
 14 15  4  0        0
  8 15  4  0        0
  7 16  1  0        0
 16 17  1  0        0
 17 18  1  0        0
M  END
$$$$

CDXL12

 23 24  0  0  0  0  0  0  0  0999 V2000
   -1.4289   -1.0313    0.0000 C   0  0  0  0  0  0  0  2  0  0  0  0
   -1.4289   -1.8563    0.0000 F   0  0  0  0  0  0  0  2  0  0  0  0
   -0.7145   -1.4438    0.0000 F   0  0  0  0  0  0  0  2  0  0  0  0
   -0.7145   -0.6188    0.0000 F   0  0  0  0  0  0  0  2  0  0  0  0
   -2.1434   -0.6188    0.0000 C   0  0  0  0  0  0  0  2  0  0  0  0
   -2.8579   -1.0312    0.0000 C   0  0  0  0  0  0  0  2  0  0  0  0
   -3.5724   -0.6188    0.0000 C   0  0  0  0  0  0  0  2  0  0  0  0
   -3.5724    0.2062    0.0000 C   0  0  0  0  0  0  0  2  0  0  0  0
   -2.8579    0.6188    0.0000 C   0  0  0  0  0  0  0  2  0  0  0  0
   -2.1434    0.2062    0.0000 C   0  0  0  0  0  0  0  2  0  0  0  0
   -1.4289    0.6188    0.0000 C   0  0  0  0  0  0  0  2  0  0  0  0
   -1.4289    1.4438    0.0000 O   0  0  0  0  0  0  0  2  0  0  0  0
   -0.7145    0.2062    0.0000 N   0  0  0  0  0  0  0  2  0  0  0  0
   -0.0000    0.6187    0.0000 C   0  0  0  0  0  0  0  2  0  0  0  0
   -0.0000    1.4438    0.0000 C   0  0  0  0  0  0  0  2  0  0  0  0
    0.7145    1.8563    0.0000 C   0  0  0  0  0  0  0  2  0  0  0  0
    1.4289    1.4438    0.0000 C   0  0  0  0  0  0  0  2  0  0  0  0
    1.4289    0.6188    0.0000 C   0  0  0  0  0  0  0  2  0  0  0  0
    2.1434    0.2062    0.0000 O   0  0  0  0  0  0  0  2  0  0  0  0
    2.8579    0.6187    0.0000 C   0  0  0  0  0  0  0  2  0  0  0  0
    2.8579    1.4438    0.0000 C   0  0  0  0  0  0  0  2  0  0  0  0
    3.5724    0.2062    0.0000 C   0  0  0  0  0  0  0  2  0  0  0  0
    0.7145    0.2062    0.0000 C   0  0  0  0  0  0  0  2  0  0  0  0
  1  2  1  0        0
  1  3  1  0        0
  1  4  1  0        0
  1  5  1  0        0
  5  6  4  0        0
  6  7  4  0        0
  7  8  4  0        0
  8  9  4  0        0
  9 10  4  0        0
  5 10  4  0        0
 10 11  1  0        0
 11 12  2  0        0
 11 13  1  0        0
 13 14  1  0        0
 14 15  4  0        0
 15 16  4  0        0
 16 17  4  0        0
 17 18  4  0        0
 18 19  1  0        0
 19 20  1  0        0
 20 21  1  0        0
 20 22  1  0        0
 18 23  4  0        0
 14 23  4  0        0
M  END
$$$$

CDXL12

 26 28  0  0  0  0  0  0  0  0999 V2000
   -2.6419   -1.1606    0.0000 O   0  0  0  0  0  0  0  2  0  0  0  0
   -3.1940   -0.5475    0.0000 C   0  0  0  0  0  0  0  2  0  0  0  0
   -4.0190   -0.5475    0.0000 C   0  0  0  0  0  0  0  2  0  0  0  0
   -4.4315    0.1670    0.0000 C   0  0  0  0  0  0  0  2  0  0  0  0
   -5.2565    0.1670    0.0000 Cl  0  0  0  0  0  0  0  2  0  0  0  0
   -4.0190    0.8815    0.0000 C   0  0  0  0  0  0  0  2  0  0  0  0
   -3.1940    0.8815    0.0000 C   0  0  0  0  0  0  0  2  0  0  0  0
   -2.7815    0.1670    0.0000 C   0  0  0  0  0  0  0  2  0  0  0  0
   -1.9745   -0.0045    0.0000 N   0  0  0  0  0  0  0  2  0  0  0  0
   -1.8883   -0.8250    0.0000 C   0  0  0  0  0  0  0  2  0  0  0  0
   -1.1738   -1.2375    0.0000 O   0  0  0  0  0  0  0  2  0  0  0  0
   -0.4593   -0.8250    0.0000 C   0  0  0  0  0  0  0  2  0  0  0  0
   -0.4593    0.0000    0.0000 C   0  0  0  0  0  0  0  2  0  0  0  0
    0.2552    0.4125    0.0000 C   0  0  0  0  0  0  0  2  0  0  0  0
    0.9696   -0.0000    0.0000 C   0  0  0  0  0  0  0  2  0  0  0  0
    1.6841    0.4125    0.0000 O   0  0  0  0  0  0  0  2  0  0  0  0
    2.3986   -0.0000    0.0000 C   0  0  0  0  0  0  0  2  0  0  0  0
    1.9861   -0.7145    0.0000 C   0  0  0  0  0  0  0  2  0  0  0  0
    2.8111   -0.7145    0.0000 H   0  0  0  0  0  0  0  2  0  0  0  0
    3.1130    0.4125    0.0000 C   0  0  0  0  0  0  0  2  0  0  0  0
    3.1130    1.2375    0.0000 O   0  0  0  0  0  0  0  2  0  0  0  0
    3.8275   -0.0000    0.0000 O   0  0  0  0  0  0  0  2  0  0  0  0
    4.5420    0.4125    0.0000 C   0  0  0  0  0  0  0  2  0  0  0  0
    5.2565   -0.0000    0.0000 C   0  0  0  0  0  0  0  2  0  0  0  0
    0.9696   -0.8250    0.0000 C   0  0  0  0  0  0  0  2  0  0  0  0
    0.2552   -1.2375    0.0000 C   0  0  0  0  0  0  0  2  0  0  0  0
  1  2  4  0        0
  2  3  4  0        0
  3  4  4  0        0
  4  5  1  0        0
  4  6  4  0        0
  6  7  4  0        0
  7  8  4  0        0
  2  8  4  0        0
  8  9  4  0        0
  9 10  4  0        0
  1 10  4  0        0
 10 11  1  0        0
 11 12  1  0        0
 12 13  4  0        0
 13 14  4  0        0
 14 15  4  0        0
 15 16  1  0        0
 16 17  1  0        0
 17 18  1  1        0
 17 19  1  6        0
 17 20  1  0        0
 20 21  2  0        0
 20 22  1  0        0
 22 23  1  0        0
 23 24  1  0        0
 15 25  4  0        0
 25 26  4  0        0
 12 26  4  0        0
M  END
$$$$

CDXL12

 32 34  0  0  0  0  0  0  0  0999 V2000
   -2.8579    0.0000    0.0000 C   0  0  0  0  0  0  0  2  0  0  0  0
   -2.8579    0.8250    0.0000 Br  0  0  0  0  0  0  0  2  0  0  0  0
   -3.5724   -0.4125    0.0000 C   0  0  0  0  0  0  0  2  0  0  0  0
   -4.2868   -0.8250    0.0000 Br  0  0  0  0  0  0  0  2  0  0  0  0
   -3.5724   -1.2375    0.0000 Br  0  0  0  0  0  0  0  2  0  0  0  0
   -4.2868    0.0000    0.0000 Br  0  0  0  0  0  0  0  2  0  0  0  0
   -2.1434   -0.4125    0.0000 C   0  0  0  0  0  0  0  2  0  0  0  0
   -2.1434    0.4125    0.0000 H   0  0  0  0  0  0  0  2  0  0  0  0
   -2.1434   -1.2375    0.0000 C   0  0  0  0  0  0  0  2  0  0  0  0
   -2.1434   -2.0625    0.0000 C   0  0  0  0  0  0  0  2  0  0  0  0
   -2.8579   -1.6500    0.0000 C   0  0  0  0  0  0  0  2  0  0  0  0
   -1.4289   -0.8250    0.0000 C   0  0  0  0  0  0  0  2  0  0  0  0
   -0.7145   -1.2375    0.0000 H   0  0  0  0  0  0  0  2  0  0  0  0
   -0.7145   -0.4125    0.0000 C   0  0  0  0  0  0  0  2  0  0  0  0
   -0.7145    0.4125    0.0000 O   0  0  0  0  0  0  0  2  0  0  0  0
    0.0000   -0.8250    0.0000 O   0  0  0  0  0  0  0  2  0  0  0  0
    0.7145   -0.4125    0.0000 C   0  0  0  0  0  0  0  2  0  0  0  0
    1.4289   -0.8250    0.0000 C   0  0  0  0  0  0  0  2  0  0  0  0
    2.1434   -1.2375    0.0000 N   0  0  0  0  0  0  0  2  0  0  0  0
    0.7145    0.4125    0.0000 C   0  0  0  0  0  0  0  2  0  0  0  0
    0.0000    0.8250    0.0000 C   0  0  0  0  0  0  0  2  0  0  0  0
    0.0000    1.6500    0.0000 C   0  0  0  0  0  0  0  2  0  0  0  0
    0.7145    2.0625    0.0000 C   0  0  0  0  0  0  0  2  0  0  0  0
    1.4289    1.6500    0.0000 C   0  0  0  0  0  0  0  2  0  0  0  0
    2.1434    2.0625    0.0000 O   0  0  0  0  0  0  0  2  0  0  0  0
    2.8579    1.6500    0.0000 C   0  0  0  0  0  0  0  2  0  0  0  0
    3.5724    2.0625    0.0000 C   0  0  0  0  0  0  0  2  0  0  0  0
    4.2868    1.6500    0.0000 C   0  0  0  0  0  0  0  2  0  0  0  0
    4.2868    0.8250    0.0000 C   0  0  0  0  0  0  0  2  0  0  0  0
    3.5724    0.4125    0.0000 C   0  0  0  0  0  0  0  2  0  0  0  0
    2.8579    0.8250    0.0000 C   0  0  0  0  0  0  0  2  0  0  0  0
    1.4289    0.8250    0.0000 C   0  0  0  0  0  0  0  2  0  0  0  0
  1  2  1  0        0
  1  3  1  0        0
  3  4  1  0        0
  3  5  1  0        0
  3  6  1  0        0
  1  7  1  0        0
  7  8  1  6        0
  7  9  1  0        0
  9 10  1  0        0
  9 11  1  0        0
  9 12  1  0        0
  7 12  1  0        0
 12 13  1  6        0
 12 14  1  1        0
 14 15  2  0        0
 14 16  1  0        0
 16 17  1  0        0
 17 18  1  0        0
 18 19  3  0        0
 17 20  1  0        0
 20 21  4  0        0
 21 22  4  0        0
 22 23  4  0        0
 23 24  4  0        0
 24 25  1  0        0
 25 26  1  0        0
 26 27  4  0        0
 27 28  4  0        0
 28 29  4  0        0
 29 30  4  0        0
 30 31  4  0        0
 26 31  4  0        0
 24 32  4  0        0
 20 32  4  0        0
M  END
$$$$

CDXL12

 19 20  0  0  0  0  0  0  0  0999 V2000
   -1.0717   -0.8410    0.0000 C   0  0  0  0  0  0  0  2  0  0  0  0
   -0.3572   -1.2535    0.0000 C   0  0  0  0  0  0  0  2  0  0  0  0
   -0.3572   -2.0785    0.0000 C   0  0  0  0  0  0  0  2  0  0  0  0
    0.3572   -2.4910    0.0000 C   0  0  0  0  0  0  0  2  0  0  0  0
    1.0717   -2.0785    0.0000 C   0  0  0  0  0  0  0  2  0  0  0  0
    1.0717   -1.2535    0.0000 C   0  0  0  0  0  0  0  2  0  0  0  0
    1.7862   -0.8410    0.0000 C   0  0  0  0  0  0  0  2  0  0  0  0
    0.3572   -0.8410    0.0000 C   0  0  0  0  0  0  0  2  0  0  0  0
    0.3572   -0.0160    0.0000 N   0  0  0  0  0  0  0  2  0  0  0  0
   -0.3572    0.3965    0.0000 C   0  0  0  0  0  0  0  2  0  0  0  0
   -0.3572    1.2215    0.0000 O   0  0  0  0  0  0  0  2  0  0  0  0
   -1.0717   -0.0160    0.0000 C   0  0  0  0  0  0  0  2  0  0  0  0
   -1.7862    0.3965    0.0000 Cl  0  0  0  0  0  0  0  2  0  0  0  0
    1.0717    0.3965    0.0000 C   0  0  0  0  0  0  0  2  0  0  0  0
    1.0717    1.2215    0.0000 N   0  0  0  0  0  0  0  2  0  0  0  0
    0.4043    1.7064    0.0000 C   0  0  0  0  0  0  0  2  0  0  0  0
    0.6592    2.4910    0.0000 C   0  0  0  0  0  0  0  2  0  0  0  0
    1.4842    2.4910    0.0000 C   0  0  0  0  0  0  0  2  0  0  0  0
    1.7391    1.7064    0.0000 N   0  0  0  0  0  0  0  2  0  0  0  0
  1  2  1  0        0
  2  3  4  0        0
  3  4  4  0        0
  4  5  4  0        0
  5  6  4  0        0
  6  7  1  0        0
  6  8  4  0        0
  2  8  4  0        0
  8  9  1  0        0
  9 10  1  0        0
 10 11  2  0        0
 10 12  1  0        0
 12 13  1  0        0
  9 14  1  0        0
 14 15  1  0        0
 15 16  4  0        0
 16 17  4  0        0
 17 18  4  0        0
 18 19  4  0        0
 15 19  4  0        0
M  END
$$$$

CDXL12

 35 37  0  0  0  0  0  0  0  0999 V2000
    2.4454   -2.6812    0.0000 N   0  0  0  0  0  0  0  2  0  0  0  0
    3.1599   -3.0937    0.0000 C   0  0  0  0  0  0  0  2  0  0  0  0
    3.8743   -2.6812    0.0000 C   0  0  0  0  0  0  0  2  0  0  0  0
    4.2868   -3.3957    0.0000 C   0  0  0  0  0  0  0  2  0  0  0  0
    4.6993   -2.6812    0.0000 C   0  0  0  0  0  0  0  2  0  0  0  0
    3.8743   -1.8562    0.0000 C   0  0  0  0  0  0  0  2  0  0  0  0
    3.1599   -1.4437    0.0000 N   0  0  0  0  0  0  0  2  0  0  0  0
    2.4454   -1.8562    0.0000 C   0  0  0  0  0  0  0  2  0  0  0  0
    1.7309   -1.4437    0.0000 N   0  0  0  0  0  0  0  2  0  0  0  0
    1.0164   -1.8562    0.0000 N   0  0  0  0  0  0  0  2  0  0  0  0
    0.3020   -1.4437    0.0000 C   0  0  0  0  0  0  0  2  0  0  0  0
   -0.4125   -1.8562    0.0000 C   0  0  0  0  0  0  0  2  0  0  0  0
   -1.1270   -1.4437    0.0000 C   0  0  0  0  0  0  0  2  0  0  0  0
   -1.8414   -1.8562    0.0000 C   0  0  0  0  0  0  0  2  0  0  0  0
   -2.5559   -1.4437    0.0000 C   0  0  0  0  0  0  0  2  0  0  0  0
   -3.2704   -1.8563    0.0000 C   0  0  0  0  0  0  0  2  0  0  0  0
   -3.2704   -2.6812    0.0000 C   0  0  0  0  0  0  0  2  0  0  0  0
   -3.9849   -3.0938    0.0000 C   0  0  0  0  0  0  0  2  0  0  0  0
   -3.9849   -3.9188    0.0000 F   0  0  0  0  0  0  0  2  0  0  0  0
   -4.6993   -3.5063    0.0000 F   0  0  0  0  0  0  0  2  0  0  0  0
   -4.6993   -2.6812    0.0000 F   0  0  0  0  0  0  0  2  0  0  0  0
   -2.5559   -3.0937    0.0000 C   0  0  0  0  0  0  0  2  0  0  0  0
   -1.8414   -2.6812    0.0000 C   0  0  0  0  0  0  0  2  0  0  0  0
    0.3020   -0.6187    0.0000 C   0  0  0  0  0  0  0  2  0  0  0  0
    1.0164   -0.2062    0.0000 C   0  0  0  0  0  0  0  2  0  0  0  0
    1.0164    0.6188    0.0000 C   0  0  0  0  0  0  0  2  0  0  0  0
    1.7309    1.0313    0.0000 C   0  0  0  0  0  0  0  2  0  0  0  0
    1.7309    1.8563    0.0000 C   0  0  0  0  0  0  0  2  0  0  0  0
    1.0164    2.2687    0.0000 C   0  0  0  0  0  0  0  2  0  0  0  0
    1.0164    3.0938    0.0000 C   0  0  0  0  0  0  0  2  0  0  0  0
    0.3020    3.5063    0.0000 F   0  0  0  0  0  0  0  2  0  0  0  0
    1.0164    3.9188    0.0000 F   0  0  0  0  0  0  0  2  0  0  0  0
    1.7309    3.5063    0.0000 F   0  0  0  0  0  0  0  2  0  0  0  0
    0.3020    1.8563    0.0000 C   0  0  0  0  0  0  0  2  0  0  0  0
    0.3020    1.0313    0.0000 C   0  0  0  0  0  0  0  2  0  0  0  0
  1  2  1  0        0
  2  3  1  0        0
  3  4  1  0        0
  3  5  1  0        0
  3  6  1  0        0
  6  7  1  0        0
  7  8  1  0        0
  1  8  1  0        0
  8  9  2  0        0
  9 10  1  0        0
 10 11  2  0        0
 11 12  1  0        0
 12 13  2  0        0
 13 14  1  0        0
 14 15  4  0        0
 15 16  4  0        0
 16 17  4  0        0
 17 18  1  0        0
 18 19  1  0        0
 18 20  1  0        0
 18 21  1  0        0
 17 22  4  0        0
 22 23  4  0        0
 14 23  4  0        0
 11 24  1  0        0
 24 25  2  0        0
 25 26  1  0        0
 26 27  4  0        0
 27 28  4  0        0
 28 29  4  0        0
 29 30  1  0        0
 30 31  1  0        0
 30 32  1  0        0
 30 33  1  0        0
 29 34  4  0        0
 34 35  4  0        0
 26 35  4  0        0
M  END
$$$$

CDXL12

 22 23  0  0  0  0  0  0  0  0999 V2000
    1.0717    0.0000    0.0000 C   0  0  0  0  0  0  0  2  0  0  0  0
    1.7862    0.4125    0.0000 C   0  0  0  0  0  0  0  2  0  0  0  0
    2.5006    0.0000    0.0000 C   0  0  0  0  0  0  0  2  0  0  0  0
    3.2151    0.4125    0.0000 C   0  0  0  0  0  0  0  2  0  0  0  0
    3.2151    1.2375    0.0000 C   0  0  0  0  0  0  0  2  0  0  0  0
    3.9296    0.8250    0.0000 C   0  0  0  0  0  0  0  2  0  0  0  0
    3.9296    0.0000    0.0000 C   0  0  0  0  0  0  0  2  0  0  0  0
    2.5006   -0.8250    0.0000 C   0  0  0  0  0  0  0  2  0  0  0  0
    1.7862   -1.2375    0.0000 C   0  0  0  0  0  0  0  2  0  0  0  0
    1.0717   -0.8250    0.0000 C   0  0  0  0  0  0  0  2  0  0  0  0
    0.3572   -1.2375    0.0000 C   0  0  0  0  0  0  0  2  0  0  0  0
   -0.3572   -0.8250    0.0000 C   0  0  0  0  0  0  0  2  0  0  0  0
   -0.3572    0.0000    0.0000 C   0  0  0  0  0  0  0  2  0  0  0  0
   -1.0717   -1.2375    0.0000 C   0  0  0  0  0  0  0  2  0  0  0  0
   -1.7862   -0.8250    0.0000 N   0  0  0  0  0  0  0  2  0  0  0  0
   -1.7862    0.0000    0.0000 C   0  0  0  0  0  0  0  2  0  0  0  0
   -2.5006    0.4125    0.0000 C   0  0  0  0  0  0  0  2  0  0  0  0
   -2.5006    1.2375    0.0000 C   0  0  0  0  0  0  0  2  0  0  0  0
   -3.2151    0.0000    0.0000 O   0  0  0  0  0  0  0  2  0  0  0  0
   -3.2151   -0.8250    0.0000 C   0  0  0  0  0  0  0  2  0  0  0  0
   -3.9296   -1.2375    0.0000 C   0  0  0  0  0  0  0  2  0  0  0  0
   -2.5006   -1.2375    0.0000 C   0  0  0  0  0  0  0  2  0  0  0  0
  1  2  4  0        0
  2  3  4  0        0
  3  4  1  0        0
  4  5  1  0        0
  4  6  1  0        0
  4  7  1  0        0
  3  8  4  0        0
  8  9  4  0        0
  9 10  4  0        0
  1 10  4  0        0
 10 11  1  0        0
 11 12  1  0        0
 12 13  1  0        0
 12 14  1  0        0
 14 15  1  0        0
 15 16  1  0        0
 16 17  1  0        0
 17 18  1  0        0
 17 19  1  0        0
 19 20  1  0        0
 20 21  1  0        0
 20 22  1  0        0
 15 22  1  0        0
M  END
$$$$

CDXL12

 23 24  0  0  0  0  0  0  0  0999 V2000
   -0.7145   -0.7415    0.0000 Cl  0  0  0  0  0  0  0  2  0  0  0  0
   -1.4289   -0.3290    0.0000 C   0  0  0  0  0  0  0  2  0  0  0  0
   -2.1434   -0.7415    0.0000 C   0  0  0  0  0  0  0  2  0  0  0  0
   -2.8579   -0.3290    0.0000 C   0  0  0  0  0  0  0  2  0  0  0  0
   -3.5724   -0.7415    0.0000 Cl  0  0  0  0  0  0  0  2  0  0  0  0
   -2.8579    0.4960    0.0000 C   0  0  0  0  0  0  0  2  0  0  0  0
   -2.1434    0.9085    0.0000 C   0  0  0  0  0  0  0  2  0  0  0  0
   -2.1434    1.7335    0.0000 Cl  0  0  0  0  0  0  0  2  0  0  0  0
   -1.4289    0.4960    0.0000 C   0  0  0  0  0  0  0  2  0  0  0  0
   -0.7145    0.9085    0.0000 O   0  0  0  0  0  0  0  2  0  0  0  0
    0.0000    0.4960    0.0000 C   0  0  0  0  0  0  0  2  0  0  0  0
    0.7145    0.9085    0.0000 C   0  0  0  0  0  0  0  2  0  0  0  0
    1.4289    0.4960    0.0000 N   0  0  0  0  0  0  0  2  0  0  0  0
    2.1434    0.9085    0.0000 C   0  0  0  0  0  0  0  2  0  0  0  0
    2.8579    0.4960    0.0000 C   0  0  0  0  0  0  0  2  0  0  0  0
    3.5724    0.9085    0.0000 C   0  0  0  0  0  0  0  2  0  0  0  0
    1.4289   -0.3290    0.0000 C   0  0  0  0  0  0  0  2  0  0  0  0
    0.7145   -0.7415    0.0000 O   0  0  0  0  0  0  0  2  0  0  0  0
    2.1434   -0.7415    0.0000 N   0  0  0  0  0  0  0  2  0  0  0  0
    2.8971   -0.4059    0.0000 C   0  0  0  0  0  0  0  2  0  0  0  0
    3.4491   -1.0190    0.0000 N   0  0  0  0  0  0  0  2  0  0  0  0
    3.0366   -1.7335    0.0000 C   0  0  0  0  0  0  0  2  0  0  0  0
    2.2296   -1.5620    0.0000 C   0  0  0  0  0  0  0  2  0  0  0  0
  1  2  1  0        0
  2  3  4  0        0
  3  4  4  0        0
  4  5  1  0        0
  4  6  4  0        0
  6  7  4  0        0
  7  8  1  0        0
  7  9  4  0        0
  2  9  4  0        0
  9 10  1  0        0
 10 11  1  0        0
 11 12  1  0        0
 12 13  1  0        0
 13 14  1  0        0
 14 15  1  0        0
 15 16  1  0        0
 13 17  1  0        0
 17 18  2  0        0
 17 19  1  0        0
 19 20  4  0        0
 20 21  4  0        0
 21 22  4  0        0
 22 23  4  0        0
 19 23  4  0        0
M  END
$$$$

CDXL12

 17 18  0  0  0  0  0  0  0  0999 V2000
    0.3572   -1.4438    0.0000 Br  0  0  0  0  0  0  0  2  0  0  0  0
   -0.3572   -1.0313    0.0000 C   0  0  0  0  0  0  0  2  0  0  0  0
   -1.0717   -1.4437    0.0000 C   0  0  0  0  0  0  0  2  0  0  0  0
   -1.7862   -1.0313    0.0000 C   0  0  0  0  0  0  0  2  0  0  0  0
   -1.7862   -0.2062    0.0000 C   0  0  0  0  0  0  0  2  0  0  0  0
   -1.0717    0.2062    0.0000 C   0  0  0  0  0  0  0  2  0  0  0  0
   -0.3572   -0.2062    0.0000 C   0  0  0  0  0  0  0  2  0  0  0  0
    0.3572    0.2062    0.0000 C   0  0  0  0  0  0  0  2  0  0  0  0
    0.3572    1.0313    0.0000 C   0  0  0  0  0  0  0  2  0  0  0  0
    1.0717    1.4438    0.0000 C   0  0  0  0  0  0  0  2  0  0  0  0
    1.7862    1.0313    0.0000 C   0  0  0  0  0  0  0  2  0  0  0  0
    1.7862    0.2062    0.0000 C   0  0  0  0  0  0  0  2  0  0  0  0
    1.0717   -0.2062    0.0000 C   0  0  0  0  0  0  0  2  0  0  0  0
    2.5006   -0.2062    0.0000 Br  0  0  0  0  0  0  0  2  0  0  0  0
   -0.3572    1.4438    0.0000 Br  0  0  0  0  0  0  0  2  0  0  0  0
   -2.5006    0.2062    0.0000 Br  0  0  0  0  0  0  0  2  0  0  0  0
   -2.5006   -1.4437    0.0000 Br  0  0  0  0  0  0  0  2  0  0  0  0
  1  2  1  0        0
  2  3  4  0        0
  3  4  4  0        0
  4  5  4  0        0
  5  6  4  0        0
  6  7  4  0        0
  2  7  4  0        0
  7  8  1  0        0
  8  9  4  0        0
  9 10  4  0        0
 10 11  4  0        0
 11 12  4  0        0
 12 13  4  0        0
  8 13  4  0        0
 12 14  1  0        0
  9 15  1  0        0
  5 16  1  0        0
  4 17  1  0        0
M  END
$$$$

CDXL12

 16 17  0  0  0  0  0  0  0  0999 V2000
   -0.7145    0.8250    0.0000 C   0  0  0  0  0  0  0  2  0  0  0  0
   -1.4289    0.4125    0.0000 C   0  0  0  0  0  0  0  2  0  0  0  0
   -2.1434    0.8250    0.0000 Cl  0  0  0  0  0  0  0  2  0  0  0  0
   -1.4289   -0.4125    0.0000 C   0  0  0  0  0  0  0  2  0  0  0  0
   -0.7145   -0.8250    0.0000 C   0  0  0  0  0  0  0  2  0  0  0  0
   -0.7145   -1.6500    0.0000 Cl  0  0  0  0  0  0  0  2  0  0  0  0
    0.0000   -0.4125    0.0000 C   0  0  0  0  0  0  0  2  0  0  0  0
    0.0000    0.4125    0.0000 C   0  0  0  0  0  0  0  2  0  0  0  0
    0.7145    0.8250    0.0000 C   0  0  0  0  0  0  0  2  0  0  0  0
    0.7145    1.6500    0.0000 Cl  0  0  0  0  0  0  0  2  0  0  0  0
    1.4289    0.4125    0.0000 C   0  0  0  0  0  0  0  2  0  0  0  0
    2.1434    0.8250    0.0000 Cl  0  0  0  0  0  0  0  2  0  0  0  0
    1.4289   -0.4125    0.0000 C   0  0  0  0  0  0  0  2  0  0  0  0
    2.1434   -0.8250    0.0000 Cl  0  0  0  0  0  0  0  2  0  0  0  0
    0.7145   -0.8250    0.0000 C   0  0  0  0  0  0  0  2  0  0  0  0
    0.7145   -1.6500    0.0000 Cl  0  0  0  0  0  0  0  2  0  0  0  0
  1  2  4  0        0
  2  3  1  0        0
  2  4  4  0        0
  4  5  4  0        0
  5  6  1  0        0
  5  7  4  0        0
  7  8  4  0        0
  1  8  4  0        0
  8  9  4  0        0
  9 10  1  0        0
  9 11  4  0        0
 11 12  1  0        0
 11 13  4  0        0
 13 14  1  0        0
 13 15  4  0        0
  7 15  4  0        0
 15 16  1  0        0
M  END
$$$$

CDXL12

 31 33  0  0  0  0  0  0  0  0999 V2000
   -2.9131    0.5082    0.0000 F   0  0  0  0  0  0  0  2  0  0  0  0
   -2.9131   -0.3168    0.0000 C   0  0  0  0  0  0  0  2  0  0  0  0
   -3.6276    0.0957    0.0000 F   0  0  0  0  0  0  0  2  0  0  0  0
   -3.6276   -0.7293    0.0000 F   0  0  0  0  0  0  0  2  0  0  0  0
   -2.1987   -0.7293    0.0000 C   0  0  0  0  0  0  0  2  0  0  0  0
   -2.1987   -1.5543    0.0000 Cl  0  0  0  0  0  0  0  2  0  0  0  0
   -1.4842   -0.3168    0.0000 C   0  0  0  0  0  0  0  2  0  0  0  0
   -0.7697   -0.7293    0.0000 C   0  0  0  0  0  0  0  2  0  0  0  0
   -0.3572   -1.4437    0.0000 C   0  0  0  0  0  0  0  2  0  0  0  0
    0.0553   -2.1582    0.0000 C   0  0  0  0  0  0  0  2  0  0  0  0
   -0.7697   -2.1582    0.0000 C   0  0  0  0  0  0  0  2  0  0  0  0
    0.0553   -0.7293    0.0000 C   0  0  0  0  0  0  0  2  0  0  0  0
    0.7697   -0.3168    0.0000 C   0  0  0  0  0  0  0  2  0  0  0  0
    0.7697    0.5082    0.0000 O   0  0  0  0  0  0  0  2  0  0  0  0
    1.4842   -0.7293    0.0000 O   0  0  0  0  0  0  0  2  0  0  0  0
    2.1987   -0.3168    0.0000 C   0  0  0  0  0  0  0  2  0  0  0  0
    2.9131   -0.7293    0.0000 C   0  0  0  0  0  0  0  2  0  0  0  0
    3.6276   -1.1418    0.0000 N   0  0  0  0  0  0  0  2  0  0  0  0
    2.1987    0.5082    0.0000 C   0  0  0  0  0  0  0  2  0  0  0  0
    1.4842    0.9207    0.0000 C   0  0  0  0  0  0  0  2  0  0  0  0
    1.4842    1.7457    0.0000 C   0  0  0  0  0  0  0  2  0  0  0  0
    0.7697    2.1582    0.0000 O   0  0  0  0  0  0  0  2  0  0  0  0
    0.0553    1.7457    0.0000 C   0  0  0  0  0  0  0  2  0  0  0  0
    0.0553    0.9207    0.0000 C   0  0  0  0  0  0  0  2  0  0  0  0
   -0.6592    0.5082    0.0000 C   0  0  0  0  0  0  0  2  0  0  0  0
   -1.3737    0.9207    0.0000 C   0  0  0  0  0  0  0  2  0  0  0  0
   -1.3737    1.7457    0.0000 C   0  0  0  0  0  0  0  2  0  0  0  0
   -0.6592    2.1582    0.0000 C   0  0  0  0  0  0  0  2  0  0  0  0
    2.1987    2.1582    0.0000 C   0  0  0  0  0  0  0  2  0  0  0  0
    2.9131    1.7457    0.0000 C   0  0  0  0  0  0  0  2  0  0  0  0
    2.9131    0.9207    0.0000 C   0  0  0  0  0  0  0  2  0  0  0  0
  1  2  1  0        0
  2  3  1  0        0
  2  4  1  0        0
  2  5  1  0        0
  5  6  1  0        0
  5  7  2  0        0
  7  8  1  0        0
  8  9  1  0        0
  9 10  1  0        0
  9 11  1  0        0
  9 12  1  0        0
  8 12  1  0        0
 12 13  1  0        0
 13 14  2  0        0
 13 15  1  0        0
 15 16  1  0        0
 16 17  1  0        0
 17 18  3  0        0
 16 19  1  0        0
 19 20  4  0        0
 20 21  4  0        0
 21 22  1  0        0
 22 23  1  0        0
 23 24  4  0        0
 24 25  4  0        0
 25 26  4  0        0
 26 27  4  0        0
 27 28  4  0        0
 23 28  4  0        0
 21 29  4  0        0
 29 30  4  0        0
 30 31  4  0        0
 19 31  4  0        0
M  END
$$$$

CDXL12

 18 18  0  0  0  0  0  0  0  0999 V2000
   -0.3572    0.4125    0.0000 N   0  0  0  0  0  0  0  2  0  0  0  0
   -1.0717    0.8250    0.0000 C   0  0  0  0  0  0  0  2  0  0  0  0
   -1.0717    1.6500    0.0000 Cl  0  0  0  0  0  0  0  2  0  0  0  0
   -1.7862    0.4125    0.0000 N   0  0  0  0  0  0  0  2  0  0  0  0
   -1.7862   -0.4125    0.0000 C   0  0  0  0  0  0  0  2  0  0  0  0
   -2.5006   -0.8250    0.0000 N   0  0  0  0  0  0  0  2  0  0  0  0
   -3.2151   -0.4125    0.0000 C   0  0  0  0  0  0  0  2  0  0  0  0
   -3.2151    0.4125    0.0000 C   0  0  0  0  0  0  0  2  0  0  0  0
   -3.9296   -0.8250    0.0000 C   0  0  0  0  0  0  0  2  0  0  0  0
   -1.0717   -0.8250    0.0000 N   0  0  0  0  0  0  0  2  0  0  0  0
   -0.3572   -0.4125    0.0000 C   0  0  0  0  0  0  0  2  0  0  0  0
    0.3572   -0.8250    0.0000 N   0  0  0  0  0  0  0  2  0  0  0  0
    1.0717   -0.4125    0.0000 C   0  0  0  0  0  0  0  2  0  0  0  0
    1.7862   -0.8250    0.0000 C   0  0  0  0  0  0  0  2  0  0  0  0
    1.7862   -1.6500    0.0000 O   0  0  0  0  0  0  0  2  0  0  0  0
    2.5006   -0.4125    0.0000 O   0  0  0  0  0  0  0  2  0  0  0  0
    3.2151   -0.8250    0.0000 C   0  0  0  0  0  0  0  2  0  0  0  0
    3.9296   -0.4125    0.0000 C   0  0  0  0  0  0  0  2  0  0  0  0
  1  2  4  0        0
  2  3  1  0        0
  2  4  4  0        0
  4  5  4  0        0
  5  6  1  0        0
  6  7  1  0        0
  7  8  1  0        0
  7  9  1  0        0
  5 10  4  0        0
 10 11  4  0        0
  1 11  4  0        0
 11 12  1  0        0
 12 13  1  0        0
 13 14  1  0        0
 14 15  2  0        0
 14 16  1  0        0
 16 17  1  0        0
 17 18  1  0        0
M  END
$$$$

CDXL12

 15 15  0  0  0  0  0  0  0  0999 V2000
   -0.3572    1.6500    0.0000 Cl  0  0  0  0  0  0  0  2  0  0  0  0
   -0.3572    0.8250    0.0000 C   0  0  0  0  0  0  0  2  0  0  0  0
   -1.0717    0.4125    0.0000 N   0  0  0  0  0  0  0  2  0  0  0  0
   -1.0717   -0.4125    0.0000 C   0  0  0  0  0  0  0  2  0  0  0  0
   -1.7862   -0.8250    0.0000 N   0  0  0  0  0  0  0  2  0  0  0  0
   -2.5006   -0.4125    0.0000 C   0  0  0  0  0  0  0  2  0  0  0  0
   -3.2151   -0.8250    0.0000 C   0  0  0  0  0  0  0  2  0  0  0  0
   -0.3572   -0.8250    0.0000 N   0  0  0  0  0  0  0  2  0  0  0  0
    0.3572   -0.4125    0.0000 C   0  0  0  0  0  0  0  2  0  0  0  0
    1.0717   -0.8250    0.0000 N   0  0  0  0  0  0  0  2  0  0  0  0
    1.7862   -0.4125    0.0000 C   0  0  0  0  0  0  0  2  0  0  0  0
    2.5006   -0.8250    0.0000 C   0  0  0  0  0  0  0  2  0  0  0  0
    2.5006   -1.6500    0.0000 O   0  0  0  0  0  0  0  2  0  0  0  0
    3.2151   -0.4125    0.0000 O   0  0  0  0  0  0  0  2  0  0  0  0
    0.3572    0.4125    0.0000 N   0  0  0  0  0  0  0  2  0  0  0  0
  1  2  1  0        0
  2  3  4  0        0
  3  4  4  0        0
  4  5  1  0        0
  5  6  1  0        0
  6  7  1  0        0
  4  8  4  0        0
  8  9  4  0        0
  9 10  1  0        0
 10 11  1  0        0
 11 12  1  0        0
 12 13  2  0        0
 12 14  1  0        0
  9 15  4  0        0
  2 15  4  0        0
M  END
$$$$

CDXL12

 23 24  0  0  0  0  0  0  0  0999 V2000
    2.1434   -1.2535    0.0000 C   0  0  0  0  0  0  0  2  0  0  0  0
    1.4289   -1.6660    0.0000 F   0  0  0  0  0  0  0  2  0  0  0  0
    2.1434   -2.0785    0.0000 F   0  0  0  0  0  0  0  2  0  0  0  0
    2.8579   -1.6660    0.0000 F   0  0  0  0  0  0  0  2  0  0  0  0
    2.1434   -0.4285    0.0000 C   0  0  0  0  0  0  0  2  0  0  0  0
    2.8579   -0.0160    0.0000 C   0  0  0  0  0  0  0  2  0  0  0  0
    2.8579    0.8090    0.0000 C   0  0  0  0  0  0  0  2  0  0  0  0
    3.5724    1.2215    0.0000 Cl  0  0  0  0  0  0  0  2  0  0  0  0
    2.1434    1.2215    0.0000 C   0  0  0  0  0  0  0  2  0  0  0  0
    1.4289    0.8090    0.0000 C   0  0  0  0  0  0  0  2  0  0  0  0
    1.4289   -0.0160    0.0000 C   0  0  0  0  0  0  0  2  0  0  0  0
    0.7145   -0.4285    0.0000 N   0  0  0  0  0  0  0  2  0  0  0  0
    0.0000   -0.0160    0.0000 C   0  0  0  0  0  0  0  2  0  0  0  0
   -0.7145   -0.4285    0.0000 C   0  0  0  0  0  0  0  2  0  0  0  0
   -1.4289   -0.0160    0.0000 O   0  0  0  0  0  0  0  2  0  0  0  0
   -2.1434   -0.4285    0.0000 C   0  0  0  0  0  0  0  2  0  0  0  0
   -2.8579   -0.0160    0.0000 C   0  0  0  0  0  0  0  2  0  0  0  0
   -3.5724   -0.4285    0.0000 C   0  0  0  0  0  0  0  2  0  0  0  0
    0.0000    0.8090    0.0000 N   0  0  0  0  0  0  0  2  0  0  0  0
   -0.6674    1.2939    0.0000 C   0  0  0  0  0  0  0  2  0  0  0  0
   -0.4125    2.0785    0.0000 N   0  0  0  0  0  0  0  2  0  0  0  0
    0.4125    2.0785    0.0000 C   0  0  0  0  0  0  0  2  0  0  0  0
    0.6674    1.2939    0.0000 C   0  0  0  0  0  0  0  2  0  0  0  0
  1  2  1  0        0
  1  3  1  0        0
  1  4  1  0        0
  1  5  1  0        0
  5  6  4  0        0
  6  7  4  0        0
  7  8  1  0        0
  7  9  4  0        0
  9 10  4  0        0
 10 11  4  0        0
  5 11  4  0        0
 11 12  1  0        0
 12 13  2  0        0
 13 14  1  0        0
 14 15  1  0        0
 15 16  1  0        0
 16 17  1  0        0
 17 18  1  0        0
 13 19  1  0        0
 19 20  4  0        0
 20 21  4  0        0
 21 22  4  0        0
 22 23  4  0        0
 19 23  4  0        0
M  END
$$$$

CDXL12

 21 22  0  0  0  0  0  0  0  0999 V2000
   -1.0717   -1.8562    0.0000 C   0  0  0  0  0  0  0  2  0  0  0  0
   -1.7862   -2.2687    0.0000 C   0  0  0  0  0  0  0  2  0  0  0  0
   -2.5006   -1.8562    0.0000 C   0  0  0  0  0  0  0  2  0  0  0  0
   -2.5006   -1.0312    0.0000 C   0  0  0  0  0  0  0  2  0  0  0  0
   -1.7862   -0.6188    0.0000 C   0  0  0  0  0  0  0  2  0  0  0  0
   -1.0717   -1.0312    0.0000 C   0  0  0  0  0  0  0  2  0  0  0  0
   -0.3572   -0.6188    0.0000 N   0  0  0  0  0  0  0  2  0  0  0  0
   -0.3572    0.2062    0.0000 C   0  0  0  0  0  0  0  2  0  0  0  0
    0.3572    0.6188    0.0000 S   0  0  0  0  0  0  0  2  0  0  0  0
    1.0717    0.2062    0.0000 C   0  0  0  0  0  0  0  2  0  0  0  0
    1.7862    0.6187    0.0000 N   0  0  0  0  0  0  0  2  0  0  0  0
    1.7862    1.4437    0.0000 C   0  0  0  0  0  0  0  2  0  0  0  0
    1.7862    2.2687    0.0000 C   0  0  0  0  0  0  0  2  0  0  0  0
    1.0717    1.8562    0.0000 C   0  0  0  0  0  0  0  2  0  0  0  0
    2.5006    1.8562    0.0000 C   0  0  0  0  0  0  0  2  0  0  0  0
    1.0717   -0.6188    0.0000 N   0  0  0  0  0  0  0  2  0  0  0  0
    1.7862   -1.0313    0.0000 C   0  0  0  0  0  0  0  2  0  0  0  0
    1.7862   -1.8563    0.0000 C   0  0  0  0  0  0  0  2  0  0  0  0
    2.5006   -0.6188    0.0000 C   0  0  0  0  0  0  0  2  0  0  0  0
    0.3572   -1.0312    0.0000 C   0  0  0  0  0  0  0  2  0  0  0  0
    0.3572   -1.8562    0.0000 O   0  0  0  0  0  0  0  2  0  0  0  0
  1  2  4  0        0
  2  3  4  0        0
  3  4  4  0        0
  4  5  4  0        0
  5  6  4  0        0
  1  6  4  0        0
  6  7  1  0        0
  7  8  1  0        0
  8  9  1  0        0
  9 10  1  0        0
 10 11  2  0        0
 11 12  1  0        0
 12 13  1  0        0
 12 14  1  0        0
 12 15  1  0        0
 10 16  1  0        0
 16 17  1  0        0
 17 18  1  0        0
 17 19  1  0        0
 16 20  1  0        0
  7 20  1  0        0
 20 21  2  0        0
M  END
$$$$

CDXL12

 35 37  0  0  0  0  0  0  0  0999 V2000
   -2.1434   -1.2375    0.0000 C   0  0  0  0  0  0  0  2  0  0  0  0
   -2.8579   -1.6500    0.0000 C   0  0  0  0  0  0  0  2  0  0  0  0
   -3.5724   -1.2375    0.0000 C   0  0  0  0  0  0  0  2  0  0  0  0
   -4.2868   -1.6500    0.0000 C   0  0  0  0  0  0  0  2  0  0  0  0
   -5.0013   -2.0625    0.0000 F   0  0  0  0  0  0  0  2  0  0  0  0
   -4.2868   -2.4750    0.0000 F   0  0  0  0  0  0  0  2  0  0  0  0
   -5.0013   -1.2375    0.0000 F   0  0  0  0  0  0  0  2  0  0  0  0
   -3.5724   -0.4125    0.0000 C   0  0  0  0  0  0  0  2  0  0  0  0
   -2.8579   -0.0000    0.0000 C   0  0  0  0  0  0  0  2  0  0  0  0
   -2.8579    0.8250    0.0000 Cl  0  0  0  0  0  0  0  2  0  0  0  0
   -2.1434   -0.4125    0.0000 C   0  0  0  0  0  0  0  2  0  0  0  0
   -1.4289   -0.0000    0.0000 N   0  0  0  0  0  0  0  2  0  0  0  0
   -0.7145   -0.4125    0.0000 C   0  0  0  0  0  0  0  2  0  0  0  0
   -0.7145   -1.2375    0.0000 C   0  0  0  0  0  0  0  2  0  0  0  0
   -1.4289   -1.6500    0.0000 C   0  0  0  0  0  0  0  2  0  0  0  0
    0.0000   -1.6500    0.0000 C   0  0  0  0  0  0  0  2  0  0  0  0
    0.0000   -0.0000    0.0000 C   0  0  0  0  0  0  0  2  0  0  0  0
    0.0000    0.8250    0.0000 O   0  0  0  0  0  0  0  2  0  0  0  0
    0.7145   -0.4125    0.0000 O   0  0  0  0  0  0  0  2  0  0  0  0
    1.4289   -0.0000    0.0000 C   0  0  0  0  0  0  0  2  0  0  0  0
    2.1434   -0.4125    0.0000 C   0  0  0  0  0  0  0  2  0  0  0  0
    2.8579   -0.8250    0.0000 N   0  0  0  0  0  0  0  2  0  0  0  0
    1.4289    0.8250    0.0000 C   0  0  0  0  0  0  0  2  0  0  0  0
    0.7145    1.2375    0.0000 C   0  0  0  0  0  0  0  2  0  0  0  0
    0.7145    2.0625    0.0000 C   0  0  0  0  0  0  0  2  0  0  0  0
    1.4289    2.4750    0.0000 C   0  0  0  0  0  0  0  2  0  0  0  0
    2.1434    2.0625    0.0000 C   0  0  0  0  0  0  0  2  0  0  0  0
    2.8579    2.4750    0.0000 O   0  0  0  0  0  0  0  2  0  0  0  0
    3.5724    2.0625    0.0000 C   0  0  0  0  0  0  0  2  0  0  0  0
    4.2868    2.4750    0.0000 C   0  0  0  0  0  0  0  2  0  0  0  0
    5.0013    2.0625    0.0000 C   0  0  0  0  0  0  0  2  0  0  0  0
    5.0013    1.2375    0.0000 C   0  0  0  0  0  0  0  2  0  0  0  0
    4.2868    0.8250    0.0000 C   0  0  0  0  0  0  0  2  0  0  0  0
    3.5724    1.2375    0.0000 C   0  0  0  0  0  0  0  2  0  0  0  0
    2.1434    1.2375    0.0000 C   0  0  0  0  0  0  0  2  0  0  0  0
  1  2  4  0        0
  2  3  4  0        0
  3  4  1  0        0
  4  5  1  0        0
  4  6  1  0        0
  4  7  1  0        0
  3  8  4  0        0
  8  9  4  0        0
  9 10  1  0        0
  9 11  4  0        0
  1 11  4  0        0
 11 12  1  0        0
 12 13  1  0        0
 13 14  1  0        0
 14 15  1  0        0
 14 16  1  0        0
 13 17  1  0        0
 17 18  2  0        0
 17 19  1  0        0
 19 20  1  0        0
 20 21  1  0        0
 21 22  3  0        0
 20 23  1  0        0
 23 24  4  0        0
 24 25  4  0        0
 25 26  4  0        0
 26 27  4  0        0
 27 28  1  0        0
 28 29  1  0        0
 29 30  4  0        0
 30 31  4  0        0
 31 32  4  0        0
 32 33  4  0        0
 33 34  4  0        0
 29 34  4  0        0
 27 35  4  0        0
 23 35  4  0        0
M  END
$$$$

CDXL12

 19 21  0  0  0  0  0  0  0  0999 V2000
    1.1270   -0.2223    0.0000 C   0  0  0  0  0  0  0  2  0  0  0  0
    1.8414   -0.6348    0.0000 C   0  0  0  0  0  0  0  2  0  0  0  0
    2.5559   -0.2223    0.0000 Cl  0  0  0  0  0  0  0  2  0  0  0  0
    1.8414   -1.4598    0.0000 C   0  0  0  0  0  0  0  2  0  0  0  0
    1.1270   -1.8723    0.0000 C   0  0  0  0  0  0  0  2  0  0  0  0
    0.4125   -1.4598    0.0000 C   0  0  0  0  0  0  0  2  0  0  0  0
    0.4125   -0.6348    0.0000 C   0  0  0  0  0  0  0  2  0  0  0  0
   -0.3020   -0.2223    0.0000 N   0  0  0  0  0  0  0  2  0  0  0  0
   -1.0164   -0.6348    0.0000 C   0  0  0  0  0  0  0  2  0  0  0  0
   -1.0164   -1.4598    0.0000 O   0  0  0  0  0  0  0  2  0  0  0  0
   -1.7309   -0.2223    0.0000 C   0  0  0  0  0  0  0  2  0  0  0  0
   -2.5559   -0.2223    0.0000 C   0  0  0  0  0  0  0  2  0  0  0  0
   -2.1434    0.4922    0.0000 C   0  0  0  0  0  0  0  2  0  0  0  0
   -0.3020    0.6027    0.0000 C   0  0  0  0  0  0  0  2  0  0  0  0
   -0.9694    1.0877    0.0000 C   0  0  0  0  0  0  0  2  0  0  0  0
   -1.7540    0.8327    0.0000 O   0  0  0  0  0  0  0  2  0  0  0  0
   -0.7145    1.8723    0.0000 O   0  0  0  0  0  0  0  2  0  0  0  0
    0.1105    1.8723    0.0000 C   0  0  0  0  0  0  0  2  0  0  0  0
    0.3655    1.0877    0.0000 C   0  0  0  0  0  0  0  2  0  0  0  0
  1  2  4  0        0
  2  3  1  0        0
  2  4  4  0        0
  4  5  4  0        0
  5  6  4  0        0
  6  7  4  0        0
  1  7  4  0        0
  7  8  1  0        0
  8  9  1  0        0
  9 10  2  0        0
  9 11  1  0        0
 11 12  1  0        0
 12 13  1  0        0
 11 13  1  0        0
  8 14  1  0        0
 14 15  1  0        0
 15 16  2  0        0
 15 17  1  0        0
 17 18  1  0        0
 18 19  1  0        0
 14 19  1  0        0
M  END
$$$$

CDXL12

 25 26  0  0  0  0  0  0  0  0999 V2000
   -1.0717    0.4125    0.0000 Cl  0  0  0  0  0  0  0  2  0  0  0  0
   -1.7862   -0.0000    0.0000 C   0  0  0  0  0  0  0  2  0  0  0  0
   -2.5006    0.4125    0.0000 C   0  0  0  0  0  0  0  2  0  0  0  0
   -3.2151   -0.0000    0.0000 C   0  0  0  0  0  0  0  2  0  0  0  0
   -3.9296    0.4125    0.0000 C   0  0  0  0  0  0  0  2  0  0  0  0
   -3.9296    1.2375    0.0000 F   0  0  0  0  0  0  0  2  0  0  0  0
   -4.6441    0.8250    0.0000 F   0  0  0  0  0  0  0  2  0  0  0  0
   -4.6441   -0.0000    0.0000 F   0  0  0  0  0  0  0  2  0  0  0  0
   -3.2151   -0.8250    0.0000 C   0  0  0  0  0  0  0  2  0  0  0  0
   -2.5006   -1.2375    0.0000 N   0  0  0  0  0  0  0  2  0  0  0  0
   -1.7862   -0.8250    0.0000 C   0  0  0  0  0  0  0  2  0  0  0  0
   -1.0717   -1.2375    0.0000 O   0  0  0  0  0  0  0  2  0  0  0  0
   -0.3572   -0.8250    0.0000 C   0  0  0  0  0  0  0  2  0  0  0  0
   -0.3572   -0.0000    0.0000 C   0  0  0  0  0  0  0  2  0  0  0  0
    0.3572    0.4125    0.0000 C   0  0  0  0  0  0  0  2  0  0  0  0
    1.0717   -0.0000    0.0000 C   0  0  0  0  0  0  0  2  0  0  0  0
    1.7862    0.4125    0.0000 O   0  0  0  0  0  0  0  2  0  0  0  0
    2.5006   -0.0000    0.0000 C   0  0  0  0  0  0  0  2  0  0  0  0
    2.5006   -0.8250    0.0000 C   0  0  0  0  0  0  0  2  0  0  0  0
    3.2151    0.4125    0.0000 C   0  0  0  0  0  0  0  2  0  0  0  0
    3.2151    1.2375    0.0000 O   0  0  0  0  0  0  0  2  0  0  0  0
    3.9296   -0.0000    0.0000 O   0  0  0  0  0  0  0  2  0  0  0  0
    4.6441    0.4125    0.0000 C   0  0  0  0  0  0  0  2  0  0  0  0
    1.0717   -0.8250    0.0000 C   0  0  0  0  0  0  0  2  0  0  0  0
    0.3572   -1.2375    0.0000 C   0  0  0  0  0  0  0  2  0  0  0  0
  1  2  1  0        0
  2  3  4  0        0
  3  4  4  0        0
  4  5  1  0        0
  5  6  1  0        0
  5  7  1  0        0
  5  8  1  0        0
  4  9  4  0        0
  9 10  4  0        0
 10 11  4  0        0
  2 11  4  0        0
 11 12  1  0        0
 12 13  1  0        0
 13 14  4  0        0
 14 15  4  0        0
 15 16  4  0        0
 16 17  1  0        0
 17 18  1  0        0
 18 19  1  0        0
 18 20  1  0        0
 20 21  2  0        0
 20 22  1  0        0
 22 23  1  0        0
 16 24  4  0        0
 24 25  4  0        0
 13 25  4  0        0
M  END
$$$$

CDXL12

 27 28  0  0  0  0  0  0  0  0999 V2000
   -3.5724   -1.2375    0.0000 N   0  0  0  0  0  0  0  2  0  0  0  0
   -4.2868   -0.8250    0.0000 C   0  0  0  0  0  0  0  2  0  0  0  0
   -4.2868   -0.0000    0.0000 C   0  0  0  0  0  0  0  2  0  0  0  0
   -5.0013    0.4125    0.0000 C   0  0  0  0  0  0  0  2  0  0  0  0
   -5.0013    1.2375    0.0000 F   0  0  0  0  0  0  0  2  0  0  0  0
   -5.7158    0.8250    0.0000 F   0  0  0  0  0  0  0  2  0  0  0  0
   -5.7158   -0.0000    0.0000 F   0  0  0  0  0  0  0  2  0  0  0  0
   -3.5724    0.4125    0.0000 C   0  0  0  0  0  0  0  2  0  0  0  0
   -2.8579   -0.0000    0.0000 C   0  0  0  0  0  0  0  2  0  0  0  0
   -2.8579   -0.8250    0.0000 C   0  0  0  0  0  0  0  2  0  0  0  0
   -2.1434   -1.2375    0.0000 O   0  0  0  0  0  0  0  2  0  0  0  0
   -1.4289   -0.8250    0.0000 C   0  0  0  0  0  0  0  2  0  0  0  0
   -1.4289   -0.0000    0.0000 C   0  0  0  0  0  0  0  2  0  0  0  0
   -0.7145    0.4125    0.0000 C   0  0  0  0  0  0  0  2  0  0  0  0
    0.0000   -0.0000    0.0000 C   0  0  0  0  0  0  0  2  0  0  0  0
    0.7145    0.4125    0.0000 O   0  0  0  0  0  0  0  2  0  0  0  0
    1.4289   -0.0000    0.0000 C   0  0  0  0  0  0  0  2  0  0  0  0
    1.4289   -0.8250    0.0000 C   0  0  0  0  0  0  0  2  0  0  0  0
    2.1434    0.4125    0.0000 C   0  0  0  0  0  0  0  2  0  0  0  0
    2.1434    1.2375    0.0000 O   0  0  0  0  0  0  0  2  0  0  0  0
    2.8579   -0.0000    0.0000 O   0  0  0  0  0  0  0  2  0  0  0  0
    3.5724    0.4125    0.0000 C   0  0  0  0  0  0  0  2  0  0  0  0
    4.2868   -0.0000    0.0000 C   0  0  0  0  0  0  0  2  0  0  0  0
    5.0013    0.4125    0.0000 C   0  0  0  0  0  0  0  2  0  0  0  0
    5.7158   -0.0000    0.0000 C   0  0  0  0  0  0  0  2  0  0  0  0
    0.0000   -0.8250    0.0000 C   0  0  0  0  0  0  0  2  0  0  0  0
   -0.7145   -1.2375    0.0000 C   0  0  0  0  0  0  0  2  0  0  0  0
  1  2  4  0        0
  2  3  4  0        0
  3  4  1  0        0
  4  5  1  0        0
  4  6  1  0        0
  4  7  1  0        0
  3  8  4  0        0
  8  9  4  0        0
  9 10  4  0        0
  1 10  4  0        0
 10 11  1  0        0
 11 12  1  0        0
 12 13  4  0        0
 13 14  4  0        0
 14 15  4  0        0
 15 16  1  0        0
 16 17  1  0        0
 17 18  1  0        0
 17 19  1  0        0
 19 20  2  0        0
 19 21  1  0        0
 21 22  1  0        0
 22 23  1  0        0
 23 24  1  0        0
 24 25  1  0        0
 15 26  4  0        0
 26 27  4  0        0
 12 27  4  0        0
M  END
$$$$

CDXL12

 18 19  0  0  0  0  0  0  0  0999 V2000
   -1.4289   -1.2375    0.0000 Br  0  0  0  0  0  0  0  2  0  0  0  0
   -1.4289   -0.4125    0.0000 C   0  0  0  0  0  0  0  2  0  0  0  0
   -0.7145   -0.0000    0.0000 C   0  0  0  0  0  0  0  2  0  0  0  0
   -0.7145    0.8250    0.0000 C   0  0  0  0  0  0  0  2  0  0  0  0
   -1.4289    1.2375    0.0000 C   0  0  0  0  0  0  0  2  0  0  0  0
   -2.1434    0.8250    0.0000 C   0  0  0  0  0  0  0  2  0  0  0  0
   -2.1434   -0.0000    0.0000 C   0  0  0  0  0  0  0  2  0  0  0  0
   -2.8579   -0.4125    0.0000 O   0  0  0  0  0  0  0  2  0  0  0  0
   -0.0000    1.2375    0.0000 Br  0  0  0  0  0  0  0  2  0  0  0  0
   -0.0000   -0.4125    0.0000 O   0  0  0  0  0  0  0  2  0  0  0  0
    0.7145   -0.0000    0.0000 C   0  0  0  0  0  0  0  2  0  0  0  0
    0.7145    0.8250    0.0000 C   0  0  0  0  0  0  0  2  0  0  0  0
    1.4289    1.2375    0.0000 C   0  0  0  0  0  0  0  2  0  0  0  0
    2.1434    0.8250    0.0000 C   0  0  0  0  0  0  0  2  0  0  0  0
    2.1434   -0.0000    0.0000 C   0  0  0  0  0  0  0  2  0  0  0  0
    1.4289   -0.4125    0.0000 C   0  0  0  0  0  0  0  2  0  0  0  0
    1.4289   -1.2375    0.0000 Br  0  0  0  0  0  0  0  2  0  0  0  0
    2.8579    1.2375    0.0000 Br  0  0  0  0  0  0  0  2  0  0  0  0
  1  2  1  0        0
  2  3  4  0        0
  3  4  4  0        0
  4  5  4  0        0
  5  6  4  0        0
  6  7  4  0        0
  2  7  4  0        0
  7  8  1  0        0
  4  9  1  0        0
  3 10  1  0        0
 10 11  1  0        0
 11 12  4  0        0
 12 13  4  0        0
 13 14  4  0        0
 14 15  4  0        0
 15 16  4  0        0
 11 16  4  0        0
 16 17  1  0        0
 14 18  1  0        0
M  END
$$$$

CDXL12

 33 35  0  0  0  0  0  0  0  0999 V2000
   -1.7862    0.8250    0.0000 C   0  0  0  0  0  0  0  2  0  0  0  0
   -1.7862    0.0000    0.0000 C   0  0  0  0  0  0  0  2  0  0  0  0
   -2.5006   -0.4125    0.0000 C   0  0  0  0  0  0  0  2  0  0  0  0
   -1.0717   -0.4125    0.0000 C   0  0  0  0  0  0  0  2  0  0  0  0
   -0.3572    0.0000    0.0000 C   0  0  0  0  0  0  0  2  0  0  0  0
   -0.3572    0.8250    0.0000 O   0  0  0  0  0  0  0  2  0  0  0  0
    0.3572   -0.4125    0.0000 O   0  0  0  0  0  0  0  2  0  0  0  0
    1.0717   -0.0000    0.0000 C   0  0  0  0  0  0  0  2  0  0  0  0
    1.7862   -0.4125    0.0000 C   0  0  0  0  0  0  0  2  0  0  0  0
    2.5006   -0.8250    0.0000 N   0  0  0  0  0  0  0  2  0  0  0  0
    1.0717    0.8250    0.0000 C   0  0  0  0  0  0  0  2  0  0  0  0
    1.7862    1.2375    0.0000 C   0  0  0  0  0  0  0  2  0  0  0  0
    1.7862    2.0625    0.0000 C   0  0  0  0  0  0  0  2  0  0  0  0
    1.0717    2.4750    0.0000 C   0  0  0  0  0  0  0  2  0  0  0  0
    0.3572    2.0625    0.0000 C   0  0  0  0  0  0  0  2  0  0  0  0
   -0.3572    2.4750    0.0000 O   0  0  0  0  0  0  0  2  0  0  0  0
   -0.3572    3.3000    0.0000 C   0  0  0  0  0  0  0  2  0  0  0  0
   -1.0717    3.7125    0.0000 C   0  0  0  0  0  0  0  2  0  0  0  0
   -1.0717    4.5375    0.0000 C   0  0  0  0  0  0  0  2  0  0  0  0
   -0.3572    4.9500    0.0000 C   0  0  0  0  0  0  0  2  0  0  0  0
    0.3572    4.5375    0.0000 C   0  0  0  0  0  0  0  2  0  0  0  0
    0.3572    3.7125    0.0000 C   0  0  0  0  0  0  0  2  0  0  0  0
    0.3572    1.2375    0.0000 C   0  0  0  0  0  0  0  2  0  0  0  0
   -1.0717   -1.2375    0.0000 C   0  0  0  0  0  0  0  2  0  0  0  0
   -1.7862   -1.6500    0.0000 C   0  0  0  0  0  0  0  2  0  0  0  0
   -1.7862   -2.4750    0.0000 C   0  0  0  0  0  0  0  2  0  0  0  0
   -1.0717   -2.8875    0.0000 C   0  0  0  0  0  0  0  2  0  0  0  0
   -1.0717   -3.7125    0.0000 O   0  0  0  0  0  0  0  2  0  0  0  0
   -1.7862   -4.1250    0.0000 C   0  0  0  0  0  0  0  2  0  0  0  0
   -2.5006   -3.7125    0.0000 F   0  0  0  0  0  0  0  2  0  0  0  0
   -1.7862   -4.9500    0.0000 F   0  0  0  0  0  0  0  2  0  0  0  0
   -0.3572   -2.4750    0.0000 C   0  0  0  0  0  0  0  2  0  0  0  0
   -0.3572   -1.6500    0.0000 C   0  0  0  0  0  0  0  2  0  0  0  0
  1  2  1  0        0
  2  3  1  0        0
  2  4  1  0        0
  4  5  1  0        0
  5  6  2  0        0
  5  7  1  0        0
  7  8  1  0        0
  8  9  1  0        0
  9 10  3  0        0
  8 11  1  0        0
 11 12  4  0        0
 12 13  4  0        0
 13 14  4  0        0
 14 15  4  0        0
 15 16  1  0        0
 16 17  1  0        0
 17 18  4  0        0
 18 19  4  0        0
 19 20  4  0        0
 20 21  4  0        0
 21 22  4  0        0
 17 22  4  0        0
 15 23  4  0        0
 11 23  4  0        0
  4 24  1  0        0
 24 25  4  0        0
 25 26  4  0        0
 26 27  4  0        0
 27 28  1  0        0
 28 29  1  0        0
 29 30  1  0        0
 29 31  1  0        0
 27 32  4  0        0
 32 33  4  0        0
 24 33  4  0        0
M  END
$$$$

CDXL12

 16 17  0  0  0  0  0  0  0  0999 V2000
    2.1434   -1.4438    0.0000 Cl  0  0  0  0  0  0  0  2  0  0  0  0
    1.4289   -1.0313    0.0000 C   0  0  0  0  0  0  0  2  0  0  0  0
    0.7145   -1.4437    0.0000 C   0  0  0  0  0  0  0  2  0  0  0  0
    0.0000   -1.0313    0.0000 C   0  0  0  0  0  0  0  2  0  0  0  0
   -0.7145   -1.4437    0.0000 Cl  0  0  0  0  0  0  0  2  0  0  0  0
    0.0000   -0.2062    0.0000 C   0  0  0  0  0  0  0  2  0  0  0  0
    0.7145    0.2062    0.0000 C   0  0  0  0  0  0  0  2  0  0  0  0
    1.4289   -0.2062    0.0000 C   0  0  0  0  0  0  0  2  0  0  0  0
    2.1434    0.2062    0.0000 Cl  0  0  0  0  0  0  0  2  0  0  0  0
   -0.7145    0.2062    0.0000 C   0  0  0  0  0  0  0  2  0  0  0  0
   -1.4289   -0.2062    0.0000 C   0  0  0  0  0  0  0  2  0  0  0  0
   -2.1434    0.2062    0.0000 C   0  0  0  0  0  0  0  2  0  0  0  0
   -2.1434    1.0313    0.0000 C   0  0  0  0  0  0  0  2  0  0  0  0
   -1.4289    1.4438    0.0000 C   0  0  0  0  0  0  0  2  0  0  0  0
   -0.7145    1.0313    0.0000 C   0  0  0  0  0  0  0  2  0  0  0  0
    0.0000    1.4438    0.0000 Cl  0  0  0  0  0  0  0  2  0  0  0  0
  1  2  1  0        0
  2  3  4  0        0
  3  4  4  0        0
  4  5  1  0        0
  4  6  4  0        0
  6  7  4  0        0
  7  8  4  0        0
  2  8  4  0        0
  8  9  1  0        0
  6 10  1  0        0
 10 11  4  0        0
 11 12  4  0        0
 12 13  4  0        0
 13 14  4  0        0
 14 15  4  0        0
 10 15  4  0        0
 15 16  1  0        0
M  END
$$$$

CDXL12

 16 17  0  0  0  0  0  0  0  0999 V2000
   -1.4289   -0.2063    0.0000 C   0  0  0  0  0  0  0  2  0  0  0  0
   -2.1434   -0.6188    0.0000 C   0  0  0  0  0  0  0  2  0  0  0  0
   -2.1434   -1.4438    0.0000 C   0  0  0  0  0  0  0  2  0  0  0  0
   -1.4289   -1.8562    0.0000 C   0  0  0  0  0  0  0  2  0  0  0  0
   -0.7145   -1.4437    0.0000 C   0  0  0  0  0  0  0  2  0  0  0  0
    0.0000   -1.8562    0.0000 Cl  0  0  0  0  0  0  0  2  0  0  0  0
   -0.7145   -0.6187    0.0000 C   0  0  0  0  0  0  0  2  0  0  0  0
    0.0000   -0.2063    0.0000 C   0  0  0  0  0  0  0  2  0  0  0  0
    0.0000    0.6187    0.0000 C   0  0  0  0  0  0  0  2  0  0  0  0
    0.7145    1.0312    0.0000 C   0  0  0  0  0  0  0  2  0  0  0  0
    0.7145    1.8562    0.0000 Cl  0  0  0  0  0  0  0  2  0  0  0  0
    1.4289    0.6187    0.0000 C   0  0  0  0  0  0  0  2  0  0  0  0
    2.1434    1.0312    0.0000 Cl  0  0  0  0  0  0  0  2  0  0  0  0
    1.4289   -0.2063    0.0000 C   0  0  0  0  0  0  0  2  0  0  0  0
    2.1434   -0.6188    0.0000 Cl  0  0  0  0  0  0  0  2  0  0  0  0
    0.7145   -0.6187    0.0000 C   0  0  0  0  0  0  0  2  0  0  0  0
  1  2  4  0        0
  2  3  4  0        0
  3  4  4  0        0
  4  5  4  0        0
  5  6  1  0        0
  5  7  4  0        0
  1  7  4  0        0
  7  8  1  0        0
  8  9  4  0        0
  9 10  4  0        0
 10 11  1  0        0
 10 12  4  0        0
 12 13  1  0        0
 12 14  4  0        0
 14 15  1  0        0
 14 16  4  0        0
  8 16  4  0        0
M  END
$$$$

CDXL12

 16 17  0  0  0  0  0  0  0  0999 V2000
    2.5006    1.0312    0.0000 Cl  0  0  0  0  0  0  0  2  0  0  0  0
    1.7862    0.6187    0.0000 C   0  0  0  0  0  0  0  2  0  0  0  0
    1.7862   -0.2063    0.0000 C   0  0  0  0  0  0  0  2  0  0  0  0
    1.0717   -0.6187    0.0000 C   0  0  0  0  0  0  0  2  0  0  0  0
    0.3572   -0.2063    0.0000 C   0  0  0  0  0  0  0  2  0  0  0  0
    0.3572    0.6187    0.0000 C   0  0  0  0  0  0  0  2  0  0  0  0
    1.0717    1.0312    0.0000 C   0  0  0  0  0  0  0  2  0  0  0  0
    1.0717    1.8562    0.0000 Cl  0  0  0  0  0  0  0  2  0  0  0  0
   -0.3572   -0.6187    0.0000 C   0  0  0  0  0  0  0  2  0  0  0  0
   -0.3572   -1.4437    0.0000 C   0  0  0  0  0  0  0  2  0  0  0  0
   -1.0717   -1.8562    0.0000 C   0  0  0  0  0  0  0  2  0  0  0  0
   -1.7862   -1.4437    0.0000 C   0  0  0  0  0  0  0  2  0  0  0  0
   -1.7862   -0.6187    0.0000 C   0  0  0  0  0  0  0  2  0  0  0  0
   -1.0717   -0.2063    0.0000 C   0  0  0  0  0  0  0  2  0  0  0  0
   -2.5006   -1.8562    0.0000 Cl  0  0  0  0  0  0  0  2  0  0  0  0
    2.5006   -0.6188    0.0000 Cl  0  0  0  0  0  0  0  2  0  0  0  0
  1  2  1  0        0
  2  3  4  0        0
  3  4  4  0        0
  4  5  4  0        0
  5  6  4  0        0
  6  7  4  0        0
  2  7  4  0        0
  7  8  1  0        0
  5  9  1  0        0
  9 10  4  0        0
 10 11  4  0        0
 11 12  4  0        0
 12 13  4  0        0
 13 14  4  0        0
  9 14  4  0        0
 12 15  1  0        0
  3 16  1  0        0
M  END
$$$$

CDXL12

 24 25  0  0  0  0  0  0  0  0999 V2000
   -0.3572    1.4437    0.0000 C   0  0  0  0  0  0  0  2  0  0  0  0
   -0.3572    2.2687    0.0000 C   0  0  0  0  0  0  0  2  0  0  0  0
   -1.0717    2.6812    0.0000 C   0  0  0  0  0  0  0  2  0  0  0  0
   -1.7862    2.2687    0.0000 C   0  0  0  0  0  0  0  2  0  0  0  0
   -1.7862    1.4437    0.0000 C   0  0  0  0  0  0  0  2  0  0  0  0
   -1.0717    1.0312    0.0000 C   0  0  0  0  0  0  0  2  0  0  0  0
   -1.0717    0.2063    0.0000 C   0  0  0  0  0  0  0  2  0  0  0  0
   -0.3572   -0.2062    0.0000 C   0  0  0  0  0  0  0  2  0  0  0  0
    0.3572    0.2063    0.0000 O   0  0  0  0  0  0  0  2  0  0  0  0
   -0.3572   -1.0312    0.0000 N   0  0  0  0  0  0  0  2  0  0  0  0
    0.3572   -1.4437    0.0000 C   0  0  0  0  0  0  0  2  0  0  0  0
    0.3572   -2.2687    0.0000 C   0  0  0  0  0  0  0  2  0  0  0  0
    1.0717   -1.0312    0.0000 C   0  0  0  0  0  0  0  2  0  0  0  0
    1.0717   -0.2062    0.0000 O   0  0  0  0  0  0  0  2  0  0  0  0
    1.7862   -1.4437    0.0000 O   0  0  0  0  0  0  0  2  0  0  0  0
    2.5006   -1.0312    0.0000 C   0  0  0  0  0  0  0  2  0  0  0  0
   -1.0717   -1.4437    0.0000 C   0  0  0  0  0  0  0  2  0  0  0  0
   -1.7862   -1.0312    0.0000 C   0  0  0  0  0  0  0  2  0  0  0  0
   -1.7862   -0.2062    0.0000 C   0  0  0  0  0  0  0  2  0  0  0  0
   -2.5006   -1.4437    0.0000 C   0  0  0  0  0  0  0  2  0  0  0  0
   -2.5006   -2.2688    0.0000 C   0  0  0  0  0  0  0  2  0  0  0  0
   -1.7862   -2.6812    0.0000 C   0  0  0  0  0  0  0  2  0  0  0  0
   -1.0717   -2.2687    0.0000 C   0  0  0  0  0  0  0  2  0  0  0  0
   -0.3572   -2.6812    0.0000 C   0  0  0  0  0  0  0  2  0  0  0  0
  1  2  4  0        0
  2  3  4  0        0
  3  4  4  0        0
  4  5  4  0        0
  5  6  4  0        0
  1  6  4  0        0
  6  7  1  0        0
  7  8  1  0        0
  8  9  2  0        0
  8 10  1  0        0
 10 11  1  0        0
 11 12  1  0        0
 11 13  1  0        0
 13 14  2  0        0
 13 15  1  0        0
 15 16  1  0        0
 10 17  1  0        0
 17 18  4  0        0
 18 19  1  0        0
 18 20  4  0        0
 20 21  4  0        0
 21 22  4  0        0
 22 23  4  0        0
 17 23  4  0        0
 23 24  1  0        0
M  END
$$$$

CDXL12

 66 72  0  0  0  0  0  0  0  0999 V2000
   -3.5724    2.4750    0.0000 O   0  0  0  0  0  0  0  2  0  0  0  0
   -4.2868    2.8875    0.0000 C   0  0  0  0  0  0  0  2  0  0  0  0
   -4.2868    3.7125    0.0000 C   0  0  0  0  0  0  0  2  0  0  0  0
   -5.0013    2.4750    0.0000 C   0  0  0  0  0  0  0  2  0  0  0  0
   -5.7158    2.8875    0.0000 O   0  0  0  0  0  0  0  2  0  0  0  0
   -5.0013    1.6500    0.0000 C   0  0  0  0  0  0  0  2  0  0  0  0
   -5.7158    1.2375    0.0000 O   0  0  0  0  0  0  0  2  0  0  0  0
   -6.4302    1.6500    0.0000 C   0  0  0  0  0  0  0  2  0  0  0  0
   -4.2868    1.2375    0.0000 C   0  0  0  0  0  0  0  2  0  0  0  0
   -3.5724    1.6500    0.0000 C   0  0  0  0  0  0  0  2  0  0  0  0
   -2.8579    1.2375    0.0000 O   0  0  0  0  0  0  0  2  0  0  0  0
   -2.1434    1.6500    0.0000 C   0  0  0  0  0  0  0  2  0  0  0  0
   -2.1434    2.4750    0.0000 C   0  0  0  0  0  0  0  2  0  0  0  0
   -2.8579    2.8875    0.0000 O   0  0  0  0  0  0  0  2  0  0  0  0
   -2.8579    3.7125    0.0000 C   0  0  0  0  0  0  0  2  0  0  0  0
   -1.4289    2.8875    0.0000 C   0  0  0  0  0  0  0  2  0  0  0  0
   -0.7145    2.4750    0.0000 C   0  0  0  0  0  0  0  2  0  0  0  0
   -0.7145    1.6500    0.0000 O   0  0  0  0  0  0  0  2  0  0  0  0
   -1.4289    1.2375    0.0000 C   0  0  0  0  0  0  0  2  0  0  0  0
   -1.4289    0.4125    0.0000 C   0  0  0  0  0  0  0  2  0  0  0  0
    0.0000    2.8875    0.0000 O   0  0  0  0  0  0  0  2  0  0  0  0
    0.7145    2.4750    0.0000 C   0  0  0  0  0  0  0  2  0  0  0  0
    1.4289    2.8875    0.0000 C   0  0  0  0  0  0  0  2  0  0  0  0
    1.4289    3.7125    0.0000 C   0  0  0  0  0  0  0  2  0  0  0  0
    2.1434    2.4750    0.0000 C   0  0  0  0  0  0  0  2  0  0  0  0
    2.1434    1.6500    0.0000 C   0  0  0  0  0  0  0  2  0  0  0  0
    2.8579    1.2375    0.0000 C   0  0  0  0  0  0  0  2  0  0  0  0
    3.5724    1.6500    0.0000 C   0  0  0  0  0  0  0  2  0  0  0  0
    3.8743    2.4177    0.0000 C   0  0  0  0  0  0  0  2  0  0  0  0
    4.6993    2.4177    0.0000 O   0  0  0  0  0  0  0  2  0  0  0  0
    5.0013    1.6500    0.0000 C   0  0  0  0  0  0  0  2  0  0  0  0
    5.6264    2.1884    0.0000 H   0  0  0  0  0  0  0  2  0  0  0  0
    5.7158    1.2375    0.0000 C   0  0  0  0  0  0  0  2  0  0  0  0
    6.4302    1.6500    0.0000 O   0  0  0  0  0  0  0  2  0  0  0  0
    5.7158    0.4125    0.0000 C   0  0  0  0  0  0  0  2  0  0  0  0
    6.4302   -0.0000    0.0000 C   0  0  0  0  0  0  0  2  0  0  0  0
    5.0013   -0.0000    0.0000 C   0  0  0  0  0  0  0  2  0  0  0  0
    4.2868    0.4125    0.0000 C   0  0  0  0  0  0  0  2  0  0  0  0
    4.2868   -0.4125    0.0000 H   0  0  0  0  0  0  0  2  0  0  0  0
    4.2868    1.2375    0.0000 C   0  0  0  0  0  0  0  2  0  0  0  0
    4.2868    2.0625    0.0000 O   0  0  0  0  0  0  0  2  0  0  0  0
    3.5724   -0.0000    0.0000 C   0  0  0  0  0  0  0  2  0  0  0  0
    3.5724   -0.8250    0.0000 O   0  0  0  0  0  0  0  2  0  0  0  0
    2.8579    0.4125    0.0000 O   0  0  0  0  0  0  0  2  0  0  0  0
    2.1434   -0.0000    0.0000 C   0  0  0  0  0  0  0  2  0  0  0  0
    1.4289    0.4125    0.0000 C   0  0  0  0  0  0  0  2  0  0  0  0
    0.7145   -0.0000    0.0000 C   0  0  0  0  0  0  0  2  0  0  0  0
    0.0000   -0.4125    0.0000 H   0  0  0  0  0  0  0  2  0  0  0  0
    0.0000    0.4125    0.0000 C   0  0  0  0  0  0  0  2  0  0  0  0
    0.0000    1.2375    0.0000 C   0  0  0  0  0  0  0  2  0  0  0  0
    0.7145    1.6500    0.0000 C   0  0  0  0  0  0  0  2  0  0  0  0
    1.4289    1.2375    0.0000 C   0  0  0  0  0  0  0  2  0  0  0  0
    0.7145   -0.8250    0.0000 O   0  0  0  0  0  0  0  2  0  0  0  0
    1.4289   -1.2375    0.0000 C   0  0  0  0  0  0  0  2  0  0  0  0
    2.1434   -0.8250    0.0000 C   0  0  0  0  0  0  0  2  0  0  0  0
    2.1434   -1.6500    0.0000 C   0  0  0  0  0  0  0  2  0  0  0  0
    2.1434   -2.4750    0.0000 C   0  0  0  0  0  0  0  2  0  0  0  0
    1.4289   -2.8875    0.0000 C   0  0  0  0  0  0  0  2  0  0  0  0
    1.4289   -3.7125    0.0000 C   0  0  0  0  0  0  0  2  0  0  0  0
    0.7145   -2.4750    0.0000 C   0  0  0  0  0  0  0  2  0  0  0  0
    0.7145   -3.3000    0.0000 H   0  0  0  0  0  0  0  2  0  0  0  0
    0.0000   -2.8875    0.0000 C   0  0  0  0  0  0  0  2  0  0  0  0
    0.0000   -3.7125    0.0000 C   0  0  0  0  0  0  0  2  0  0  0  0
   -0.7145   -2.4750    0.0000 C   0  0  0  0  0  0  0  2  0  0  0  0
   -1.4289   -2.8875    0.0000 C   0  0  0  0  0  0  0  2  0  0  0  0
    0.7145   -1.6500    0.0000 O   0  0  0  0  0  0  0  2  0  0  0  0
  1  2  1  0        0
  2  3  1  0        0
  2  4  1  0        0
  4  5  1  0        0
  4  6  1  0        0
  6  7  1  0        0
  7  8  1  0        0
  6  9  1  0        0
  9 10  1  0        0
  1 10  1  0        0
 10 11  1  0        0
 11 12  1  0        0
 12 13  1  0        0
 13 14  1  0        0
 14 15  1  0        0
 13 16  1  0        0
 16 17  1  0        0
 17 18  1  0        0
 18 19  1  0        0
 12 19  1  0        0
 19 20  1  0        0
 17 21  1  0        0
 21 22  1  0        0
 22 23  1  0        0
 23 24  1  0        0
 23 25  1  0        0
 25 26  2  0        0
 26 27  1  0        0
 27 28  2  0        0
 28 29  1  0        0
 29 30  1  0        0
 30 31  1  0        0
 31 32  1  6        0
 31 33  1  0        0
 33 34  1  6        0
 33 35  1  0        0
 35 36  1  0        0
 35 37  2  0        0
 37 38  1  0        0
 38 39  1  6        0
 38 40  1  0        0
 28 40  1  0        0
 31 40  1  0        0
 40 41  1  6        0
 38 42  1  0        0
 42 43  2  0        0
 42 44  1  0        0
 44 45  1  0        0
 45 46  1  0        0
 46 47  1  0        0
 47 48  1  6        0
 47 49  1  0        0
 49 50  1  0        0
 50 51  2  0        0
 22 51  1  0        0
 51 52  1  0        0
 47 53  1  0        0
 53 54  1  0        0
 54 55  1  0        0
 45 55  1  0        0
 54 56  1  0        0
 56 57  2  0        0
 57 58  1  0        0
 58 59  1  0        0
 58 60  1  0        0
 60 61  1  6        0
 60 62  1  0        0
 62 63  1  0        0
 62 64  1  0        0
 64 65  1  0        0
 60 66  1  0        0
 54 66  1  0        0
M  END
$$$$

CDXL12

 28 29  0  0  0  0  0  0  0  0999 V2000
   -2.1434   -0.8250    0.0000 C   0  0  0  0  0  0  0  2  0  0  0  0
   -2.8579   -0.4125    0.0000 C   0  0  0  0  0  0  0  2  0  0  0  0
   -2.8579    0.4125    0.0000 C   0  0  0  0  0  0  0  2  0  0  0  0
   -3.5724    0.8250    0.0000 C   0  0  0  0  0  0  0  2  0  0  0  0
   -4.2868    1.2375    0.0000 F   0  0  0  0  0  0  0  2  0  0  0  0
   -3.5724    1.6500    0.0000 F   0  0  0  0  0  0  0  2  0  0  0  0
   -4.2868    0.4125    0.0000 F   0  0  0  0  0  0  0  2  0  0  0  0
   -2.1434    0.8250    0.0000 C   0  0  0  0  0  0  0  2  0  0  0  0
   -1.4289    0.4125    0.0000 C   0  0  0  0  0  0  0  2  0  0  0  0
   -0.7145    0.8250    0.0000 Cl  0  0  0  0  0  0  0  2  0  0  0  0
   -1.4289   -0.4125    0.0000 C   0  0  0  0  0  0  0  2  0  0  0  0
   -0.7145   -0.8250    0.0000 O   0  0  0  0  0  0  0  2  0  0  0  0
    0.0000   -0.4125    0.0000 C   0  0  0  0  0  0  0  2  0  0  0  0
    0.0000    0.4125    0.0000 C   0  0  0  0  0  0  0  2  0  0  0  0
    0.7145    0.8250    0.0000 C   0  0  0  0  0  0  0  2  0  0  0  0
    1.4289    0.4125    0.0000 C   0  0  0  0  0  0  0  2  0  0  0  0
    2.1434    0.8250    0.0000 N   0  0  0  0  0  0  0  2  0  0  0  0
    2.1434    1.6500    0.0000 O   0  0  0  0  0  0  0  2  0  0  0  0
    2.8579    0.4125    0.0000 O   0  0  0  0  0  0  0  2  0  0  0  0
    1.4289   -0.4125    0.0000 C   0  0  0  0  0  0  0  2  0  0  0  0
    2.1434   -0.8250    0.0000 C   0  0  0  0  0  0  0  2  0  0  0  0
    2.1434   -1.6500    0.0000 O   0  0  0  0  0  0  0  2  0  0  0  0
    2.8579   -0.4125    0.0000 N   0  0  0  0  0  0  0  2  0  0  0  0
    3.5724   -0.8250    0.0000 S   0  0  0  0  0  0  0  2  0  0  0  0
    3.9849   -0.1105    0.0000 O   0  0  0  0  0  0  0  2  0  0  0  0
    3.1599   -1.5395    0.0000 O   0  0  0  0  0  0  0  2  0  0  0  0
    4.2868   -1.2375    0.0000 C   0  0  0  0  0  0  0  2  0  0  0  0
    0.7145   -0.8250    0.0000 C   0  0  0  0  0  0  0  2  0  0  0  0
  1  2  4  0        0
  2  3  4  0        0
  3  4  1  0        0
  4  5  1  0        0
  4  6  1  0        0
  4  7  1  0        0
  3  8  4  0        0
  8  9  4  0        0
  9 10  1  0        0
  9 11  4  0        0
  1 11  4  0        0
 11 12  1  0        0
 12 13  1  0        0
 13 14  4  0        0
 14 15  4  0        0
 15 16  4  0        0
 16 17  1  0        0
 17 18  2  0        0
 17 19  2  0        0
 16 20  4  0        0
 20 21  1  0        0
 21 22  2  0        0
 21 23  1  0        0
 23 24  1  0        0
 24 25  2  0        0
 24 26  2  0        0
 24 27  1  0        0
 20 28  4  0        0
 13 28  4  0        0
M  END
$$$$

CDXL12

 21 22  0  0  0  0  0  0  0  0999 V2000
   -1.9249   -0.2400    0.0000 C   0  0  0  0  0  0  0  2  0  0  0  0
   -2.6786    0.0955    0.0000 C   0  0  0  0  0  0  0  2  0  0  0  0
   -3.3461   -0.3894    0.0000 Cl  0  0  0  0  0  0  0  2  0  0  0  0
   -2.7649    0.9160    0.0000 C   0  0  0  0  0  0  0  2  0  0  0  0
   -2.0974    1.4009    0.0000 C   0  0  0  0  0  0  0  2  0  0  0  0
   -2.1837    2.2214    0.0000 Cl  0  0  0  0  0  0  0  2  0  0  0  0
   -1.3437    1.0654    0.0000 C   0  0  0  0  0  0  0  2  0  0  0  0
   -1.2575    0.2449    0.0000 C   0  0  0  0  0  0  0  2  0  0  0  0
   -0.5038   -0.0907    0.0000 N   0  0  0  0  0  0  0  2  0  0  0  0
   -0.3323   -0.8977    0.0000 C   0  0  0  0  0  0  0  2  0  0  0  0
   -0.8843   -1.5108    0.0000 O   0  0  0  0  0  0  0  2  0  0  0  0
    0.4882   -0.9839    0.0000 C   0  0  0  0  0  0  0  2  0  0  0  0
    0.4882   -1.8089    0.0000 C   0  0  0  0  0  0  0  2  0  0  0  0
    1.2026   -1.3964    0.0000 C   0  0  0  0  0  0  0  2  0  0  0  0
    1.2026   -2.2214    0.0000 O   0  0  0  0  0  0  0  2  0  0  0  0
    1.9171   -0.9839    0.0000 O   0  0  0  0  0  0  0  2  0  0  0  0
    2.6316   -1.3964    0.0000 C   0  0  0  0  0  0  0  2  0  0  0  0
    3.3461   -0.9839    0.0000 C   0  0  0  0  0  0  0  2  0  0  0  0
    0.8237   -0.2302    0.0000 O   0  0  0  0  0  0  0  2  0  0  0  0
    0.2106    0.3218    0.0000 C   0  0  0  0  0  0  0  2  0  0  0  0
    0.2969    1.1423    0.0000 O   0  0  0  0  0  0  0  2  0  0  0  0
  1  2  4  0        0
  2  3  1  0        0
  2  4  4  0        0
  4  5  4  0        0
  5  6  1  0        0
  5  7  4  0        0
  7  8  4  0        0
  1  8  4  0        0
  8  9  1  0        0
  9 10  1  0        0
 10 11  2  0        0
 10 12  1  0        0
 12 13  1  0        0
 12 14  1  0        0
 14 15  2  0        0
 14 16  1  0        0
 16 17  1  0        0
 17 18  1  0        0
 12 19  1  0        0
 19 20  1  0        0
  9 20  1  0        0
 20 21  2  0        0
M  END
$$$$

CDXL12

 22 23  0  0  0  0  0  0  0  0999 V2000
    5.0013   -0.0000    0.0000 C   0  0  0  0  0  0  0  2  0  0  0  0
    4.2868   -0.4125    0.0000 C   0  0  0  0  0  0  0  2  0  0  0  0
    3.5724    0.0000    0.0000 O   0  0  0  0  0  0  0  2  0  0  0  0
    2.8579   -0.4125    0.0000 C   0  0  0  0  0  0  0  2  0  0  0  0
    2.8579   -1.2375    0.0000 O   0  0  0  0  0  0  0  2  0  0  0  0
    2.1434   -0.0000    0.0000 N   0  0  0  0  0  0  0  2  0  0  0  0
    1.4289   -0.4125    0.0000 C   0  0  0  0  0  0  0  2  0  0  0  0
    0.7145   -0.0000    0.0000 C   0  0  0  0  0  0  0  2  0  0  0  0
    0.0000   -0.4125    0.0000 O   0  0  0  0  0  0  0  2  0  0  0  0
   -0.7145   -0.0000    0.0000 C   0  0  0  0  0  0  0  2  0  0  0  0
   -1.4289   -0.4125    0.0000 C   0  0  0  0  0  0  0  2  0  0  0  0
   -2.1434    0.0000    0.0000 C   0  0  0  0  0  0  0  2  0  0  0  0
   -2.1434    0.8250    0.0000 C   0  0  0  0  0  0  0  2  0  0  0  0
   -2.8579    1.2375    0.0000 O   0  0  0  0  0  0  0  2  0  0  0  0
   -3.5724    0.8250    0.0000 C   0  0  0  0  0  0  0  2  0  0  0  0
   -3.5724    0.0000    0.0000 C   0  0  0  0  0  0  0  2  0  0  0  0
   -4.2868   -0.4125    0.0000 C   0  0  0  0  0  0  0  2  0  0  0  0
   -5.0013    0.0000    0.0000 C   0  0  0  0  0  0  0  2  0  0  0  0
   -5.0013    0.8250    0.0000 C   0  0  0  0  0  0  0  2  0  0  0  0
   -4.2868    1.2375    0.0000 C   0  0  0  0  0  0  0  2  0  0  0  0
   -1.4289    1.2375    0.0000 C   0  0  0  0  0  0  0  2  0  0  0  0
   -0.7145    0.8250    0.0000 C   0  0  0  0  0  0  0  2  0  0  0  0
  1  2  1  0        0
  2  3  1  0        0
  3  4  1  0        0
  4  5  2  0        0
  4  6  1  0        0
  6  7  1  0        0
  7  8  1  0        0
  8  9  1  0        0
  9 10  1  0        0
 10 11  4  0        0
 11 12  4  0        0
 12 13  4  0        0
 13 14  1  0        0
 14 15  1  0        0
 15 16  4  0        0
 16 17  4  0        0
 17 18  4  0        0
 18 19  4  0        0
 19 20  4  0        0
 15 20  4  0        0
 13 21  4  0        0
 21 22  4  0        0
 10 22  4  0        0
M  END
$$$$

CDXL12

 21 23  0  0  0  0  0  0  0  0999 V2000
   -1.6107    1.3266    0.0000 S   0  0  0  0  0  0  0  2  0  0  0  0
   -2.3953    1.0717    0.0000 C   0  0  0  0  0  0  0  2  0  0  0  0
   -3.1098    1.4842    0.0000 C   0  0  0  0  0  0  0  2  0  0  0  0
   -3.8242    1.0717    0.0000 C   0  0  0  0  0  0  0  2  0  0  0  0
   -3.8242    0.2467    0.0000 C   0  0  0  0  0  0  0  2  0  0  0  0
   -3.1098   -0.1658    0.0000 C   0  0  0  0  0  0  0  2  0  0  0  0
   -2.3953    0.2467    0.0000 C   0  0  0  0  0  0  0  2  0  0  0  0
   -1.6107   -0.0082    0.0000 N   0  0  0  0  0  0  0  2  0  0  0  0
   -1.1258    0.6592    0.0000 C   0  0  0  0  0  0  0  2  0  0  0  0
   -0.3008    0.6592    0.0000 O   0  0  0  0  0  0  0  2  0  0  0  0
    0.1117   -0.0553    0.0000 C   0  0  0  0  0  0  0  2  0  0  0  0
    0.9367   -0.0553    0.0000 C   0  0  0  0  0  0  0  2  0  0  0  0
    1.3492    0.6592    0.0000 O   0  0  0  0  0  0  0  2  0  0  0  0
    1.3492   -0.7697    0.0000 N   0  0  0  0  0  0  0  2  0  0  0  0
    0.9367   -1.4842    0.0000 C   0  0  0  0  0  0  0  2  0  0  0  0
    2.1742   -0.7697    0.0000 C   0  0  0  0  0  0  0  2  0  0  0  0
    2.5867   -0.0553    0.0000 C   0  0  0  0  0  0  0  2  0  0  0  0
    3.4117   -0.0553    0.0000 C   0  0  0  0  0  0  0  2  0  0  0  0
    3.8242   -0.7697    0.0000 C   0  0  0  0  0  0  0  2  0  0  0  0
    3.4117   -1.4842    0.0000 C   0  0  0  0  0  0  0  2  0  0  0  0
    2.5867   -1.4842    0.0000 C   0  0  0  0  0  0  0  2  0  0  0  0
  1  2  4  0        0
  2  3  4  0        0
  3  4  4  0        0
  4  5  4  0        0
  5  6  4  0        0
  6  7  4  0        0
  2  7  4  0        0
  7  8  4  0        0
  8  9  4  0        0
  1  9  4  0        0
  9 10  1  0        0
 10 11  1  0        0
 11 12  1  0        0
 12 13  2  0        0
 12 14  1  0        0
 14 15  1  0        0
 14 16  1  0        0
 16 17  4  0        0
 17 18  4  0        0
 18 19  4  0        0
 19 20  4  0        0
 20 21  4  0        0
 16 21  4  0        0
M  END
$$$$

CDXL12

 15 16  0  0  0  0  0  0  0  0999 V2000
   -1.6179    1.2375    0.0000 C   0  0  0  0  0  0  0  2  0  0  0  0
   -1.6179    0.4125    0.0000 C   0  0  0  0  0  0  0  2  0  0  0  0
   -1.9544   -0.4125    0.0000 C   0  0  0  0  0  0  0  2  0  0  0  0
   -2.6689   -0.8250    0.0000 C   0  0  0  0  0  0  0  2  0  0  0  0
   -2.6689    0.0000    0.0000 C   0  0  0  0  0  0  0  2  0  0  0  0
   -1.6179   -1.2375    0.0000 C   0  0  0  0  0  0  0  2  0  0  0  0
   -2.3324   -0.8250    0.0000 C   0  0  0  0  0  0  0  2  0  0  0  0
   -2.3324   -0.0000    0.0000 C   0  0  0  0  0  0  0  2  0  0  0  0
   -0.9034   -0.8250    0.0000 C   0  0  0  0  0  0  0  2  0  0  0  0
   -0.9034   -0.0000    0.0000 C   0  0  0  0  0  0  0  2  0  0  0  0
   -0.1890    0.4125    0.0000 N   0  0  0  0  0  0  0  2  0  0  0  0
    0.5255   -0.0000    0.0000 O   0  0  0  0  0  0  0  2  0  0  0  0
    1.2400    0.4125    0.0000 C   0  0  0  0  0  0  0  2  0  0  0  0
    1.9544   -0.0000    0.0000 C   0  0  0  0  0  0  0  2  0  0  0  0
    2.6689   -0.4125    0.0000 C   0  0  0  0  0  0  0  2  0  0  0  0
  1  2  1  0        0
  2  3  1  0        0
  3  4  1  0        0
  3  5  1  0        0
  3  6  1  0        0
  6  7  1  0        0
  7  8  1  0        0
  2  8  1  0        0
  6  9  1  0        0
  9 10  1  0        0
  2 10  1  0        0
 10 11  2  0        0
 11 12  1  0        0
 12 13  1  0        0
 13 14  1  0        0
 14 15  3  0        0
M  END
$$$$

CDXL12

 22 22  0  0  0  0  0  0  0  0999 V2000
   -2.5006   -3.0938    0.0000 C   0  0  0  0  0  0  0  2  0  0  0  0
   -1.7862   -2.6812    0.0000 C   0  0  0  0  0  0  0  2  0  0  0  0
   -1.0717   -3.0938    0.0000 C   0  0  0  0  0  0  0  2  0  0  0  0
   -0.3572   -2.6812    0.0000 C   0  0  0  0  0  0  0  2  0  0  0  0
    0.3572   -3.0938    0.0000 N   0  0  0  0  0  0  0  2  0  0  0  0
    1.0717   -2.6812    0.0000 O   0  0  0  0  0  0  0  2  0  0  0  0
    1.7862   -3.0938    0.0000 C   0  0  0  0  0  0  0  2  0  0  0  0
    2.5006   -2.6812    0.0000 C   0  0  0  0  0  0  0  2  0  0  0  0
   -0.3572   -1.8563    0.0000 C   0  0  0  0  0  0  0  2  0  0  0  0
   -1.0717   -1.4438    0.0000 C   0  0  0  0  0  0  0  2  0  0  0  0
   -1.7862   -1.8563    0.0000 O   0  0  0  0  0  0  0  2  0  0  0  0
   -1.0717   -0.6188    0.0000 C   0  0  0  0  0  0  0  2  0  0  0  0
   -0.3572   -0.2062    0.0000 C   0  0  0  0  0  0  0  2  0  0  0  0
   -0.3572    0.6188    0.0000 C   0  0  0  0  0  0  0  2  0  0  0  0
   -1.0717    1.0313    0.0000 C   0  0  0  0  0  0  0  2  0  0  0  0
   -1.7862    0.6188    0.0000 C   0  0  0  0  0  0  0  2  0  0  0  0
   -1.0717    1.8563    0.0000 S   0  0  0  0  0  0  0  2  0  0  0  0
   -1.7862    2.2687    0.0000 C   0  0  0  0  0  0  0  2  0  0  0  0
   -1.7862    3.0938    0.0000 C   0  0  0  0  0  0  0  2  0  0  0  0
    0.3572   -0.6188    0.0000 C   0  0  0  0  0  0  0  2  0  0  0  0
    0.3572   -1.4438    0.0000 C   0  0  0  0  0  0  0  2  0  0  0  0
    1.0717   -1.8563    0.0000 O   0  0  0  0  0  0  0  2  0  0  0  0
  1  2  1  0        0
  2  3  1  0        0
  3  4  1  0        0
  4  5  2  0        0
  5  6  1  0        0
  6  7  1  0        0
  7  8  1  0        0
  4  9  1  0        0
  9 10  2  0        0
 10 11  1  0        0
 10 12  1  0        0
 12 13  1  0        0
 13 14  1  0        0
 14 15  1  0        0
 15 16  1  0        0
 15 17  1  0        0
 17 18  1  0        0
 18 19  1  0        0
 13 20  1  0        0
 20 21  1  0        0
  9 21  1  0        0
 21 22  2  0        0
M  END
$$$$

CDXL12

 18 19  0  0  0  0  0  0  0  0999 V2000
   -2.1434   -0.8250    0.0000 C   0  0  0  0  0  0  0  2  0  0  0  0
   -2.8579   -0.4125    0.0000 C   0  0  0  0  0  0  0  2  0  0  0  0
   -2.8579    0.4125    0.0000 C   0  0  0  0  0  0  0  2  0  0  0  0
   -2.1434    0.8250    0.0000 C   0  0  0  0  0  0  0  2  0  0  0  0
   -1.4289    0.4125    0.0000 C   0  0  0  0  0  0  0  2  0  0  0  0
   -1.4289   -0.4125    0.0000 C   0  0  0  0  0  0  0  2  0  0  0  0
   -0.7145   -0.8250    0.0000 O   0  0  0  0  0  0  0  2  0  0  0  0
    0.0000   -0.4125    0.0000 C   0  0  0  0  0  0  0  2  0  0  0  0
    0.7145   -0.8250    0.0000 C   0  0  0  0  0  0  0  2  0  0  0  0
    0.7145   -1.6500    0.0000 Cl  0  0  0  0  0  0  0  2  0  0  0  0
    1.4289   -0.4125    0.0000 C   0  0  0  0  0  0  0  2  0  0  0  0
    2.1434   -0.8250    0.0000 N   0  0  0  0  0  0  0  2  0  0  0  0
    1.4289    0.4125    0.0000 C   0  0  0  0  0  0  0  2  0  0  0  0
    2.1434    0.8250    0.0000 N   0  0  0  0  0  0  0  2  0  0  0  0
    2.1434    1.6500    0.0000 O   0  0  0  0  0  0  0  2  0  0  0  0
    2.8579    0.4125    0.0000 O   0  0  0  0  0  0  0  2  0  0  0  0
    0.7145    0.8250    0.0000 C   0  0  0  0  0  0  0  2  0  0  0  0
    0.0000    0.4125    0.0000 C   0  0  0  0  0  0  0  2  0  0  0  0
  1  2  4  0        0
  2  3  4  0        0
  3  4  4  0        0
  4  5  4  0        0
  5  6  4  0        0
  1  6  4  0        0
  6  7  1  0        0
  7  8  1  0        0
  8  9  4  0        0
  9 10  1  0        0
  9 11  4  0        0
 11 12  1  0        0
 11 13  4  0        0
 13 14  1  0        0
 14 15  2  0        0
 14 16  2  0        0
 13 17  4  0        0
 17 18  4  0        0
  8 18  4  0        0
M  END
$$$$

CDXL12

 25 26  0  0  0  0  0  0  0  0999 V2000
    2.1434   -1.2928    0.0000 N   0  0  0  0  0  0  0  2  0  0  0  0
    2.8579   -0.8803    0.0000 C   0  0  0  0  0  0  0  2  0  0  0  0
    3.5724   -1.2928    0.0000 C   0  0  0  0  0  0  0  2  0  0  0  0
    2.8579   -0.0553    0.0000 C   0  0  0  0  0  0  0  2  0  0  0  0
    2.1434    0.3572    0.0000 C   0  0  0  0  0  0  0  2  0  0  0  0
    2.1434    1.1822    0.0000 C   0  0  0  0  0  0  0  2  0  0  0  0
    1.4289   -0.0553    0.0000 N   0  0  0  0  0  0  0  2  0  0  0  0
    1.4289   -0.8803    0.0000 C   0  0  0  0  0  0  0  2  0  0  0  0
    0.7145   -1.2928    0.0000 N   0  0  0  0  0  0  0  2  0  0  0  0
   -0.0000   -0.8803    0.0000 C   0  0  0  0  0  0  0  2  0  0  0  0
   -0.0000   -0.0553    0.0000 O   0  0  0  0  0  0  0  2  0  0  0  0
   -0.7145   -1.2928    0.0000 N   0  0  0  0  0  0  0  2  0  0  0  0
   -1.4289   -0.8803    0.0000 S   0  0  0  0  0  0  0  2  0  0  0  0
   -1.0164   -0.1658    0.0000 O   0  0  0  0  0  0  0  2  0  0  0  0
   -1.8414   -1.5947    0.0000 O   0  0  0  0  0  0  0  2  0  0  0  0
   -2.1434   -0.4678    0.0000 C   0  0  0  0  0  0  0  2  0  0  0  0
   -2.8579   -0.8803    0.0000 C   0  0  0  0  0  0  0  2  0  0  0  0
   -3.5724   -0.4678    0.0000 C   0  0  0  0  0  0  0  2  0  0  0  0
   -3.5724    0.3572    0.0000 C   0  0  0  0  0  0  0  2  0  0  0  0
   -2.8579    0.7697    0.0000 C   0  0  0  0  0  0  0  2  0  0  0  0
   -2.1434    0.3572    0.0000 C   0  0  0  0  0  0  0  2  0  0  0  0
   -1.4289    0.7697    0.0000 C   0  0  0  0  0  0  0  2  0  0  0  0
   -1.4289    1.5947    0.0000 O   0  0  0  0  0  0  0  2  0  0  0  0
   -0.7145    0.3572    0.0000 O   0  0  0  0  0  0  0  2  0  0  0  0
   -0.0000    0.7697    0.0000 C   0  0  0  0  0  0  0  2  0  0  0  0
  1  2  4  0        0
  2  3  1  0        0
  2  4  4  0        0
  4  5  4  0        0
  5  6  1  0        0
  5  7  4  0        0
  7  8  4  0        0
  1  8  4  0        0
  8  9  1  0        0
  9 10  1  0        0
 10 11  2  0        0
 10 12  1  0        0
 12 13  1  0        0
 13 14  2  0        0
 13 15  2  0        0
 13 16  1  0        0
 16 17  4  0        0
 17 18  4  0        0
 18 19  4  0        0
 19 20  4  0        0
 20 21  4  0        0
 16 21  4  0        0
 21 22  1  0        0
 22 23  2  0        0
 22 24  1  0        0
 24 25  1  0        0
M  END
$$$$

CDXL12

 24 25  0  0  0  0  0  0  0  0999 V2000
   -0.7145    0.3572    0.0000 O   0  0  0  0  0  0  0  2  0  0  0  0
   -1.4289    0.7697    0.0000 C   0  0  0  0  0  0  0  2  0  0  0  0
   -1.4289    1.5947    0.0000 O   0  0  0  0  0  0  0  2  0  0  0  0
   -2.1434    0.3572    0.0000 C   0  0  0  0  0  0  0  2  0  0  0  0
   -2.8579    0.7697    0.0000 C   0  0  0  0  0  0  0  2  0  0  0  0
   -3.5724    0.3572    0.0000 C   0  0  0  0  0  0  0  2  0  0  0  0
   -3.5724   -0.4678    0.0000 C   0  0  0  0  0  0  0  2  0  0  0  0
   -2.8579   -0.8803    0.0000 C   0  0  0  0  0  0  0  2  0  0  0  0
   -2.1434   -0.4678    0.0000 C   0  0  0  0  0  0  0  2  0  0  0  0
   -1.4289   -0.8803    0.0000 S   0  0  0  0  0  0  0  2  0  0  0  0
   -1.0164   -0.1658    0.0000 O   0  0  0  0  0  0  0  2  0  0  0  0
   -1.8414   -1.5947    0.0000 O   0  0  0  0  0  0  0  2  0  0  0  0
   -0.7145   -1.2928    0.0000 N   0  0  0  0  0  0  0  2  0  0  0  0
   -0.0000   -0.8803    0.0000 C   0  0  0  0  0  0  0  2  0  0  0  0
   -0.0000   -0.0553    0.0000 O   0  0  0  0  0  0  0  2  0  0  0  0
    0.7145   -1.2928    0.0000 N   0  0  0  0  0  0  0  2  0  0  0  0
    1.4289   -0.8803    0.0000 C   0  0  0  0  0  0  0  2  0  0  0  0
    2.1434   -1.2928    0.0000 N   0  0  0  0  0  0  0  2  0  0  0  0
    2.8579   -0.8803    0.0000 C   0  0  0  0  0  0  0  2  0  0  0  0
    3.5724   -1.2928    0.0000 C   0  0  0  0  0  0  0  2  0  0  0  0
    2.8579   -0.0553    0.0000 C   0  0  0  0  0  0  0  2  0  0  0  0
    2.1434    0.3572    0.0000 C   0  0  0  0  0  0  0  2  0  0  0  0
    2.1434    1.1822    0.0000 C   0  0  0  0  0  0  0  2  0  0  0  0
    1.4289   -0.0553    0.0000 N   0  0  0  0  0  0  0  2  0  0  0  0
  1  2  1  0        0
  2  3  2  0        0
  2  4  1  0        0
  4  5  4  0        0
  5  6  4  0        0
  6  7  4  0        0
  7  8  4  0        0
  8  9  4  0        0
  4  9  4  0        0
  9 10  1  0        0
 10 11  2  0        0
 10 12  2  0        0
 10 13  1  0        0
 13 14  1  0        0
 14 15  2  0        0
 14 16  1  0        0
 16 17  1  0        0
 17 18  4  0        0
 18 19  4  0        0
 19 20  1  0        0
 19 21  4  0        0
 21 22  4  0        0
 22 23  1  0        0
 22 24  4  0        0
 17 24  4  0        0
M  END
$$$$

CDXL12

 26 27  0  0  0  0  0  0  0  0999 V2000
   -0.3572    0.7697    0.0000 C   0  0  0  0  0  0  0  2  0  0  0  0
   -1.0717    0.3572    0.0000 O   0  0  0  0  0  0  0  2  0  0  0  0
   -1.7862    0.7697    0.0000 C   0  0  0  0  0  0  0  2  0  0  0  0
   -1.7862    1.5947    0.0000 O   0  0  0  0  0  0  0  2  0  0  0  0
   -2.5006    0.3572    0.0000 C   0  0  0  0  0  0  0  2  0  0  0  0
   -3.2151    0.7697    0.0000 C   0  0  0  0  0  0  0  2  0  0  0  0
   -3.9296    0.3572    0.0000 C   0  0  0  0  0  0  0  2  0  0  0  0
   -3.9296   -0.4678    0.0000 C   0  0  0  0  0  0  0  2  0  0  0  0
   -3.2151   -0.8803    0.0000 C   0  0  0  0  0  0  0  2  0  0  0  0
   -2.5006   -0.4678    0.0000 C   0  0  0  0  0  0  0  2  0  0  0  0
   -1.7862   -0.8803    0.0000 S   0  0  0  0  0  0  0  2  0  0  0  0
   -1.3737   -0.1658    0.0000 O   0  0  0  0  0  0  0  2  0  0  0  0
   -2.1987   -1.5947    0.0000 O   0  0  0  0  0  0  0  2  0  0  0  0
   -1.0717   -1.2928    0.0000 N   0  0  0  0  0  0  0  2  0  0  0  0
   -0.3572   -0.8803    0.0000 C   0  0  0  0  0  0  0  2  0  0  0  0
   -0.3572   -0.0553    0.0000 O   0  0  0  0  0  0  0  2  0  0  0  0
    0.3572   -1.2928    0.0000 N   0  0  0  0  0  0  0  2  0  0  0  0
    1.0717   -0.8803    0.0000 C   0  0  0  0  0  0  0  2  0  0  0  0
    1.7862   -1.2928    0.0000 N   0  0  0  0  0  0  0  2  0  0  0  0
    2.5006   -0.8803    0.0000 C   0  0  0  0  0  0  0  2  0  0  0  0
    3.2151   -1.2928    0.0000 O   0  0  0  0  0  0  0  2  0  0  0  0
    3.9296   -0.8803    0.0000 C   0  0  0  0  0  0  0  2  0  0  0  0
    2.5006   -0.0553    0.0000 N   0  0  0  0  0  0  0  2  0  0  0  0
    1.7862    0.3572    0.0000 C   0  0  0  0  0  0  0  2  0  0  0  0
    1.7862    1.1822    0.0000 C   0  0  0  0  0  0  0  2  0  0  0  0
    1.0717   -0.0553    0.0000 N   0  0  0  0  0  0  0  2  0  0  0  0
  1  2  1  0        0
  2  3  1  0        0
  3  4  2  0        0
  3  5  1  0        0
  5  6  4  0        0
  6  7  4  0        0
  7  8  4  0        0
  8  9  4  0        0
  9 10  4  0        0
  5 10  4  0        0
 10 11  1  0        0
 11 12  2  0        0
 11 13  2  0        0
 11 14  1  0        0
 14 15  1  0        0
 15 16  2  0        0
 15 17  1  0        0
 17 18  1  0        0
 18 19  4  0        0
 19 20  4  0        0
 20 21  1  0        0
 21 22  1  0        0
 20 23  4  0        0
 23 24  4  0        0
 24 25  1  0        0
 24 26  4  0        0
 18 26  4  0        0
M  END
$$$$

CDXL12

 16 17  0  0  0  0  0  0  0  0999 V2000
    0.3572    1.0313    0.0000 Cl  0  0  0  0  0  0  0  2  0  0  0  0
   -0.3572    0.6188    0.0000 C   0  0  0  0  0  0  0  2  0  0  0  0
   -0.3572   -0.2062    0.0000 C   0  0  0  0  0  0  0  2  0  0  0  0
   -1.0717   -0.6187    0.0000 C   0  0  0  0  0  0  0  2  0  0  0  0
   -1.7862   -0.2062    0.0000 C   0  0  0  0  0  0  0  2  0  0  0  0
   -1.7862    0.6188    0.0000 C   0  0  0  0  0  0  0  2  0  0  0  0
   -1.0717    1.0313    0.0000 C   0  0  0  0  0  0  0  2  0  0  0  0
   -1.0717    1.8563    0.0000 Cl  0  0  0  0  0  0  0  2  0  0  0  0
   -2.5006   -0.6187    0.0000 Cl  0  0  0  0  0  0  0  2  0  0  0  0
    0.3572   -0.6188    0.0000 C   0  0  0  0  0  0  0  2  0  0  0  0
    1.0717   -0.2062    0.0000 C   0  0  0  0  0  0  0  2  0  0  0  0
    1.7862   -0.6188    0.0000 C   0  0  0  0  0  0  0  2  0  0  0  0
    1.7862   -1.4438    0.0000 C   0  0  0  0  0  0  0  2  0  0  0  0
    1.0717   -1.8563    0.0000 C   0  0  0  0  0  0  0  2  0  0  0  0
    0.3572   -1.4438    0.0000 C   0  0  0  0  0  0  0  2  0  0  0  0
    2.5006   -1.8563    0.0000 Cl  0  0  0  0  0  0  0  2  0  0  0  0
  1  2  1  0        0
  2  3  4  0        0
  3  4  4  0        0
  4  5  4  0        0
  5  6  4  0        0
  6  7  4  0        0
  2  7  4  0        0
  7  8  1  0        0
  5  9  1  0        0
  3 10  1  0        0
 10 11  4  0        0
 11 12  4  0        0
 12 13  4  0        0
 13 14  4  0        0
 14 15  4  0        0
 10 15  4  0        0
 13 16  1  0        0
M  END
$$$$

CDXL12

 17 18  0  0  0  0  0  0  0  0999 V2000
    1.0717    1.8562    0.0000 Cl  0  0  0  0  0  0  0  2  0  0  0  0
    1.0717    1.0312    0.0000 C   0  0  0  0  0  0  0  2  0  0  0  0
    1.7862    0.6187    0.0000 C   0  0  0  0  0  0  0  2  0  0  0  0
    1.7862   -0.2063    0.0000 C   0  0  0  0  0  0  0  2  0  0  0  0
    1.0717   -0.6187    0.0000 C   0  0  0  0  0  0  0  2  0  0  0  0
    0.3572   -0.2063    0.0000 C   0  0  0  0  0  0  0  2  0  0  0  0
    0.3572    0.6187    0.0000 C   0  0  0  0  0  0  0  2  0  0  0  0
   -0.3572    1.0312    0.0000 Cl  0  0  0  0  0  0  0  2  0  0  0  0
   -0.3572   -0.6187    0.0000 C   0  0  0  0  0  0  0  2  0  0  0  0
   -0.3572   -1.4437    0.0000 C   0  0  0  0  0  0  0  2  0  0  0  0
   -1.0717   -1.8562    0.0000 C   0  0  0  0  0  0  0  2  0  0  0  0
   -1.7862   -1.4437    0.0000 C   0  0  0  0  0  0  0  2  0  0  0  0
   -1.7862   -0.6187    0.0000 C   0  0  0  0  0  0  0  2  0  0  0  0
   -1.0717   -0.2063    0.0000 C   0  0  0  0  0  0  0  2  0  0  0  0
   -2.5006   -1.8562    0.0000 Cl  0  0  0  0  0  0  0  2  0  0  0  0
    2.5006   -0.6188    0.0000 Cl  0  0  0  0  0  0  0  2  0  0  0  0
    2.5006    1.0312    0.0000 Cl  0  0  0  0  0  0  0  2  0  0  0  0
  1  2  1  0        0
  2  3  4  0        0
  3  4  4  0        0
  4  5  4  0        0
  5  6  4  0        0
  6  7  4  0        0
  2  7  4  0        0
  7  8  1  0        0
  6  9  1  0        0
  9 10  4  0        0
 10 11  4  0        0
 11 12  4  0        0
 12 13  4  0        0
 13 14  4  0        0
  9 14  4  0        0
 12 15  1  0        0
  4 16  1  0        0
  3 17  1  0        0
M  END
$$$$

CDXL12

 18 19  0  0  0  0  0  0  0  0999 V2000
   -1.0717    1.0313    0.0000 Cl  0  0  0  0  0  0  0  2  0  0  0  0
   -1.0717    0.2062    0.0000 C   0  0  0  0  0  0  0  2  0  0  0  0
   -0.3572   -0.2062    0.0000 C   0  0  0  0  0  0  0  2  0  0  0  0
   -0.3572   -1.0313    0.0000 C   0  0  0  0  0  0  0  2  0  0  0  0
   -1.0717   -1.4437    0.0000 C   0  0  0  0  0  0  0  2  0  0  0  0
   -1.7862   -1.0313    0.0000 C   0  0  0  0  0  0  0  2  0  0  0  0
   -1.7862   -0.2062    0.0000 C   0  0  0  0  0  0  0  2  0  0  0  0
   -2.5006    0.2062    0.0000 Cl  0  0  0  0  0  0  0  2  0  0  0  0
   -2.5006   -1.4437    0.0000 Cl  0  0  0  0  0  0  0  2  0  0  0  0
    0.3572   -1.4438    0.0000 Cl  0  0  0  0  0  0  0  2  0  0  0  0
    0.3572    0.2062    0.0000 C   0  0  0  0  0  0  0  2  0  0  0  0
    0.3572    1.0313    0.0000 C   0  0  0  0  0  0  0  2  0  0  0  0
    1.0717    1.4438    0.0000 C   0  0  0  0  0  0  0  2  0  0  0  0
    1.7862    1.0313    0.0000 C   0  0  0  0  0  0  0  2  0  0  0  0
    1.7862    0.2062    0.0000 C   0  0  0  0  0  0  0  2  0  0  0  0
    1.0717   -0.2062    0.0000 C   0  0  0  0  0  0  0  2  0  0  0  0
    2.5006   -0.2062    0.0000 Cl  0  0  0  0  0  0  0  2  0  0  0  0
    2.5006    1.4438    0.0000 Cl  0  0  0  0  0  0  0  2  0  0  0  0
  1  2  1  0        0
  2  3  4  0        0
  3  4  4  0        0
  4  5  4  0        0
  5  6  4  0        0
  6  7  4  0        0
  2  7  4  0        0
  7  8  1  0        0
  6  9  1  0        0
  4 10  1  0        0
  3 11  1  0        0
 11 12  4  0        0
 12 13  4  0        0
 13 14  4  0        0
 14 15  4  0        0
 15 16  4  0        0
 11 16  4  0        0
 15 17  1  0        0
 14 18  1  0        0
M  END
$$$$

CDXL12

 17 18  0  0  0  0  0  0  0  0999 V2000
    1.5768   -0.0045    0.0000 O   0  0  0  0  0  0  0  2  0  0  0  0
    2.3838    0.1670    0.0000 C   0  0  0  0  0  0  0  2  0  0  0  0
    2.7963   -0.5475    0.0000 C   0  0  0  0  0  0  0  2  0  0  0  0
    2.2442   -1.1606    0.0000 O   0  0  0  0  0  0  0  2  0  0  0  0
    1.4906   -0.8250    0.0000 C   0  0  0  0  0  0  0  2  0  0  0  0
    0.7761   -1.2375    0.0000 C   0  0  0  0  0  0  0  2  0  0  0  0
    0.0616   -0.8250    0.0000 O   0  0  0  0  0  0  0  2  0  0  0  0
   -0.6529   -1.2375    0.0000 N   0  0  0  0  0  0  0  2  0  0  0  0
   -1.3673   -0.8250    0.0000 C   0  0  0  0  0  0  0  2  0  0  0  0
   -2.0818   -1.2375    0.0000 C   0  0  0  0  0  0  0  2  0  0  0  0
   -2.7963   -1.6500    0.0000 N   0  0  0  0  0  0  0  2  0  0  0  0
   -1.3673    0.0000    0.0000 C   0  0  0  0  0  0  0  2  0  0  0  0
   -2.0818    0.4125    0.0000 C   0  0  0  0  0  0  0  2  0  0  0  0
   -2.0818    1.2375    0.0000 C   0  0  0  0  0  0  0  2  0  0  0  0
   -1.3673    1.6500    0.0000 C   0  0  0  0  0  0  0  2  0  0  0  0
   -0.6529    1.2375    0.0000 C   0  0  0  0  0  0  0  2  0  0  0  0
   -0.6529    0.4125    0.0000 C   0  0  0  0  0  0  0  2  0  0  0  0
  1  2  1  0        0
  2  3  1  0        0
  3  4  1  0        0
  4  5  1  0        0
  1  5  1  0        0
  5  6  1  0        0
  6  7  1  0        0
  7  8  1  0        0
  8  9  2  0        0
  9 10  1  0        0
 10 11  3  0        0
  9 12  1  0        0
 12 13  4  0        0
 13 14  4  0        0
 14 15  4  0        0
 15 16  4  0        0
 16 17  4  0        0
 12 17  4  0        0
M  END
$$$$

CDXL12

 21 22  0  0  0  0  0  0  0  0999 V2000
    1.4289   -1.6660    0.0000 Cl  0  0  0  0  0  0  0  2  0  0  0  0
    1.4289   -0.8410    0.0000 C   0  0  0  0  0  0  0  2  0  0  0  0
    2.1434   -0.4285    0.0000 C   0  0  0  0  0  0  0  2  0  0  0  0
    2.1434    0.3965    0.0000 C   0  0  0  0  0  0  0  2  0  0  0  0
    2.8579    0.8090    0.0000 Cl  0  0  0  0  0  0  0  2  0  0  0  0
    1.4289    0.8090    0.0000 C   0  0  0  0  0  0  0  2  0  0  0  0
    0.7145    0.3965    0.0000 C   0  0  0  0  0  0  0  2  0  0  0  0
    0.7145   -0.4285    0.0000 C   0  0  0  0  0  0  0  2  0  0  0  0
    0.0000   -0.8410    0.0000 C   0  0  0  0  0  0  0  2  0  0  0  0
   -0.7145   -0.4285    0.0000 C   0  0  0  0  0  0  0  2  0  0  0  0
   -1.4289   -0.8410    0.0000 C   0  0  0  0  0  0  0  2  0  0  0  0
   -1.4289   -1.6660    0.0000 O   0  0  0  0  0  0  0  2  0  0  0  0
   -2.1434   -0.4285    0.0000 C   0  0  0  0  0  0  0  2  0  0  0  0
   -2.8579   -0.8410    0.0000 C   0  0  0  0  0  0  0  2  0  0  0  0
   -2.8579   -0.0160    0.0000 C   0  0  0  0  0  0  0  2  0  0  0  0
   -2.1434    0.3965    0.0000 C   0  0  0  0  0  0  0  2  0  0  0  0
   -0.7145    0.3965    0.0000 N   0  0  0  0  0  0  0  2  0  0  0  0
   -1.3819    0.8814    0.0000 N   0  0  0  0  0  0  0  2  0  0  0  0
   -1.1270    1.6660    0.0000 C   0  0  0  0  0  0  0  2  0  0  0  0
   -0.3020    1.6660    0.0000 N   0  0  0  0  0  0  0  2  0  0  0  0
   -0.0470    0.8814    0.0000 C   0  0  0  0  0  0  0  2  0  0  0  0
  1  2  1  0        0
  2  3  4  0        0
  3  4  4  0        0
  4  5  1  0        0
  4  6  4  0        0
  6  7  4  0        0
  7  8  4  0        0
  2  8  4  0        0
  8  9  1  0        0
  9 10  1  0        0
 10 11  1  0        0
 11 12  1  0        0
 11 13  1  0        0
 13 14  1  0        0
 13 15  1  0        0
 13 16  1  0        0
 10 17  1  0        0
 17 18  4  0        0
 18 19  4  0        0
 19 20  4  0        0
 20 21  4  0        0
 17 21  4  0        0
M  END
$$$$

CDXL12

 35 36  0  0  0  0  0  0  0  0999 V2000
    2.1434   -1.7542    0.0000 C   0  0  0  0  0  0  0  2  0  0  0  0
    2.1434   -2.5792    0.0000 C   0  0  0  0  0  0  0  2  0  0  0  0
    1.4289   -2.9917    0.0000 C   0  0  0  0  0  0  0  2  0  0  0  0
    0.7145   -2.5792    0.0000 C   0  0  0  0  0  0  0  2  0  0  0  0
    0.7145   -1.7542    0.0000 C   0  0  0  0  0  0  0  2  0  0  0  0
    1.4289   -1.3417    0.0000 C   0  0  0  0  0  0  0  2  0  0  0  0
    1.4289   -0.5167    0.0000 C   0  0  0  0  0  0  0  2  0  0  0  0
    0.7145   -0.1042    0.0000 C   0  0  0  0  0  0  0  2  0  0  0  0
    0.7145    0.7208    0.0000 C   0  0  0  0  0  0  0  2  0  0  0  0
    1.4289    1.1333    0.0000 C   0  0  0  0  0  0  0  2  0  0  0  0
    1.4289    1.9583    0.0000 O   0  0  0  0  0  0  0  2  0  0  0  0
    2.1434    0.7208    0.0000 O   0  0  0  0  0  0  0  2  0  0  0  0
    2.8579    1.1333    0.0000 C   0  0  0  0  0  0  0  2  0  0  0  0
    3.5724    0.7208    0.0000 C   0  0  0  0  0  0  0  2  0  0  0  0
    0.0000    1.1333    0.0000 N   0  0  0  0  0  0  0  2  0  0  0  0
   -0.7145    0.7208    0.0000 C   0  0  0  0  0  0  0  2  0  0  0  0
   -0.7145   -0.1042    0.0000 C   0  0  0  0  0  0  0  2  0  0  0  0
   -1.4289    1.1333    0.0000 C   0  0  0  0  0  0  0  2  0  0  0  0
   -1.4289    1.9583    0.0000 O   0  0  0  0  0  0  0  2  0  0  0  0
   -2.1434    0.7208    0.0000 N   0  0  0  0  0  0  0  2  0  0  0  0
   -1.4289    0.3083    0.0000 O   0  0  0  0  0  0  0  2  0  0  0  0
   -1.4289   -0.5167    0.0000 C   0  0  0  0  0  0  0  2  0  0  0  0
   -0.7145   -0.9292    0.0000 O   0  0  0  0  0  0  0  2  0  0  0  0
   -2.1434   -0.9292    0.0000 C   0  0  0  0  0  0  0  2  0  0  0  0
   -2.1434   -1.7542    0.0000 C   0  0  0  0  0  0  0  2  0  0  0  0
   -2.8579   -2.1667    0.0000 C   0  0  0  0  0  0  0  2  0  0  0  0
   -2.8579   -2.9917    0.0000 O   0  0  0  0  0  0  0  2  0  0  0  0
   -3.5724   -1.7542    0.0000 O   0  0  0  0  0  0  0  2  0  0  0  0
   -2.6283    1.3883    0.0000 C   0  0  0  0  0  0  0  2  0  0  0  0
   -2.2969    2.4083    0.0000 C   0  0  0  0  0  0  0  2  0  0  0  0
   -2.8803    2.9917    0.0000 O   0  0  0  0  0  0  0  2  0  0  0  0
   -1.4899    2.5798    0.0000 O   0  0  0  0  0  0  0  2  0  0  0  0
   -3.4130    1.1333    0.0000 C   0  0  0  0  0  0  0  2  0  0  0  0
   -3.4130    0.3083    0.0000 C   0  0  0  0  0  0  0  2  0  0  0  0
   -2.6283    0.0534    0.0000 C   0  0  0  0  0  0  0  2  0  0  0  0
  1  2  4  0        0
  2  3  4  0        0
  3  4  4  0        0
  4  5  4  0        0
  5  6  4  0        0
  1  6  4  0        0
  6  7  1  0        0
  7  8  1  0        0
  8  9  1  0        0
  9 10  1  0        0
 10 11  2  0        0
 10 12  1  0        0
 12 13  1  0        0
 13 14  1  0        0
  9 15  1  0        0
 15 16  1  0        0
 16 17  1  0        0
 16 18  1  0        0
 18 19  2  0        0
 18 20  1  0        0
 20 21  1  0        0
 21 22  1  0        0
 22 23  2  0        0
 22 24  1  0        0
 24 25  2  0        0
 25 26  1  0        0
 26 27  2  0        0
 26 28  1  0        0
 20 29  1  0        0
 29 30  1  0        0
 30 31  2  0        0
 30 32  1  0        0
 29 33  1  0        0
 33 34  1  0        0
 34 35  1  0        0
 20 35  1  0        0
M  END
$$$$

CDXL12

 15 15  0  0  0  0  0  0  0  0999 V2000
    2.1434   -0.6188    0.0000 C   0  0  0  0  0  0  0  2  0  0  0  0
    1.4289   -1.0313    0.0000 O   0  0  0  0  0  0  0  2  0  0  0  0
    0.7145   -0.6188    0.0000 C   0  0  0  0  0  0  0  2  0  0  0  0
    0.0000   -1.0313    0.0000 C   0  0  0  0  0  0  0  2  0  0  0  0
   -0.7145   -0.6188    0.0000 C   0  0  0  0  0  0  0  2  0  0  0  0
   -0.7145    0.2062    0.0000 C   0  0  0  0  0  0  0  2  0  0  0  0
   -1.4289    0.6187    0.0000 Cl  0  0  0  0  0  0  0  2  0  0  0  0
    0.0000    0.6187    0.0000 C   0  0  0  0  0  0  0  2  0  0  0  0
    0.7145    0.2062    0.0000 C   0  0  0  0  0  0  0  2  0  0  0  0
    1.4289    0.6187    0.0000 O   0  0  0  0  0  0  0  2  0  0  0  0
    0.0000    1.4437    0.0000 O   0  0  0  0  0  0  0  2  0  0  0  0
    0.7145    1.8562    0.0000 C   0  0  0  0  0  0  0  2  0  0  0  0
   -1.4289   -1.0313    0.0000 C   0  0  0  0  0  0  0  2  0  0  0  0
   -2.1434   -0.6188    0.0000 O   0  0  0  0  0  0  0  2  0  0  0  0
    0.0000   -1.8562    0.0000 Cl  0  0  0  0  0  0  0  2  0  0  0  0
  1  2  1  0        0
  2  3  1  0        0
  3  4  4  0        0
  4  5  4  0        0
  5  6  4  0        0
  6  7  1  0        0
  6  8  4  0        0
  8  9  4  0        0
  3  9  4  0        0
  9 10  1  0        0
  8 11  1  0        0
 11 12  1  0        0
  5 13  1  0        0
 13 14  2  0        0
  4 15  1  0        0
M  END
$$$$

CDXL12

 14 14  0  0  0  0  0  0  0  0999 V2000
    2.1434   -0.6188    0.0000 C   0  0  0  0  0  0  0  2  0  0  0  0
    1.4289   -1.0313    0.0000 O   0  0  0  0  0  0  0  2  0  0  0  0
    0.7145   -0.6188    0.0000 C   0  0  0  0  0  0  0  2  0  0  0  0
    0.0000   -1.0313    0.0000 C   0  0  0  0  0  0  0  2  0  0  0  0
   -0.7145   -0.6188    0.0000 C   0  0  0  0  0  0  0  2  0  0  0  0
   -0.7145    0.2062    0.0000 C   0  0  0  0  0  0  0  2  0  0  0  0
    0.0000    0.6187    0.0000 C   0  0  0  0  0  0  0  2  0  0  0  0
    0.7145    0.2062    0.0000 C   0  0  0  0  0  0  0  2  0  0  0  0
    1.4289    0.6187    0.0000 O   0  0  0  0  0  0  0  2  0  0  0  0
    0.0000    1.4437    0.0000 O   0  0  0  0  0  0  0  2  0  0  0  0
    0.7145    1.8562    0.0000 C   0  0  0  0  0  0  0  2  0  0  0  0
   -1.4289   -1.0313    0.0000 C   0  0  0  0  0  0  0  2  0  0  0  0
   -2.1434   -0.6188    0.0000 O   0  0  0  0  0  0  0  2  0  0  0  0
    0.0000   -1.8562    0.0000 Cl  0  0  0  0  0  0  0  2  0  0  0  0
  1  2  1  0        0
  2  3  1  0        0
  3  4  4  0        0
  4  5  4  0        0
  5  6  4  0        0
  6  7  4  0        0
  7  8  4  0        0
  3  8  4  0        0
  8  9  1  0        0
  7 10  1  0        0
 10 11  1  0        0
  5 12  1  0        0
 12 13  2  0        0
  4 14  1  0        0
M  END
$$$$

CDXL12

 26 28  0  0  0  0  0  0  0  0999 V2000
   -2.5006   -1.2375    0.0000 N   0  0  0  0  0  0  0  2  0  0  0  0
   -3.2151   -0.8250    0.0000 C   0  0  0  0  0  0  0  2  0  0  0  0
   -3.9296   -1.2375    0.0000 C   0  0  0  0  0  0  0  2  0  0  0  0
   -4.6441   -0.8250    0.0000 C   0  0  0  0  0  0  0  2  0  0  0  0
   -4.6441   -0.0000    0.0000 C   0  0  0  0  0  0  0  2  0  0  0  0
   -5.3585    0.4125    0.0000 Cl  0  0  0  0  0  0  0  2  0  0  0  0
   -3.9296    0.4125    0.0000 C   0  0  0  0  0  0  0  2  0  0  0  0
   -3.2151   -0.0000    0.0000 C   0  0  0  0  0  0  0  2  0  0  0  0
   -2.5006    0.4125    0.0000 N   0  0  0  0  0  0  0  2  0  0  0  0
   -1.7862   -0.0000    0.0000 C   0  0  0  0  0  0  0  2  0  0  0  0
   -1.7862   -0.8250    0.0000 C   0  0  0  0  0  0  0  2  0  0  0  0
   -1.0717   -1.2375    0.0000 O   0  0  0  0  0  0  0  2  0  0  0  0
   -0.3572   -0.8250    0.0000 C   0  0  0  0  0  0  0  2  0  0  0  0
   -0.3572   -0.0000    0.0000 C   0  0  0  0  0  0  0  2  0  0  0  0
    0.3572    0.4125    0.0000 C   0  0  0  0  0  0  0  2  0  0  0  0
    1.0717   -0.0000    0.0000 C   0  0  0  0  0  0  0  2  0  0  0  0
    1.7862    0.4125    0.0000 O   0  0  0  0  0  0  0  2  0  0  0  0
    2.5006   -0.0000    0.0000 C   0  0  0  0  0  0  0  2  0  0  0  0
    2.5006   -0.8250    0.0000 C   0  0  0  0  0  0  0  2  0  0  0  0
    3.2151    0.4125    0.0000 C   0  0  0  0  0  0  0  2  0  0  0  0
    3.2151    1.2375    0.0000 O   0  0  0  0  0  0  0  2  0  0  0  0
    3.9296   -0.0000    0.0000 O   0  0  0  0  0  0  0  2  0  0  0  0
    4.6441    0.4125    0.0000 C   0  0  0  0  0  0  0  2  0  0  0  0
    5.3585   -0.0000    0.0000 C   0  0  0  0  0  0  0  2  0  0  0  0
    1.0717   -0.8250    0.0000 C   0  0  0  0  0  0  0  2  0  0  0  0
    0.3572   -1.2375    0.0000 C   0  0  0  0  0  0  0  2  0  0  0  0
  1  2  4  0        0
  2  3  4  0        0
  3  4  4  0        0
  4  5  4  0        0
  5  6  1  0        0
  5  7  4  0        0
  7  8  4  0        0
  2  8  4  0        0
  8  9  4  0        0
  9 10  4  0        0
 10 11  4  0        0
  1 11  4  0        0
 11 12  1  0        0
 12 13  1  0        0
 13 14  4  0        0
 14 15  4  0        0
 15 16  4  0        0
 16 17  1  0        0
 17 18  1  0        0
 18 19  1  0        0
 18 20  1  0        0
 20 21  2  0        0
 20 22  1  0        0
 22 23  1  0        0
 23 24  1  0        0
 16 25  4  0        0
 25 26  4  0        0
 13 26  4  0        0
M  END
$$$$

CDXL12

 22 24  0  0  0  0  0  0  0  0999 V2000
    1.8870    1.1606    0.0000 N   0  0  0  0  0  0  0  2  0  0  0  0
    2.4390    0.5475    0.0000 C   0  0  0  0  0  0  0  2  0  0  0  0
    2.0265   -0.1670    0.0000 N   0  0  0  0  0  0  0  2  0  0  0  0
    1.2196    0.0045    0.0000 C   0  0  0  0  0  0  0  2  0  0  0  0
    1.1333    0.8250    0.0000 N   0  0  0  0  0  0  0  2  0  0  0  0
    0.4189    1.2375    0.0000 C   0  0  0  0  0  0  0  2  0  0  0  0
   -0.2956    0.8250    0.0000 C   0  0  0  0  0  0  0  2  0  0  0  0
   -0.2956    1.6500    0.0000 O   0  0  0  0  0  0  0  2  0  0  0  0
   -0.2956    0.0000    0.0000 C   0  0  0  0  0  0  0  2  0  0  0  0
    0.4189   -0.4125    0.0000 C   0  0  0  0  0  0  0  2  0  0  0  0
    0.4189   -1.2375    0.0000 C   0  0  0  0  0  0  0  2  0  0  0  0
   -0.2956   -1.6500    0.0000 C   0  0  0  0  0  0  0  2  0  0  0  0
   -0.2956   -2.4750    0.0000 F   0  0  0  0  0  0  0  2  0  0  0  0
   -1.0101   -1.2375    0.0000 C   0  0  0  0  0  0  0  2  0  0  0  0
   -1.0101   -0.4125    0.0000 C   0  0  0  0  0  0  0  2  0  0  0  0
   -1.0101    1.2375    0.0000 C   0  0  0  0  0  0  0  2  0  0  0  0
   -1.7246    0.8250    0.0000 C   0  0  0  0  0  0  0  2  0  0  0  0
   -2.4390    1.2375    0.0000 C   0  0  0  0  0  0  0  2  0  0  0  0
   -2.4390    2.0625    0.0000 C   0  0  0  0  0  0  0  2  0  0  0  0
   -1.7246    2.4750    0.0000 C   0  0  0  0  0  0  0  2  0  0  0  0
   -1.0101    2.0625    0.0000 C   0  0  0  0  0  0  0  2  0  0  0  0
   -0.2956    2.4750    0.0000 F   0  0  0  0  0  0  0  2  0  0  0  0
  1  2  4  0        0
  2  3  4  0        0
  3  4  4  0        0
  4  5  4  0        0
  1  5  4  0        0
  5  6  1  0        0
  6  7  1  0        0
  7  8  1  0        0
  7  9  1  0        0
  9 10  4  0        0
 10 11  4  0        0
 11 12  4  0        0
 12 13  1  0        0
 12 14  4  0        0
 14 15  4  0        0
  9 15  4  0        0
  7 16  1  0        0
 16 17  4  0        0
 17 18  4  0        0
 18 19  4  0        0
 19 20  4  0        0
 20 21  4  0        0
 16 21  4  0        0
 21 22  1  0        0
M  END
$$$$

CDXL12

 20 21  0  0  0  0  0  0  0  0999 V2000
   -0.0470   -0.8814    0.0000 C   0  0  0  0  0  0  0  2  0  0  0  0
   -0.3020   -1.6660    0.0000 N   0  0  0  0  0  0  0  2  0  0  0  0
   -1.1270   -1.6660    0.0000 C   0  0  0  0  0  0  0  2  0  0  0  0
   -1.3819   -0.8814    0.0000 N   0  0  0  0  0  0  0  2  0  0  0  0
   -0.7145   -0.3965    0.0000 N   0  0  0  0  0  0  0  2  0  0  0  0
   -0.7145    0.4285    0.0000 C   0  0  0  0  0  0  0  2  0  0  0  0
   -1.4289    0.8410    0.0000 C   0  0  0  0  0  0  0  2  0  0  0  0
   -1.4289    1.6660    0.0000 O   0  0  0  0  0  0  0  2  0  0  0  0
   -2.1434    0.4285    0.0000 C   0  0  0  0  0  0  0  2  0  0  0  0
   -2.1434   -0.3965    0.0000 C   0  0  0  0  0  0  0  2  0  0  0  0
   -2.8579    0.0160    0.0000 C   0  0  0  0  0  0  0  2  0  0  0  0
   -2.8579    0.8410    0.0000 C   0  0  0  0  0  0  0  2  0  0  0  0
   -0.0000    0.8410    0.0000 C   0  0  0  0  0  0  0  2  0  0  0  0
    0.7145    0.4285    0.0000 C   0  0  0  0  0  0  0  2  0  0  0  0
    1.4289    0.8410    0.0000 C   0  0  0  0  0  0  0  2  0  0  0  0
    2.1434    0.4285    0.0000 C   0  0  0  0  0  0  0  2  0  0  0  0
    2.1434   -0.3965    0.0000 C   0  0  0  0  0  0  0  2  0  0  0  0
    2.8579   -0.8090    0.0000 Cl  0  0  0  0  0  0  0  2  0  0  0  0
    1.4289   -0.8090    0.0000 C   0  0  0  0  0  0  0  2  0  0  0  0
    0.7145   -0.3965    0.0000 C   0  0  0  0  0  0  0  2  0  0  0  0
  1  2  4  0        0
  2  3  4  0        0
  3  4  4  0        0
  4  5  4  0        0
  1  5  4  0        0
  5  6  1  0        0
  6  7  1  0        0
  7  8  1  0        0
  7  9  1  0        0
  9 10  1  0        0
  9 11  1  0        0
  9 12  1  0        0
  6 13  1  0        0
 13 14  1  0        0
 14 15  4  0        0
 15 16  4  0        0
 16 17  4  0        0
 17 18  1  0        0
 17 19  4  0        0
 19 20  4  0        0
 14 20  4  0        0
M  END
$$$$

CDXL12

 15 14  0  0  0  0  0  0  0  0999 V2000
   -0.7145    1.0313    0.0000 O   0  0  0  0  0  0  0  2  0  0  0  0
   -0.7145    0.2062    0.0000 P   0  0  0  0  0  0  0  2  0  0  0  0
   -1.4289   -0.2062    0.0000 O   0  0  0  0  0  0  0  2  0  0  0  0
   -2.1434    0.2062    0.0000 N   0  0  0  0  0  0  0  2  0  0  0  0
   -2.1434    1.0313    0.0000 H   0  0  0  0  0  0  0  2  0  0  0  0
   -2.8579    0.6187    0.0000 H   0  0  0  0  0  0  0  2  0  0  0  0
   -2.8579   -0.2062    0.0000 H   0  0  0  0  0  0  0  2  0  0  0  0
   -0.7145   -0.6188    0.0000 C   0  0  0  0  0  0  0  2  0  0  0  0
   -0.0000   -0.2062    0.0000 C   0  0  0  0  0  0  0  2  0  0  0  0
    0.7145    0.2062    0.0000 C   0  0  0  0  0  0  0  2  0  0  0  0
    1.4289   -0.2062    0.0000 C   0  0  0  0  0  0  0  2  0  0  0  0
    1.4289   -1.0313    0.0000 N   0  0  0  0  0  0  0  2  0  0  0  0
    2.1434    0.2062    0.0000 C   0  0  0  0  0  0  0  2  0  0  0  0
    2.1434    1.0312    0.0000 O   0  0  0  0  0  0  0  2  0  0  0  0
    2.8579   -0.2062    0.0000 O   0  0  0  0  0  0  0  2  0  0  0  0
  1  2  2  0        0
  2  3  1  0        0
  3  4  1  0        0
  4  5  1  0        0
  4  6  1  0        0
  4  7  1  0        0
  2  8  1  0        0
  2  9  1  0        0
  9 10  1  0        0
 10 11  1  0        0
 11 12  1  0        0
 11 13  1  0        0
 13 14  2  0        0
 13 15  1  0        0
M  END
$$$$

CDXL12

 31 32  0  0  0  0  0  0  0  0999 V2000
   -1.7862    0.8250    0.0000 Cl  0  0  0  0  0  0  0  2  0  0  0  0
   -2.5006    0.4125    0.0000 C   0  0  0  0  0  0  0  2  0  0  0  0
   -3.2151    0.8250    0.0000 C   0  0  0  0  0  0  0  2  0  0  0  0
   -3.9296    0.4125    0.0000 C   0  0  0  0  0  0  0  2  0  0  0  0
   -4.6441    0.8250    0.0000 C   0  0  0  0  0  0  0  2  0  0  0  0
   -5.3585    1.2375    0.0000 F   0  0  0  0  0  0  0  2  0  0  0  0
   -4.6441    1.6500    0.0000 F   0  0  0  0  0  0  0  2  0  0  0  0
   -5.3585    0.4125    0.0000 F   0  0  0  0  0  0  0  2  0  0  0  0
   -3.9296   -0.4125    0.0000 C   0  0  0  0  0  0  0  2  0  0  0  0
   -3.2151   -0.8250    0.0000 C   0  0  0  0  0  0  0  2  0  0  0  0
   -2.5006   -0.4125    0.0000 C   0  0  0  0  0  0  0  2  0  0  0  0
   -1.7862   -0.8250    0.0000 O   0  0  0  0  0  0  0  2  0  0  0  0
   -1.0717   -0.4125    0.0000 C   0  0  0  0  0  0  0  2  0  0  0  0
   -0.3572   -0.8250    0.0000 C   0  0  0  0  0  0  0  2  0  0  0  0
    0.3572   -0.4125    0.0000 C   0  0  0  0  0  0  0  2  0  0  0  0
    1.0717   -0.8250    0.0000 C   0  0  0  0  0  0  0  2  0  0  0  0
    1.0717   -1.6500    0.0000 O   0  0  0  0  0  0  0  2  0  0  0  0
    1.7862   -0.4125    0.0000 O   0  0  0  0  0  0  0  2  0  0  0  0
    2.5006   -0.8250    0.0000 C   0  0  0  0  0  0  0  2  0  0  0  0
    2.5006   -1.6500    0.0000 C   0  0  0  0  0  0  0  2  0  0  0  0
    3.2151   -0.4125    0.0000 C   0  0  0  0  0  0  0  2  0  0  0  0
    3.2151    0.4125    0.0000 O   0  0  0  0  0  0  0  2  0  0  0  0
    3.9296   -0.8250    0.0000 O   0  0  0  0  0  0  0  2  0  0  0  0
    4.6441   -0.4125    0.0000 C   0  0  0  0  0  0  0  2  0  0  0  0
    5.3585   -0.8250    0.0000 C   0  0  0  0  0  0  0  2  0  0  0  0
    0.3572    0.4125    0.0000 C   0  0  0  0  0  0  0  2  0  0  0  0
    1.0717    0.8250    0.0000 N   0  0  0  0  0  0  0  2  0  0  0  0
    1.0717    1.6500    0.0000 O   0  0  0  0  0  0  0  2  0  0  0  0
    1.7862    0.4125    0.0000 O   0  0  0  0  0  0  0  2  0  0  0  0
   -0.3572    0.8250    0.0000 C   0  0  0  0  0  0  0  2  0  0  0  0
   -1.0717    0.4125    0.0000 C   0  0  0  0  0  0  0  2  0  0  0  0
  1  2  1  0        0
  2  3  4  0        0
  3  4  4  0        0
  4  5  1  0        0
  5  6  1  0        0
  5  7  1  0        0
  5  8  1  0        0
  4  9  4  0        0
  9 10  4  0        0
 10 11  4  0        0
  2 11  4  0        0
 11 12  1  0        0
 12 13  1  0        0
 13 14  4  0        0
 14 15  4  0        0
 15 16  1  0        0
 16 17  2  0        0
 16 18  1  0        0
 18 19  1  0        0
 19 20  1  0        0
 19 21  1  0        0
 21 22  2  0        0
 21 23  1  0        0
 23 24  1  0        0
 24 25  1  0        0
 15 26  4  0        0
 26 27  1  0        0
 27 28  2  0        0
 27 29  2  0        0
 26 30  4  0        0
 30 31  4  0        0
 13 31  4  0        0
M  END
$$$$

CDXL12

 20 21  0  0  0  0  0  0  0  0999 V2000
    0.3572   -1.8723    0.0000 C   0  0  0  0  0  0  0  2  0  0  0  0
    1.0717   -1.4598    0.0000 C   0  0  0  0  0  0  0  2  0  0  0  0
    1.7862   -1.8723    0.0000 C   0  0  0  0  0  0  0  2  0  0  0  0
    2.5006   -1.4598    0.0000 C   0  0  0  0  0  0  0  2  0  0  0  0
    2.5006   -0.6348    0.0000 C   0  0  0  0  0  0  0  2  0  0  0  0
    1.7862   -0.2223    0.0000 C   0  0  0  0  0  0  0  2  0  0  0  0
    1.7862    0.6027    0.0000 C   0  0  0  0  0  0  0  2  0  0  0  0
    1.0717   -0.6348    0.0000 C   0  0  0  0  0  0  0  2  0  0  0  0
    0.3572   -0.2223    0.0000 N   0  0  0  0  0  0  0  2  0  0  0  0
   -0.3572   -0.6348    0.0000 C   0  0  0  0  0  0  0  2  0  0  0  0
   -0.3572   -1.4598    0.0000 O   0  0  0  0  0  0  0  2  0  0  0  0
   -1.0717   -0.2223    0.0000 C   0  0  0  0  0  0  0  2  0  0  0  0
   -1.7862   -0.6348    0.0000 O   0  0  0  0  0  0  0  2  0  0  0  0
   -2.5006   -0.2223    0.0000 C   0  0  0  0  0  0  0  2  0  0  0  0
    0.3572    0.6027    0.0000 N   0  0  0  0  0  0  0  2  0  0  0  0
   -0.3102    1.0877    0.0000 C   0  0  0  0  0  0  0  2  0  0  0  0
   -1.0948    0.8327    0.0000 O   0  0  0  0  0  0  0  2  0  0  0  0
   -0.0553    1.8723    0.0000 O   0  0  0  0  0  0  0  2  0  0  0  0
    0.7697    1.8723    0.0000 C   0  0  0  0  0  0  0  2  0  0  0  0
    1.0247    1.0877    0.0000 C   0  0  0  0  0  0  0  2  0  0  0  0
  1  2  1  0        0
  2  3  4  0        0
  3  4  4  0        0
  4  5  4  0        0
  5  6  4  0        0
  6  7  1  0        0
  6  8  4  0        0
  2  8  4  0        0
  8  9  1  0        0
  9 10  1  0        0
 10 11  2  0        0
 10 12  1  0        0
 12 13  1  0        0
 13 14  1  0        0
  9 15  1  0        0
 15 16  1  0        0
 16 17  2  0        0
 16 18  1  0        0
 18 19  1  0        0
 19 20  1  0        0
 15 20  1  0        0
M  END
$$$$

CDXL12

 19 23  0  0  0  0  0  0  0  0999 V2000
    0.5638    0.5747    0.0000 C   0  0  0  0  0  0  0  2  0  0  0  0
    0.8187    1.3593    0.0000 C   0  0  0  0  0  0  0  2  0  0  0  0
    1.6257    1.5308    0.0000 C   0  0  0  0  0  0  0  2  0  0  0  0
    1.8806    2.3155    0.0000 Cl  0  0  0  0  0  0  0  2  0  0  0  0
    2.1777    0.9177    0.0000 C   0  0  0  0  0  0  0  2  0  0  0  0
    1.9228    0.1331    0.0000 C   0  0  0  0  0  0  0  2  0  0  0  0
    1.1158   -0.0384    0.0000 C   0  0  0  0  0  0  0  2  0  0  0  0
    0.8609   -0.8230    0.0000 N   0  0  0  0  0  0  0  2  0  0  0  0
    1.3458   -1.4905    0.0000 N   0  0  0  0  0  0  0  2  0  0  0  0
    0.8609   -2.1579    0.0000 N   0  0  0  0  0  0  0  2  0  0  0  0
    0.0762   -1.9030    0.0000 C   0  0  0  0  0  0  0  2  0  0  0  0
   -0.6382   -2.3155    0.0000 C   0  0  0  0  0  0  0  2  0  0  0  0
   -1.1336   -1.4905    0.0000 C   0  0  0  0  0  0  0  2  0  0  0  0
   -0.6382   -0.6655    0.0000 C   0  0  0  0  0  0  0  2  0  0  0  0
   -1.3527   -1.0780    0.0000 C   0  0  0  0  0  0  0  2  0  0  0  0
   -1.3527   -1.9030    0.0000 C   0  0  0  0  0  0  0  2  0  0  0  0
   -2.1777   -1.9030    0.0000 N   0  0  0  0  0  0  0  2  0  0  0  0
   -2.1777   -1.0780    0.0000 N   0  0  0  0  0  0  0  2  0  0  0  0
    0.0762   -1.0780    0.0000 C   0  0  0  0  0  0  0  2  0  0  0  0
  1  2  4  0        0
  2  3  4  0        0
  3  4  1  0        0
  3  5  4  0        0
  5  6  4  0        0
  6  7  4  0        0
  1  7  4  0        0
  7  8  1  0        0
  8  9  1  0        0
  9 10  2  0        0
 10 11  1  0        0
 11 12  1  0        0
 12 13  1  0        0
 13 14  1  0        0
 14 15  1  0        0
 15 16  1  0        0
 12 16  1  0        0
 16 17  1  0        0
 17 18  2  0        0
 15 18  1  0        0
 14 19  1  0        0
  8 19  1  0        0
 11 19  1  0        0
M  END
$$$$

CDXL12

 23 25  0  0  0  0  0  0  0  0999 V2000
   -1.8218   -1.2853    0.0000 C   0  0  0  0  0  0  0  2  0  0  0  0
   -2.5363   -1.6978    0.0000 C   0  0  0  0  0  0  0  2  0  0  0  0
   -3.2507   -1.2853    0.0000 C   0  0  0  0  0  0  0  2  0  0  0  0
   -3.9652   -1.6978    0.0000 Cl  0  0  0  0  0  0  0  2  0  0  0  0
   -3.2507   -0.4603    0.0000 C   0  0  0  0  0  0  0  2  0  0  0  0
   -2.5363   -0.0478    0.0000 C   0  0  0  0  0  0  0  2  0  0  0  0
   -1.8218   -0.4603    0.0000 C   0  0  0  0  0  0  0  2  0  0  0  0
   -1.1073   -0.0478    0.0000 C   0  0  0  0  0  0  0  2  0  0  0  0
   -1.0211    0.7726    0.0000 S   0  0  0  0  0  0  0  2  0  0  0  0
   -0.2141    0.9442    0.0000 C   0  0  0  0  0  0  0  2  0  0  0  0
    0.1214    1.6978    0.0000 O   0  0  0  0  0  0  0  2  0  0  0  0
    0.1984    0.2297    0.0000 N   0  0  0  0  0  0  0  2  0  0  0  0
    1.0189    0.1435    0.0000 C   0  0  0  0  0  0  0  2  0  0  0  0
    1.3544   -0.6102    0.0000 O   0  0  0  0  0  0  0  2  0  0  0  0
    1.5038    0.8109    0.0000 N   0  0  0  0  0  0  0  2  0  0  0  0
    2.3243    0.7247    0.0000 C   0  0  0  0  0  0  0  2  0  0  0  0
    2.8092    1.3921    0.0000 C   0  0  0  0  0  0  0  2  0  0  0  0
    3.6297    1.3059    0.0000 C   0  0  0  0  0  0  0  2  0  0  0  0
    3.9652    0.5522    0.0000 C   0  0  0  0  0  0  0  2  0  0  0  0
    3.4803   -0.1152    0.0000 C   0  0  0  0  0  0  0  2  0  0  0  0
    2.6598   -0.0290    0.0000 C   0  0  0  0  0  0  0  2  0  0  0  0
   -0.3537   -0.3834    0.0000 C   0  0  0  0  0  0  0  2  0  0  0  0
   -0.1821   -1.1904    0.0000 C   0  0  0  0  0  0  0  2  0  0  0  0
  1  2  4  0        0
  2  3  4  0        0
  3  4  1  0        0
  3  5  4  0        0
  5  6  4  0        0
  6  7  4  0        0
  1  7  4  0        0
  7  8  1  0        0
  8  9  1  0        0
  9 10  1  0        0
 10 11  2  0        0
 10 12  1  0        0
 12 13  1  0        0
 13 14  2  0        0
 13 15  1  0        0
 15 16  1  0        0
 16 17  1  0        0
 17 18  1  0        0
 18 19  1  0        0
 19 20  1  0        0
 20 21  1  0        0
 16 21  1  0        0
 12 22  1  0        0
  8 22  1  0        0
 22 23  1  0        0
M  END
$$$$

CDXL12

 13 13  0  0  0  0  0  0  0  0999 V2000
    0.0000    1.2375    0.0000 O   0  0  0  0  0  0  0  2  0  0  0  0
    0.0000    0.4125    0.0000 C   0  0  0  0  0  0  0  2  0  0  0  0
    0.7145    0.0000    0.0000 C   0  0  0  0  0  0  0  2  0  0  0  0
    0.7145   -0.8250    0.0000 C   0  0  0  0  0  0  0  2  0  0  0  0
    0.0000   -1.2375    0.0000 C   0  0  0  0  0  0  0  2  0  0  0  0
   -0.7145   -0.8250    0.0000 C   0  0  0  0  0  0  0  2  0  0  0  0
   -0.7145   -0.0000    0.0000 C   0  0  0  0  0  0  0  2  0  0  0  0
   -1.4289    0.4125    0.0000 O   0  0  0  0  0  0  0  2  0  0  0  0
   -2.1434   -0.0000    0.0000 C   0  0  0  0  0  0  0  2  0  0  0  0
   -1.4289   -1.2375    0.0000 Cl  0  0  0  0  0  0  0  2  0  0  0  0
    1.4289   -1.2375    0.0000 Cl  0  0  0  0  0  0  0  2  0  0  0  0
    1.4289    0.4125    0.0000 O   0  0  0  0  0  0  0  2  0  0  0  0
    2.1434    0.0000    0.0000 C   0  0  0  0  0  0  0  2  0  0  0  0
  1  2  1  0        0
  2  3  4  0        0
  3  4  4  0        0
  4  5  4  0        0
  5  6  4  0        0
  6  7  4  0        0
  2  7  4  0        0
  7  8  1  0        0
  8  9  1  0        0
  6 10  1  0        0
  4 11  1  0        0
  3 12  1  0        0
 12 13  1  0        0
M  END
$$$$

CDXL12

 25 26  0  0  0  0  0  0  0  0999 V2000
    1.0101   -0.1138    0.0000 N   0  0  0  0  0  0  0  2  0  0  0  0
    1.7246    0.2987    0.0000 C   0  0  0  0  0  0  0  2  0  0  0  0
    1.7246    1.1237    0.0000 C   0  0  0  0  0  0  0  2  0  0  0  0
    2.4390   -0.1138    0.0000 N   0  0  0  0  0  0  0  2  0  0  0  0
    2.4390   -0.9388    0.0000 C   0  0  0  0  0  0  0  2  0  0  0  0
    3.1535   -1.3513    0.0000 O   0  0  0  0  0  0  0  2  0  0  0  0
    3.8680   -0.9388    0.0000 C   0  0  0  0  0  0  0  2  0  0  0  0
    1.7246   -1.3513    0.0000 N   0  0  0  0  0  0  0  2  0  0  0  0
    1.0101   -0.9388    0.0000 C   0  0  0  0  0  0  0  2  0  0  0  0
    0.2956   -1.3513    0.0000 N   0  0  0  0  0  0  0  2  0  0  0  0
   -0.4189   -0.9388    0.0000 C   0  0  0  0  0  0  0  2  0  0  0  0
   -0.4189   -0.1138    0.0000 O   0  0  0  0  0  0  0  2  0  0  0  0
   -1.1333   -1.3513    0.0000 N   0  0  0  0  0  0  0  2  0  0  0  0
   -1.8478   -0.9388    0.0000 S   0  0  0  0  0  0  0  2  0  0  0  0
   -1.4353   -0.2243    0.0000 O   0  0  0  0  0  0  0  2  0  0  0  0
   -2.2603   -1.6532    0.0000 O   0  0  0  0  0  0  0  2  0  0  0  0
   -2.5623   -0.5263    0.0000 C   0  0  0  0  0  0  0  2  0  0  0  0
   -3.3159   -0.8618    0.0000 C   0  0  0  0  0  0  0  2  0  0  0  0
   -3.8680   -0.2487    0.0000 C   0  0  0  0  0  0  0  2  0  0  0  0
   -3.4555    0.4658    0.0000 S   0  0  0  0  0  0  0  2  0  0  0  0
   -2.6485    0.2942    0.0000 C   0  0  0  0  0  0  0  2  0  0  0  0
   -2.0354    0.8463    0.0000 C   0  0  0  0  0  0  0  2  0  0  0  0
   -2.2069    1.6532    0.0000 O   0  0  0  0  0  0  0  2  0  0  0  0
   -1.2508    0.5913    0.0000 O   0  0  0  0  0  0  0  2  0  0  0  0
   -0.6674    1.1747    0.0000 C   0  0  0  0  0  0  0  2  0  0  0  0
  1  2  4  0        0
  2  3  1  0        0
  2  4  4  0        0
  4  5  4  0        0
  5  6  1  0        0
  6  7  1  0        0
  5  8  4  0        0
  8  9  4  0        0
  1  9  4  0        0
  9 10  1  0        0
 10 11  1  0        0
 11 12  2  0        0
 11 13  1  0        0
 13 14  1  0        0
 14 15  2  0        0
 14 16  2  0        0
 14 17  1  0        0
 17 18  4  0        0
 18 19  4  0        0
 19 20  4  0        0
 20 21  4  0        0
 17 21  4  0        0
 21 22  1  0        0
 22 23  2  0        0
 22 24  1  0        0
 24 25  1  0        0
M  END
$$$$

CDXL12

 27 28  0  0  0  0  0  0  0  0999 V2000
   -2.9131   -0.4125    0.0000 C   0  0  0  0  0  0  0  2  0  0  0  0
   -2.9131    0.4125    0.0000 Cl  0  0  0  0  0  0  0  2  0  0  0  0
   -3.6276   -0.8250    0.0000 C   0  0  0  0  0  0  0  2  0  0  0  0
   -4.3421   -1.2375    0.0000 F   0  0  0  0  0  0  0  2  0  0  0  0
   -3.6276   -1.6500    0.0000 F   0  0  0  0  0  0  0  2  0  0  0  0
   -4.3421   -0.4125    0.0000 F   0  0  0  0  0  0  0  2  0  0  0  0
   -2.1987   -0.8250    0.0000 C   0  0  0  0  0  0  0  2  0  0  0  0
   -1.4842   -0.4125    0.0000 C   0  0  0  0  0  0  0  2  0  0  0  0
   -1.0717    0.3020    0.0000 C   0  0  0  0  0  0  0  2  0  0  0  0
   -1.4842    1.0164    0.0000 C   0  0  0  0  0  0  0  2  0  0  0  0
   -0.6592    1.0164    0.0000 C   0  0  0  0  0  0  0  2  0  0  0  0
   -0.6592   -0.4125    0.0000 C   0  0  0  0  0  0  0  2  0  0  0  0
    0.0553   -0.8250    0.0000 C   0  0  0  0  0  0  0  2  0  0  0  0
    0.0553   -1.6500    0.0000 O   0  0  0  0  0  0  0  2  0  0  0  0
    0.7697   -0.4125    0.0000 O   0  0  0  0  0  0  0  2  0  0  0  0
    1.4842   -0.8250    0.0000 C   0  0  0  0  0  0  0  2  0  0  0  0
    2.1987   -0.4125    0.0000 C   0  0  0  0  0  0  0  2  0  0  0  0
    2.1987    0.4125    0.0000 C   0  0  0  0  0  0  0  2  0  0  0  0
    1.4842    0.8250    0.0000 F   0  0  0  0  0  0  0  2  0  0  0  0
    2.9131    0.8250    0.0000 C   0  0  0  0  0  0  0  2  0  0  0  0
    2.9131    1.6500    0.0000 F   0  0  0  0  0  0  0  2  0  0  0  0
    3.6276    0.4125    0.0000 C   0  0  0  0  0  0  0  2  0  0  0  0
    4.3421    0.8250    0.0000 C   0  0  0  0  0  0  0  2  0  0  0  0
    3.6276   -0.4125    0.0000 C   0  0  0  0  0  0  0  2  0  0  0  0
    4.3421   -0.8250    0.0000 F   0  0  0  0  0  0  0  2  0  0  0  0
    2.9131   -0.8250    0.0000 C   0  0  0  0  0  0  0  2  0  0  0  0
    2.9131   -1.6500    0.0000 F   0  0  0  0  0  0  0  2  0  0  0  0
  1  2  1  0        0
  1  3  1  0        0
  3  4  1  0        0
  3  5  1  0        0
  3  6  1  0        0
  1  7  2  0        0
  7  8  1  0        0
  8  9  1  0        0
  9 10  1  0        0
  9 11  1  0        0
  9 12  1  0        0
  8 12  1  0        0
 12 13  1  0        0
 13 14  2  0        0
 13 15  1  0        0
 15 16  1  0        0
 16 17  1  0        0
 17 18  4  0        0
 18 19  1  0        0
 18 20  4  0        0
 20 21  1  0        0
 20 22  4  0        0
 22 23  1  0        0
 22 24  4  0        0
 24 25  1  0        0
 24 26  4  0        0
 17 26  4  0        0
 26 27  1  0        0
M  END
$$$$

CDXL12

 20 21  0  0  0  0  0  0  0  0999 V2000
   -1.3673   -0.4125    0.0000 Cl  0  0  0  0  0  0  0  2  0  0  0  0
   -0.6529   -0.0000    0.0000 C   0  0  0  0  0  0  0  2  0  0  0  0
    0.0616   -0.4125    0.0000 C   0  0  0  0  0  0  0  2  0  0  0  0
    0.7761    0.0000    0.0000 C   0  0  0  0  0  0  0  2  0  0  0  0
    0.7761    0.8250    0.0000 C   0  0  0  0  0  0  0  2  0  0  0  0
    0.0616    1.2375    0.0000 C   0  0  0  0  0  0  0  2  0  0  0  0
   -0.6529    0.8250    0.0000 C   0  0  0  0  0  0  0  2  0  0  0  0
    0.0616    2.0625    0.0000 Cl  0  0  0  0  0  0  0  2  0  0  0  0
    0.0616   -1.2375    0.0000 C   0  0  0  0  0  0  0  2  0  0  0  0
    0.7761   -1.6500    0.0000 C   0  0  0  0  0  0  0  2  0  0  0  0
    1.4906   -1.2375    0.0000 N   0  0  0  0  0  0  0  2  0  0  0  0
    1.5768   -0.4170    0.0000 N   0  0  0  0  0  0  0  2  0  0  0  0
    2.3838   -0.2455    0.0000 C   0  0  0  0  0  0  0  2  0  0  0  0
    2.7963   -0.9600    0.0000 N   0  0  0  0  0  0  0  2  0  0  0  0
    2.2442   -1.5731    0.0000 C   0  0  0  0  0  0  0  2  0  0  0  0
    0.0616   -2.0625    0.0000 O   0  0  0  0  0  0  0  2  0  0  0  0
   -0.6529   -1.6500    0.0000 C   0  0  0  0  0  0  0  2  0  0  0  0
   -1.3673   -1.2375    0.0000 C   0  0  0  0  0  0  0  2  0  0  0  0
   -2.0818   -1.6500    0.0000 C   0  0  0  0  0  0  0  2  0  0  0  0
   -2.7963   -1.2375    0.0000 C   0  0  0  0  0  0  0  2  0  0  0  0
  1  2  1  0        0
  2  3  4  0        0
  3  4  4  0        0
  4  5  4  0        0
  5  6  4  0        0
  6  7  4  0        0
  2  7  4  0        0
  6  8  1  0        0
  3  9  1  0        0
  9 10  1  0        0
 10 11  1  0        0
 11 12  4  0        0
 12 13  4  0        0
 13 14  4  0        0
 14 15  4  0        0
 11 15  4  0        0
  9 16  1  0        0
  9 17  1  0        0
 17 18  1  0        0
 18 19  1  0        0
 19 20  1  0        0
M  END
$$$$

CDXL12

 27 28  0  0  0  0  0  0  0  0999 V2000
    3.4295    1.0312    0.0000 C   0  0  0  0  0  0  0  2  0  0  0  0
    4.1439    0.6187    0.0000 C   0  0  0  0  0  0  0  2  0  0  0  0
    4.1439   -0.2063    0.0000 C   0  0  0  0  0  0  0  2  0  0  0  0
    3.4295   -0.6187    0.0000 C   0  0  0  0  0  0  0  2  0  0  0  0
    2.7150   -0.2063    0.0000 C   0  0  0  0  0  0  0  2  0  0  0  0
    2.7150    0.6187    0.0000 C   0  0  0  0  0  0  0  2  0  0  0  0
    2.0005    1.0312    0.0000 O   0  0  0  0  0  0  0  2  0  0  0  0
    1.2860    0.6187    0.0000 C   0  0  0  0  0  0  0  2  0  0  0  0
    1.2860   -0.2063    0.0000 C   0  0  0  0  0  0  0  2  0  0  0  0
    0.5716   -0.6187    0.0000 C   0  0  0  0  0  0  0  2  0  0  0  0
    0.5716   -1.4437    0.0000 C   0  0  0  0  0  0  0  2  0  0  0  0
   -0.1429   -1.8562    0.0000 C   0  0  0  0  0  0  0  2  0  0  0  0
    1.2860   -1.8562    0.0000 C   0  0  0  0  0  0  0  2  0  0  0  0
   -0.1429   -0.2062    0.0000 C   0  0  0  0  0  0  0  2  0  0  0  0
   -1.2860   -0.8662    0.0000 N   0  0  0  0  0  0  0  2  0  0  0  0
   -2.0005   -0.4538    0.0000 C   0  0  0  0  0  0  0  2  0  0  0  0
   -2.0005    0.3713    0.0000 S   0  0  0  0  0  0  0  2  0  0  0  0
   -2.7150   -0.8662    0.0000 N   0  0  0  0  0  0  0  2  0  0  0  0
   -3.4295   -0.4538    0.0000 C   0  0  0  0  0  0  0  2  0  0  0  0
   -4.1439   -0.8662    0.0000 C   0  0  0  0  0  0  0  2  0  0  0  0
   -4.1439   -0.0413    0.0000 C   0  0  0  0  0  0  0  2  0  0  0  0
   -3.4295    0.3712    0.0000 C   0  0  0  0  0  0  0  2  0  0  0  0
   -0.1429    0.6187    0.0000 C   0  0  0  0  0  0  0  2  0  0  0  0
   -0.8574    1.0312    0.0000 C   0  0  0  0  0  0  0  2  0  0  0  0
   -0.8574    1.8562    0.0000 C   0  0  0  0  0  0  0  2  0  0  0  0
   -1.5718    0.6187    0.0000 C   0  0  0  0  0  0  0  2  0  0  0  0
    0.5716    1.0312    0.0000 C   0  0  0  0  0  0  0  2  0  0  0  0
  1  2  4  0        0
  2  3  4  0        0
  3  4  4  0        0
  4  5  4  0        0
  5  6  4  0        0
  1  6  4  0        0
  6  7  1  0        0
  7  8  1  0        0
  8  9  4  0        0
  9 10  4  0        0
 10 11  1  0        0
 11 12  1  0        0
 11 13  1  0        0
 10 14  4  0        0
 14 15  1  0        0
 15 16  1  0        0
 16 17  2  0        0
 16 18  1  0        0
 18 19  1  0        0
 19 20  1  0        0
 19 21  1  0        0
 19 22  1  0        0
 14 23  4  0        0
 23 24  1  0        0
 24 25  1  0        0
 24 26  1  0        0
 23 27  4  0        0
  8 27  4  0        0
M  END
$$$$

CDXL12

  6  5  0  0  0  0  0  0  0  0999 V2000
   -1.7862   -0.2062    0.0000 Cl  0  0  0  0  0  0  0  2  0  0  0  0
   -1.0717    0.2062    0.0000 C   0  0  0  0  0  0  0  2  0  0  0  0
   -0.3572   -0.2062    0.0000 C   0  0  0  0  0  0  0  2  0  0  0  0
    0.3572    0.2062    0.0000 S   0  0  0  0  0  0  0  2  0  0  0  0
    1.0717   -0.2062    0.0000 C   0  0  0  0  0  0  0  2  0  0  0  0
    1.7862    0.2062    0.0000 C   0  0  0  0  0  0  0  2  0  0  0  0
  1  2  1  0        0
  2  3  1  0        0
  3  4  1  0        0
  4  5  1  0        0
  5  6  2  0        0
M  END
$$$$

CDXL12

 19 20  0  0  0  0  0  0  0  0999 V2000
   -1.7206   -0.3647    0.0000 N   0  0  0  0  0  0  0  2  0  0  0  0
   -2.4351    0.0478    0.0000 C   0  0  0  0  0  0  0  2  0  0  0  0
   -2.4351    0.8728    0.0000 C   0  0  0  0  0  0  0  2  0  0  0  0
   -1.7206    1.2853    0.0000 C   0  0  0  0  0  0  0  2  0  0  0  0
   -1.0062    0.8728    0.0000 C   0  0  0  0  0  0  0  2  0  0  0  0
   -0.2917    1.2853    0.0000 C   0  0  0  0  0  0  0  2  0  0  0  0
   -0.2917    2.1103    0.0000 O   0  0  0  0  0  0  0  2  0  0  0  0
    0.4228    0.8728    0.0000 O   0  0  0  0  0  0  0  2  0  0  0  0
   -1.0062    0.0478    0.0000 C   0  0  0  0  0  0  0  2  0  0  0  0
   -0.2917   -0.3647    0.0000 C   0  0  0  0  0  0  0  2  0  0  0  0
    0.4620   -0.0291    0.0000 N   0  0  0  0  0  0  0  2  0  0  0  0
    1.0140   -0.6422    0.0000 C   0  0  0  0  0  0  0  2  0  0  0  0
    1.6814   -0.1573    0.0000 C   0  0  0  0  0  0  0  2  0  0  0  0
    1.7677   -0.9778    0.0000 C   0  0  0  0  0  0  0  2  0  0  0  0
    1.8539   -1.7982    0.0000 C   0  0  0  0  0  0  0  2  0  0  0  0
    2.4351   -0.4928    0.0000 C   0  0  0  0  0  0  0  2  0  0  0  0
    0.6015   -1.3567    0.0000 C   0  0  0  0  0  0  0  2  0  0  0  0
    0.9371   -2.1103    0.0000 O   0  0  0  0  0  0  0  2  0  0  0  0
   -0.2055   -1.1851    0.0000 N   0  0  0  0  0  0  0  2  0  0  0  0
  1  2  4  0        0
  2  3  4  0        0
  3  4  4  0        0
  4  5  4  0        0
  5  6  1  0        0
  6  7  2  0        0
  6  8  1  0        0
  5  9  4  0        0
  1  9  4  0        0
  9 10  1  0        0
 10 11  2  0        0
 11 12  1  0        0
 12 13  1  0        0
 12 14  1  0        0
 14 15  1  0        0
 14 16  1  0        0
 12 17  1  0        0
 17 18  2  0        0
 17 19  1  0        0
 10 19  1  0        0
M  END
$$$$

CDXL12

 23 25  0  0  0  0  0  0  0  0999 V2000
    2.5684    1.7982    0.0000 C   0  0  0  0  0  0  0  2  0  0  0  0
    2.4821    0.9778    0.0000 C   0  0  0  0  0  0  0  2  0  0  0  0
    3.1496    0.4928    0.0000 C   0  0  0  0  0  0  0  2  0  0  0  0
    1.7285    0.6422    0.0000 C   0  0  0  0  0  0  0  2  0  0  0  0
    2.3959    0.1573    0.0000 C   0  0  0  0  0  0  0  2  0  0  0  0
    1.1764    0.0291    0.0000 N   0  0  0  0  0  0  0  2  0  0  0  0
    0.4228    0.3647    0.0000 C   0  0  0  0  0  0  0  2  0  0  0  0
    0.5090    1.1851    0.0000 N   0  0  0  0  0  0  0  2  0  0  0  0
    1.3160    1.3567    0.0000 C   0  0  0  0  0  0  0  2  0  0  0  0
    1.6515    2.1103    0.0000 O   0  0  0  0  0  0  0  2  0  0  0  0
   -0.2917   -0.0478    0.0000 C   0  0  0  0  0  0  0  2  0  0  0  0
   -1.0062    0.3647    0.0000 N   0  0  0  0  0  0  0  2  0  0  0  0
   -1.7206   -0.0478    0.0000 C   0  0  0  0  0  0  0  2  0  0  0  0
   -2.4351    0.3647    0.0000 C   0  0  0  0  0  0  0  2  0  0  0  0
   -3.1496   -0.0478    0.0000 C   0  0  0  0  0  0  0  2  0  0  0  0
   -3.1496   -0.8728    0.0000 C   0  0  0  0  0  0  0  2  0  0  0  0
   -2.4351   -1.2853    0.0000 C   0  0  0  0  0  0  0  2  0  0  0  0
   -1.7206   -0.8728    0.0000 C   0  0  0  0  0  0  0  2  0  0  0  0
   -1.0062   -1.2853    0.0000 C   0  0  0  0  0  0  0  2  0  0  0  0
   -0.2917   -0.8728    0.0000 C   0  0  0  0  0  0  0  2  0  0  0  0
    0.4228   -1.2853    0.0000 C   0  0  0  0  0  0  0  2  0  0  0  0
    1.1372   -0.8728    0.0000 O   0  0  0  0  0  0  0  2  0  0  0  0
    0.4228   -2.1103    0.0000 O   0  0  0  0  0  0  0  2  0  0  0  0
  1  2  1  0        0
  2  3  1  0        0
  2  4  1  0        0
  4  5  1  0        0
  4  6  1  0        0
  6  7  2  0        0
  7  8  1  0        0
  8  9  1  0        0
  4  9  1  0        0
  9 10  2  0        0
  7 11  1  0        0
 11 12  4  0        0
 12 13  4  0        0
 13 14  4  0        0
 14 15  4  0        0
 15 16  4  0        0
 16 17  4  0        0
 17 18  4  0        0
 13 18  4  0        0
 18 19  4  0        0
 19 20  4  0        0
 11 20  4  0        0
 20 21  1  0        0
 21 22  1  0        0
 21 23  2  0        0
M  END
$$$$

CDXL12

 21 22  0  0  0  0  0  0  0  0999 V2000
   -1.0062   -0.3647    0.0000 N   0  0  0  0  0  0  0  2  0  0  0  0
   -1.7206    0.0478    0.0000 C   0  0  0  0  0  0  0  2  0  0  0  0
   -1.7206    0.8728    0.0000 C   0  0  0  0  0  0  0  2  0  0  0  0
   -2.4351    1.2853    0.0000 C   0  0  0  0  0  0  0  2  0  0  0  0
   -3.1496    0.8728    0.0000 C   0  0  0  0  0  0  0  2  0  0  0  0
   -1.0062    1.2853    0.0000 C   0  0  0  0  0  0  0  2  0  0  0  0
   -0.2917    0.8728    0.0000 C   0  0  0  0  0  0  0  2  0  0  0  0
    0.4228    1.2853    0.0000 C   0  0  0  0  0  0  0  2  0  0  0  0
    0.4228    2.1103    0.0000 O   0  0  0  0  0  0  0  2  0  0  0  0
    1.1372    0.8728    0.0000 O   0  0  0  0  0  0  0  2  0  0  0  0
   -0.2917    0.0478    0.0000 C   0  0  0  0  0  0  0  2  0  0  0  0
    0.4228   -0.3647    0.0000 C   0  0  0  0  0  0  0  2  0  0  0  0
    1.1764   -0.0291    0.0000 N   0  0  0  0  0  0  0  2  0  0  0  0
    1.7285   -0.6422    0.0000 C   0  0  0  0  0  0  0  2  0  0  0  0
    2.3959   -0.1573    0.0000 C   0  0  0  0  0  0  0  2  0  0  0  0
    2.4821   -0.9778    0.0000 C   0  0  0  0  0  0  0  2  0  0  0  0
    2.5684   -1.7982    0.0000 C   0  0  0  0  0  0  0  2  0  0  0  0
    3.1496   -0.4928    0.0000 C   0  0  0  0  0  0  0  2  0  0  0  0
    1.3160   -1.3567    0.0000 C   0  0  0  0  0  0  0  2  0  0  0  0
    1.6515   -2.1103    0.0000 O   0  0  0  0  0  0  0  2  0  0  0  0
    0.5090   -1.1851    0.0000 N   0  0  0  0  0  0  0  2  0  0  0  0
  1  2  4  0        0
  2  3  4  0        0
  3  4  1  0        0
  4  5  1  0        0
  3  6  4  0        0
  6  7  4  0        0
  7  8  1  0        0
  8  9  2  0        0
  8 10  1  0        0
  7 11  4  0        0
  1 11  4  0        0
 11 12  1  0        0
 12 13  2  0        0
 13 14  1  0        0
 14 15  1  0        0
 14 16  1  0        0
 16 17  1  0        0
 16 18  1  0        0
 14 19  1  0        0
 19 20  2  0        0
 19 21  1  0        0
 12 21  1  0        0
M  END
$$$$

CDXL12

 23 24  0  0  0  0  0  0  0  0999 V2000
   -2.4092   -1.2875    0.0000 N   0  0  0  0  0  0  0  2  0  0  0  0
   -2.4092   -2.1125    0.0000 C   0  0  0  0  0  0  0  2  0  0  0  0
   -1.6947   -2.5250    0.0000 C   0  0  0  0  0  0  0  2  0  0  0  0
   -0.9802   -2.1125    0.0000 C   0  0  0  0  0  0  0  2  0  0  0  0
   -0.9802   -1.2875    0.0000 C   0  0  0  0  0  0  0  2  0  0  0  0
   -0.2658   -0.8750    0.0000 C   0  0  0  0  0  0  0  2  0  0  0  0
   -0.2658   -0.0500    0.0000 O   0  0  0  0  0  0  0  2  0  0  0  0
    0.4487   -1.2875    0.0000 O   0  0  0  0  0  0  0  2  0  0  0  0
    1.1632   -0.8750    0.0000 N   0  0  0  0  0  0  0  2  0  0  0  0
    1.8777   -1.2875    0.0000 C   0  0  0  0  0  0  0  2  0  0  0  0
    2.5921   -0.8750    0.0000 C   0  0  0  0  0  0  0  2  0  0  0  0
    1.8777   -2.1125    0.0000 C   0  0  0  0  0  0  0  2  0  0  0  0
   -1.6947   -0.8750    0.0000 C   0  0  0  0  0  0  0  2  0  0  0  0
   -1.6947   -0.0500    0.0000 C   0  0  0  0  0  0  0  2  0  0  0  0
   -1.0273    0.4349    0.0000 N   0  0  0  0  0  0  0  2  0  0  0  0
   -1.2822    1.2196    0.0000 C   0  0  0  0  0  0  0  2  0  0  0  0
   -0.5285    1.5551    0.0000 C   0  0  0  0  0  0  0  2  0  0  0  0
   -1.1960    2.0401    0.0000 C   0  0  0  0  0  0  0  2  0  0  0  0
   -1.8634    2.5250    0.0000 C   0  0  0  0  0  0  0  2  0  0  0  0
   -0.4423    2.3756    0.0000 C   0  0  0  0  0  0  0  2  0  0  0  0
   -2.1072    1.2196    0.0000 C   0  0  0  0  0  0  0  2  0  0  0  0
   -2.5921    1.8870    0.0000 O   0  0  0  0  0  0  0  2  0  0  0  0
   -2.3621    0.4349    0.0000 N   0  0  0  0  0  0  0  2  0  0  0  0
  1  2  4  0        0
  2  3  4  0        0
  3  4  4  0        0
  4  5  4  0        0
  5  6  1  0        0
  6  7  2  0        0
  6  8  1  0        0
  8  9  1  0        0
  9 10  1  0        0
 10 11  1  0        0
 10 12  1  0        0
  5 13  4  0        0
  1 13  4  0        0
 13 14  1  0        0
 14 15  2  0        0
 15 16  1  0        0
 16 17  1  0        0
 16 18  1  0        0
 18 19  1  0        0
 18 20  1  0        0
 16 21  1  0        0
 21 22  2  0        0
 21 23  1  0        0
 14 23  1  0        0
M  END
$$$$

CDXL12

 16 17  0  0  0  0  0  0  0  0999 V2000
    0.4855    0.7730    0.0000 O   0  0  0  0  0  0  0  2  0  0  0  0
    1.2925    0.9445    0.0000 C   0  0  0  0  0  0  0  2  0  0  0  0
    1.7050    0.2301    0.0000 C   0  0  0  0  0  0  0  2  0  0  0  0
    2.4586    0.5656    0.0000 C   0  0  0  0  0  0  0  2  0  0  0  0
    2.3724   -0.2549    0.0000 C   0  0  0  0  0  0  0  2  0  0  0  0
    1.1529   -0.3830    0.0000 C   0  0  0  0  0  0  0  2  0  0  0  0
    1.3245   -1.1900    0.0000 O   0  0  0  0  0  0  0  2  0  0  0  0
    0.3993   -0.0475    0.0000 N   0  0  0  0  0  0  0  2  0  0  0  0
   -0.3152   -0.4600    0.0000 C   0  0  0  0  0  0  0  2  0  0  0  0
   -1.0297   -0.0475    0.0000 C   0  0  0  0  0  0  0  2  0  0  0  0
   -1.7442   -0.4600    0.0000 C   0  0  0  0  0  0  0  2  0  0  0  0
   -2.4586   -0.0475    0.0000 C   0  0  0  0  0  0  0  2  0  0  0  0
   -2.4586    0.7775    0.0000 C   0  0  0  0  0  0  0  2  0  0  0  0
   -1.7442    1.1900    0.0000 C   0  0  0  0  0  0  0  2  0  0  0  0
   -1.0297    0.7775    0.0000 C   0  0  0  0  0  0  0  2  0  0  0  0
   -0.3152    1.1900    0.0000 Cl  0  0  0  0  0  0  0  2  0  0  0  0
  1  2  1  0        0
  2  3  1  0        0
  3  4  1  0        0
  3  5  1  0        0
  3  6  1  0        0
  6  7  2  0        0
  6  8  1  0        0
  1  8  1  0        0
  8  9  1  0        0
  9 10  1  0        0
 10 11  4  0        0
 11 12  4  0        0
 12 13  4  0        0
 13 14  4  0        0
 14 15  4  0        0
 10 15  4  0        0
 15 16  1  0        0
M  END
$$$$

CDXL12

 26 27  0  0  0  0  0  0  0  0999 V2000
    0.3572    0.5635    0.0000 Cl  0  0  0  0  0  0  0  2  0  0  0  0
   -0.3572    0.9760    0.0000 C   0  0  0  0  0  0  0  2  0  0  0  0
   -1.0717    0.5635    0.0000 C   0  0  0  0  0  0  0  2  0  0  0  0
   -1.7862    0.9760    0.0000 O   0  0  0  0  0  0  0  2  0  0  0  0
   -2.5006    0.5635    0.0000 C   0  0  0  0  0  0  0  2  0  0  0  0
   -3.2151    0.9760    0.0000 C   0  0  0  0  0  0  0  2  0  0  0  0
   -3.9296    0.5635    0.0000 C   0  0  0  0  0  0  0  2  0  0  0  0
   -3.9296   -0.2615    0.0000 C   0  0  0  0  0  0  0  2  0  0  0  0
   -3.2151   -0.6740    0.0000 C   0  0  0  0  0  0  0  2  0  0  0  0
   -2.5006   -0.2615    0.0000 C   0  0  0  0  0  0  0  2  0  0  0  0
   -1.7862   -0.6740    0.0000 S   0  0  0  0  0  0  0  2  0  0  0  0
   -1.3737    0.0405    0.0000 O   0  0  0  0  0  0  0  2  0  0  0  0
   -2.1987   -1.3885    0.0000 O   0  0  0  0  0  0  0  2  0  0  0  0
   -1.0717   -1.0865    0.0000 N   0  0  0  0  0  0  0  2  0  0  0  0
   -0.3572   -0.6740    0.0000 C   0  0  0  0  0  0  0  2  0  0  0  0
   -0.3572    0.1510    0.0000 O   0  0  0  0  0  0  0  2  0  0  0  0
    0.3572   -1.0865    0.0000 N   0  0  0  0  0  0  0  2  0  0  0  0
    1.0717   -0.6740    0.0000 C   0  0  0  0  0  0  0  2  0  0  0  0
    1.7862   -1.0865    0.0000 N   0  0  0  0  0  0  0  2  0  0  0  0
    2.5006   -0.6740    0.0000 C   0  0  0  0  0  0  0  2  0  0  0  0
    3.2151   -1.0865    0.0000 O   0  0  0  0  0  0  0  2  0  0  0  0
    3.9296   -0.6740    0.0000 C   0  0  0  0  0  0  0  2  0  0  0  0
    2.5006    0.1510    0.0000 N   0  0  0  0  0  0  0  2  0  0  0  0
    1.7862    0.5635    0.0000 C   0  0  0  0  0  0  0  2  0  0  0  0
    1.7862    1.3885    0.0000 C   0  0  0  0  0  0  0  2  0  0  0  0
    1.0717    0.1510    0.0000 N   0  0  0  0  0  0  0  2  0  0  0  0
  1  2  1  0        0
  2  3  1  0        0
  3  4  1  0        0
  4  5  1  0        0
  5  6  4  0        0
  6  7  4  0        0
  7  8  4  0        0
  8  9  4  0        0
  9 10  4  0        0
  5 10  4  0        0
 10 11  1  0        0
 11 12  2  0        0
 11 13  2  0        0
 11 14  1  0        0
 14 15  1  0        0
 15 16  2  0        0
 15 17  1  0        0
 17 18  1  0        0
 18 19  4  0        0
 19 20  4  0        0
 20 21  1  0        0
 21 22  1  0        0
 20 23  4  0        0
 23 24  4  0        0
 24 25  1  0        0
 24 26  4  0        0
 18 26  4  0        0
M  END
$$$$

CDXL12

 24 26  0  0  0  0  0  0  0  0999 V2000
    1.0717    2.0625    0.0000 C   0  0  0  0  0  0  0  2  0  0  0  0
    1.7862    2.4750    0.0000 C   0  0  0  0  0  0  0  2  0  0  0  0
    2.5006    2.0625    0.0000 N   0  0  0  0  0  0  0  2  0  0  0  0
    2.5006    1.2375    0.0000 C   0  0  0  0  0  0  0  2  0  0  0  0
    1.7862    0.8250    0.0000 C   0  0  0  0  0  0  0  2  0  0  0  0
    1.0717    1.2375    0.0000 C   0  0  0  0  0  0  0  2  0  0  0  0
    0.3572    0.8250    0.0000 C   0  0  0  0  0  0  0  2  0  0  0  0
   -0.3572    1.2375    0.0000 O   0  0  0  0  0  0  0  2  0  0  0  0
    0.3572   -0.0000    0.0000 N   0  0  0  0  0  0  0  2  0  0  0  0
   -0.3572   -0.4125    0.0000 C   0  0  0  0  0  0  0  2  0  0  0  0
   -1.0717   -0.0000    0.0000 C   0  0  0  0  0  0  0  2  0  0  0  0
   -1.7862   -0.4125    0.0000 C   0  0  0  0  0  0  0  2  0  0  0  0
   -1.7862   -1.2375    0.0000 C   0  0  0  0  0  0  0  2  0  0  0  0
   -2.5006   -1.6500    0.0000 Cl  0  0  0  0  0  0  0  2  0  0  0  0
   -1.0717   -1.6500    0.0000 C   0  0  0  0  0  0  0  2  0  0  0  0
   -0.3572   -1.2375    0.0000 C   0  0  0  0  0  0  0  2  0  0  0  0
    0.3572   -1.6500    0.0000 C   0  0  0  0  0  0  0  2  0  0  0  0
    0.3572   -2.4750    0.0000 O   0  0  0  0  0  0  0  2  0  0  0  0
    1.0717   -1.2375    0.0000 C   0  0  0  0  0  0  0  2  0  0  0  0
    1.0717   -0.4125    0.0000 C   0  0  0  0  0  0  0  2  0  0  0  0
    1.7862   -0.0000    0.0000 C   0  0  0  0  0  0  0  2  0  0  0  0
    2.5006   -0.4125    0.0000 C   0  0  0  0  0  0  0  2  0  0  0  0
    2.5006   -1.2375    0.0000 C   0  0  0  0  0  0  0  2  0  0  0  0
    1.7862   -1.6500    0.0000 C   0  0  0  0  0  0  0  2  0  0  0  0
  1  2  4  0        0
  2  3  4  0        0
  3  4  4  0        0
  4  5  4  0        0
  5  6  4  0        0
  1  6  4  0        0
  6  7  1  0        0
  7  8  2  0        0
  7  9  1  0        0
  9 10  1  0        0
 10 11  4  0        0
 11 12  4  0        0
 12 13  4  0        0
 13 14  1  0        0
 13 15  4  0        0
 15 16  4  0        0
 10 16  4  0        0
 16 17  1  0        0
 17 18  1  0        0
 17 19  1  0        0
 19 20  4  0        0
 20 21  4  0        0
 21 22  4  0        0
 22 23  4  0        0
 23 24  4  0        0
 19 24  4  0        0
M  END
$$$$

CDXL12

 24 25  0  0  0  0  0  0  0  0999 V2000
   -2.8041   -0.4474    0.0000 C   0  0  0  0  0  0  0  2  0  0  0  0
   -1.9837   -0.5336    0.0000 O   0  0  0  0  0  0  0  2  0  0  0  0
   -1.6481   -1.2873    0.0000 C   0  0  0  0  0  0  0  2  0  0  0  0
   -2.1330   -1.9547    0.0000 C   0  0  0  0  0  0  0  2  0  0  0  0
   -1.7975   -2.7084    0.0000 C   0  0  0  0  0  0  0  2  0  0  0  0
   -0.9770   -2.7947    0.0000 C   0  0  0  0  0  0  0  2  0  0  0  0
   -0.4921   -2.1272    0.0000 C   0  0  0  0  0  0  0  2  0  0  0  0
    0.3284   -2.2134    0.0000 O   0  0  0  0  0  0  0  2  0  0  0  0
    0.8133   -1.5460    0.0000 C   0  0  0  0  0  0  0  2  0  0  0  0
   -0.8276   -1.3735    0.0000 C   0  0  0  0  0  0  0  2  0  0  0  0
   -0.3427   -0.7061    0.0000 C   0  0  0  0  0  0  0  2  0  0  0  0
   -0.6783    0.0476    0.0000 O   0  0  0  0  0  0  0  2  0  0  0  0
    0.4778   -0.7923    0.0000 N   0  0  0  0  0  0  0  2  0  0  0  0
    0.9627   -0.1249    0.0000 C   0  0  0  0  0  0  0  2  0  0  0  0
    1.7877   -0.1249    0.0000 O   0  0  0  0  0  0  0  2  0  0  0  0
    2.0426    0.6597    0.0000 N   0  0  0  0  0  0  0  2  0  0  0  0
    1.3752    1.1447    0.0000 C   0  0  0  0  0  0  0  2  0  0  0  0
    1.3752    1.9697    0.0000 C   0  0  0  0  0  0  0  2  0  0  0  0
    1.3752    2.7947    0.0000 C   0  0  0  0  0  0  0  2  0  0  0  0
    2.0897    2.3822    0.0000 C   0  0  0  0  0  0  0  2  0  0  0  0
    2.8041    1.9697    0.0000 C   0  0  0  0  0  0  0  2  0  0  0  0
    0.6607    2.3822    0.0000 C   0  0  0  0  0  0  0  2  0  0  0  0
   -0.0537    1.9697    0.0000 C   0  0  0  0  0  0  0  2  0  0  0  0
    0.7078    0.6597    0.0000 C   0  0  0  0  0  0  0  2  0  0  0  0
  1  2  1  0        0
  2  3  1  0        0
  3  4  4  0        0
  4  5  4  0        0
  5  6  4  0        0
  6  7  4  0        0
  7  8  1  0        0
  8  9  1  0        0
  7 10  4  0        0
  3 10  4  0        0
 10 11  1  0        0
 11 12  2  0        0
 11 13  1  0        0
 13 14  1  0        0
 14 15  4  0        0
 15 16  4  0        0
 16 17  4  0        0
 17 18  1  0        0
 18 19  1  0        0
 18 20  1  0        0
 20 21  1  0        0
 18 22  1  0        0
 22 23  1  0        0
 17 24  4  0        0
 14 24  4  0        0
M  END
$$$$

CDXL12

 28 29  0  0  0  0  0  0  0  0999 V2000
   -2.7191    1.2716    0.0000 C   0  0  0  0  0  0  0  2  0  0  0  0
   -3.4336    1.6841    0.0000 C   0  0  0  0  0  0  0  2  0  0  0  0
   -4.1481    1.2716    0.0000 C   0  0  0  0  0  0  0  2  0  0  0  0
   -4.1481    0.4466    0.0000 C   0  0  0  0  0  0  0  2  0  0  0  0
   -4.7612   -0.1054    0.0000 C   0  0  0  0  0  0  0  2  0  0  0  0
   -4.4256   -0.8591    0.0000 C   0  0  0  0  0  0  0  2  0  0  0  0
   -5.1401   -1.2716    0.0000 C   0  0  0  0  0  0  0  2  0  0  0  0
   -4.4256   -1.6841    0.0000 C   0  0  0  0  0  0  0  2  0  0  0  0
   -3.6051   -0.7729    0.0000 O   0  0  0  0  0  0  0  2  0  0  0  0
   -3.4336    0.0341    0.0000 C   0  0  0  0  0  0  0  2  0  0  0  0
   -2.7191    0.4466    0.0000 C   0  0  0  0  0  0  0  2  0  0  0  0
   -2.0046    0.0341    0.0000 O   0  0  0  0  0  0  0  2  0  0  0  0
   -1.2902    0.4466    0.0000 C   0  0  0  0  0  0  0  2  0  0  0  0
   -1.2902    1.2716    0.0000 O   0  0  0  0  0  0  0  2  0  0  0  0
   -0.5757    0.0341    0.0000 N   0  0  0  0  0  0  0  2  0  0  0  0
   -0.5757   -0.7909    0.0000 C   0  0  0  0  0  0  0  2  0  0  0  0
    0.1388    0.4466    0.0000 S   0  0  0  0  0  0  0  2  0  0  0  0
    0.8532    0.0341    0.0000 N   0  0  0  0  0  0  0  2  0  0  0  0
    0.8532   -0.7909    0.0000 C   0  0  0  0  0  0  0  2  0  0  0  0
    1.5677   -1.2034    0.0000 C   0  0  0  0  0  0  0  2  0  0  0  0
    0.1388   -1.2034    0.0000 C   0  0  0  0  0  0  0  2  0  0  0  0
    1.5677    0.4466    0.0000 C   0  0  0  0  0  0  0  2  0  0  0  0
    2.2822    0.0341    0.0000 C   0  0  0  0  0  0  0  2  0  0  0  0
    2.9967    0.4466    0.0000 C   0  0  0  0  0  0  0  2  0  0  0  0
    2.9967    1.2716    0.0000 O   0  0  0  0  0  0  0  2  0  0  0  0
    3.7111    0.0341    0.0000 O   0  0  0  0  0  0  0  2  0  0  0  0
    4.4256    0.4466    0.0000 C   0  0  0  0  0  0  0  2  0  0  0  0
    5.1401    0.0341    0.0000 C   0  0  0  0  0  0  0  2  0  0  0  0
  1  2  4  0        0
  2  3  4  0        0
  3  4  4  0        0
  4  5  1  0        0
  5  6  1  0        0
  6  7  1  0        0
  6  8  1  0        0
  6  9  1  0        0
  9 10  1  0        0
  4 10  4  0        0
 10 11  4  0        0
  1 11  4  0        0
 11 12  1  0        0
 12 13  1  0        0
 13 14  2  0        0
 13 15  1  0        0
 15 16  1  0        0
 15 17  1  0        0
 17 18  1  0        0
 18 19  1  0        0
 19 20  1  0        0
 19 21  1  0        0
 18 22  1  0        0
 22 23  1  0        0
 23 24  1  0        0
 24 25  2  0        0
 24 26  1  0        0
 26 27  1  0        0
 27 28  1  0        0
M  END
$$$$

CDXL12

 29 31  0  0  0  0  0  0  0  0999 V2000
    4.3421   -0.1105    0.0000 C   0  0  0  0  0  0  0  2  0  0  0  0
    5.0566    0.3020    0.0000 C   0  0  0  0  0  0  0  2  0  0  0  0
    5.0566    1.1270    0.0000 C   0  0  0  0  0  0  0  2  0  0  0  0
    4.3421    1.5395    0.0000 C   0  0  0  0  0  0  0  2  0  0  0  0
    3.6276    1.1270    0.0000 C   0  0  0  0  0  0  0  2  0  0  0  0
    3.6276    0.3020    0.0000 C   0  0  0  0  0  0  0  2  0  0  0  0
    2.9131   -0.1105    0.0000 C   0  0  0  0  0  0  0  2  0  0  0  0
    2.1987    0.3020    0.0000 C   0  0  0  0  0  0  0  2  0  0  0  0
    2.1987    1.1270    0.0000 C   0  0  0  0  0  0  0  2  0  0  0  0
    1.4842   -0.1105    0.0000 C   0  0  0  0  0  0  0  2  0  0  0  0
    0.7697    0.3020    0.0000 C   0  0  0  0  0  0  0  2  0  0  0  0
    0.0553   -0.1105    0.0000 O   0  0  0  0  0  0  0  2  0  0  0  0
   -0.6592    0.3020    0.0000 C   0  0  0  0  0  0  0  2  0  0  0  0
   -0.6592    1.1270    0.0000 O   0  0  0  0  0  0  0  2  0  0  0  0
   -1.3737   -0.1105    0.0000 C   0  0  0  0  0  0  0  2  0  0  0  0
   -1.7862   -0.8250    0.0000 C   0  0  0  0  0  0  0  2  0  0  0  0
   -2.1987   -1.5395    0.0000 C   0  0  0  0  0  0  0  2  0  0  0  0
   -1.3737   -1.5395    0.0000 C   0  0  0  0  0  0  0  2  0  0  0  0
   -2.1987   -0.1105    0.0000 C   0  0  0  0  0  0  0  2  0  0  0  0
   -2.9131    0.3020    0.0000 C   0  0  0  0  0  0  0  2  0  0  0  0
   -3.6276   -0.1105    0.0000 C   0  0  0  0  0  0  0  2  0  0  0  0
   -3.6276   -0.9355    0.0000 Cl  0  0  0  0  0  0  0  2  0  0  0  0
   -4.3421    0.3020    0.0000 C   0  0  0  0  0  0  0  2  0  0  0  0
   -5.0566    0.7145    0.0000 F   0  0  0  0  0  0  0  2  0  0  0  0
   -4.3421    1.1270    0.0000 F   0  0  0  0  0  0  0  2  0  0  0  0
   -5.0566   -0.1105    0.0000 F   0  0  0  0  0  0  0  2  0  0  0  0
    1.4842   -0.9355    0.0000 C   0  0  0  0  0  0  0  2  0  0  0  0
    2.1987   -1.3480    0.0000 C   0  0  0  0  0  0  0  2  0  0  0  0
    2.9131   -0.9355    0.0000 C   0  0  0  0  0  0  0  2  0  0  0  0
  1  2  4  0        0
  2  3  4  0        0
  3  4  4  0        0
  4  5  4  0        0
  5  6  4  0        0
  1  6  4  0        0
  6  7  1  0        0
  7  8  4  0        0
  8  9  1  0        0
  8 10  4  0        0
 10 11  1  0        0
 11 12  1  0        0
 12 13  1  0        0
 13 14  2  0        0
 13 15  1  0        0
 15 16  1  0        0
 16 17  1  0        0
 16 18  1  0        0
 16 19  1  0        0
 15 19  1  0        0
 19 20  1  0        0
 20 21  2  0        0
 21 22  1  0        0
 21 23  1  0        0
 23 24  1  0        0
 23 25  1  0        0
 23 26  1  0        0
 10 27  4  0        0
 27 28  4  0        0
 28 29  4  0        0
  7 29  4  0        0
M  END
$$$$

CDXL12

 28 29  0  0  0  0  0  0  0  0999 V2000
    2.1434   -1.0312    0.0000 N   0  0  0  0  0  0  0  2  0  0  0  0
    2.8579   -0.6187    0.0000 C   0  0  0  0  0  0  0  2  0  0  0  0
    3.5724   -1.0312    0.0000 O   0  0  0  0  0  0  0  2  0  0  0  0
    4.2868   -0.6187    0.0000 C   0  0  0  0  0  0  0  2  0  0  0  0
    2.8579    0.2062    0.0000 C   0  0  0  0  0  0  0  2  0  0  0  0
    2.1434    0.6188    0.0000 C   0  0  0  0  0  0  0  2  0  0  0  0
    2.1434    1.4438    0.0000 O   0  0  0  0  0  0  0  2  0  0  0  0
    2.8579    1.8563    0.0000 C   0  0  0  0  0  0  0  2  0  0  0  0
    1.4289    0.2062    0.0000 N   0  0  0  0  0  0  0  2  0  0  0  0
    1.4289   -0.6188    0.0000 C   0  0  0  0  0  0  0  2  0  0  0  0
    0.7145   -1.0313    0.0000 N   0  0  0  0  0  0  0  2  0  0  0  0
    0.0000   -0.6188    0.0000 C   0  0  0  0  0  0  0  2  0  0  0  0
    0.0000    0.2062    0.0000 O   0  0  0  0  0  0  0  2  0  0  0  0
   -0.7145   -1.0313    0.0000 N   0  0  0  0  0  0  0  2  0  0  0  0
   -1.4289   -0.6188    0.0000 S   0  0  0  0  0  0  0  2  0  0  0  0
   -1.8414   -1.3332    0.0000 O   0  0  0  0  0  0  0  2  0  0  0  0
   -1.0164    0.0957    0.0000 O   0  0  0  0  0  0  0  2  0  0  0  0
   -2.1434   -0.2062    0.0000 C   0  0  0  0  0  0  0  2  0  0  0  0
   -2.8579   -0.6188    0.0000 C   0  0  0  0  0  0  0  2  0  0  0  0
   -2.8579   -1.4438    0.0000 C   0  0  0  0  0  0  0  2  0  0  0  0
   -3.5724   -1.8563    0.0000 C   0  0  0  0  0  0  0  2  0  0  0  0
   -4.2868   -1.4438    0.0000 C   0  0  0  0  0  0  0  2  0  0  0  0
   -4.2868   -0.6188    0.0000 C   0  0  0  0  0  0  0  2  0  0  0  0
   -3.5724   -0.2062    0.0000 C   0  0  0  0  0  0  0  2  0  0  0  0
   -3.5724    0.6187    0.0000 C   0  0  0  0  0  0  0  2  0  0  0  0
   -2.8579    1.0313    0.0000 O   0  0  0  0  0  0  0  2  0  0  0  0
   -4.2868    1.0312    0.0000 O   0  0  0  0  0  0  0  2  0  0  0  0
   -4.2868    1.8563    0.0000 C   0  0  0  0  0  0  0  2  0  0  0  0
  1  2  4  0        0
  2  3  1  0        0
  3  4  1  0        0
  2  5  4  0        0
  5  6  4  0        0
  6  7  1  0        0
  7  8  1  0        0
  6  9  4  0        0
  9 10  4  0        0
  1 10  4  0        0
 10 11  1  0        0
 11 12  1  0        0
 12 13  2  0        0
 12 14  1  0        0
 14 15  1  0        0
 15 16  2  0        0
 15 17  2  0        0
 15 18  1  0        0
 18 19  1  0        0
 19 20  4  0        0
 20 21  4  0        0
 21 22  4  0        0
 22 23  4  0        0
 23 24  4  0        0
 19 24  4  0        0
 24 25  1  0        0
 25 26  2  0        0
 25 27  1  0        0
 27 28  1  0        0
M  END
$$$$

CDXL12

 24 25  0  0  0  0  0  0  0  0999 V2000
   -1.4289   -1.8562    0.0000 F   0  0  0  0  0  0  0  2  0  0  0  0
   -2.1434   -1.4437    0.0000 C   0  0  0  0  0  0  0  2  0  0  0  0
   -2.8579   -1.8562    0.0000 C   0  0  0  0  0  0  0  2  0  0  0  0
   -3.5724   -1.4437    0.0000 C   0  0  0  0  0  0  0  2  0  0  0  0
   -3.5724   -0.6187    0.0000 C   0  0  0  0  0  0  0  2  0  0  0  0
   -2.8579   -0.2062    0.0000 C   0  0  0  0  0  0  0  2  0  0  0  0
   -2.8579    0.6188    0.0000 F   0  0  0  0  0  0  0  2  0  0  0  0
   -2.1434   -0.6187    0.0000 C   0  0  0  0  0  0  0  2  0  0  0  0
   -1.4289   -0.2062    0.0000 C   0  0  0  0  0  0  0  2  0  0  0  0
   -1.4289    0.6188    0.0000 O   0  0  0  0  0  0  0  2  0  0  0  0
   -0.7145   -0.6187    0.0000 N   0  0  0  0  0  0  0  2  0  0  0  0
    0.0000   -0.2062    0.0000 C   0  0  0  0  0  0  0  2  0  0  0  0
    0.0000    0.6188    0.0000 O   0  0  0  0  0  0  0  2  0  0  0  0
    0.7145   -0.6187    0.0000 N   0  0  0  0  0  0  0  2  0  0  0  0
    1.4289   -0.2062    0.0000 C   0  0  0  0  0  0  0  2  0  0  0  0
    2.1434   -0.6188    0.0000 C   0  0  0  0  0  0  0  2  0  0  0  0
    2.8579   -0.2062    0.0000 C   0  0  0  0  0  0  0  2  0  0  0  0
    3.5724   -0.6188    0.0000 Cl  0  0  0  0  0  0  0  2  0  0  0  0
    2.8579    0.6188    0.0000 C   0  0  0  0  0  0  0  2  0  0  0  0
    3.5724    1.0313    0.0000 F   0  0  0  0  0  0  0  2  0  0  0  0
    2.1434    1.0312    0.0000 C   0  0  0  0  0  0  0  2  0  0  0  0
    2.1434    1.8562    0.0000 Cl  0  0  0  0  0  0  0  2  0  0  0  0
    1.4289    0.6188    0.0000 C   0  0  0  0  0  0  0  2  0  0  0  0
    0.7145    1.0313    0.0000 F   0  0  0  0  0  0  0  2  0  0  0  0
  1  2  1  0        0
  2  3  4  0        0
  3  4  4  0        0
  4  5  4  0        0
  5  6  4  0        0
  6  7  1  0        0
  6  8  4  0        0
  2  8  4  0        0
  8  9  1  0        0
  9 10  2  0        0
  9 11  1  0        0
 11 12  1  0        0
 12 13  2  0        0
 12 14  1  0        0
 14 15  1  0        0
 15 16  4  0        0
 16 17  4  0        0
 17 18  1  0        0
 17 19  4  0        0
 19 20  1  0        0
 19 21  4  0        0
 21 22  1  0        0
 21 23  4  0        0
 15 23  4  0        0
 23 24  1  0        0
M  END
$$$$

CDXL12

 28 30  0  0  0  0  0  0  0  0999 V2000
    1.7862    0.4125    0.0000 N   0  0  0  0  0  0  0  2  0  0  0  0
    1.0717    0.0000    0.0000 C   0  0  0  0  0  0  0  2  0  0  0  0
    0.3572    0.4125    0.0000 O   0  0  0  0  0  0  0  2  0  0  0  0
    0.3572    1.2375    0.0000 C   0  0  0  0  0  0  0  2  0  0  0  0
   -0.3572    1.6500    0.0000 C   0  0  0  0  0  0  0  2  0  0  0  0
   -0.3572    2.4750    0.0000 C   0  0  0  0  0  0  0  2  0  0  0  0
   -1.0717    2.8875    0.0000 C   0  0  0  0  0  0  0  2  0  0  0  0
   -1.7862    2.4750    0.0000 F   0  0  0  0  0  0  0  2  0  0  0  0
   -1.7862    3.3000    0.0000 F   0  0  0  0  0  0  0  2  0  0  0  0
   -1.0717    3.7125    0.0000 F   0  0  0  0  0  0  0  2  0  0  0  0
    0.3572    2.8875    0.0000 C   0  0  0  0  0  0  0  2  0  0  0  0
    1.0717    2.4750    0.0000 C   0  0  0  0  0  0  0  2  0  0  0  0
    1.0717    1.6500    0.0000 C   0  0  0  0  0  0  0  2  0  0  0  0
    1.0717   -0.8250    0.0000 C   0  0  0  0  0  0  0  2  0  0  0  0
    0.3572   -1.2375    0.0000 C   0  0  0  0  0  0  0  2  0  0  0  0
   -0.3572   -0.8250    0.0000 O   0  0  0  0  0  0  0  2  0  0  0  0
    0.3572   -2.0625    0.0000 N   0  0  0  0  0  0  0  2  0  0  0  0
   -0.3572   -2.4750    0.0000 C   0  0  0  0  0  0  0  2  0  0  0  0
   -1.0717   -2.0625    0.0000 C   0  0  0  0  0  0  0  2  0  0  0  0
   -1.0717   -1.2375    0.0000 F   0  0  0  0  0  0  0  2  0  0  0  0
   -1.7862   -2.4750    0.0000 C   0  0  0  0  0  0  0  2  0  0  0  0
   -1.7862   -3.3000    0.0000 C   0  0  0  0  0  0  0  2  0  0  0  0
   -2.5006   -3.7125    0.0000 F   0  0  0  0  0  0  0  2  0  0  0  0
   -1.0717   -3.7125    0.0000 C   0  0  0  0  0  0  0  2  0  0  0  0
   -0.3572   -3.3000    0.0000 C   0  0  0  0  0  0  0  2  0  0  0  0
    1.7862   -1.2375    0.0000 C   0  0  0  0  0  0  0  2  0  0  0  0
    2.5006   -0.8250    0.0000 C   0  0  0  0  0  0  0  2  0  0  0  0
    2.5006    0.0000    0.0000 C   0  0  0  0  0  0  0  2  0  0  0  0
  1  2  4  0        0
  2  3  1  0        0
  3  4  1  0        0
  4  5  4  0        0
  5  6  4  0        0
  6  7  1  0        0
  7  8  1  0        0
  7  9  1  0        0
  7 10  1  0        0
  6 11  4  0        0
 11 12  4  0        0
 12 13  4  0        0
  4 13  4  0        0
  2 14  4  0        0
 14 15  1  0        0
 15 16  2  0        0
 15 17  1  0        0
 17 18  1  0        0
 18 19  4  0        0
 19 20  1  0        0
 19 21  4  0        0
 21 22  4  0        0
 22 23  1  0        0
 22 24  4  0        0
 24 25  4  0        0
 18 25  4  0        0
 14 26  4  0        0
 26 27  4  0        0
 27 28  4  0        0
  1 28  4  0        0
M  END
$$$$

CDXL12

 21 22  0  0  0  0  0  0  0  0999 V2000
    1.4289   -1.6660    0.0000 Cl  0  0  0  0  0  0  0  2  0  0  0  0
    1.4289   -0.8410    0.0000 C   0  0  0  0  0  0  0  2  0  0  0  0
    2.1434   -0.4285    0.0000 C   0  0  0  0  0  0  0  2  0  0  0  0
    2.1434    0.3965    0.0000 C   0  0  0  0  0  0  0  2  0  0  0  0
    2.8579    0.8090    0.0000 Cl  0  0  0  0  0  0  0  2  0  0  0  0
    1.4289    0.8090    0.0000 C   0  0  0  0  0  0  0  2  0  0  0  0
    0.7145    0.3965    0.0000 C   0  0  0  0  0  0  0  2  0  0  0  0
    0.7145   -0.4285    0.0000 C   0  0  0  0  0  0  0  2  0  0  0  0
    0.0000   -0.8410    0.0000 C   0  0  0  0  0  0  0  2  0  0  0  0
   -0.7145   -0.4285    0.0000 C   0  0  0  0  0  0  0  2  0  0  0  0
   -1.4289   -0.8410    0.0000 C   0  0  0  0  0  0  0  2  0  0  0  0
   -1.4289   -1.6660    0.0000 O   0  0  0  0  0  0  0  2  0  0  0  0
   -2.1434   -0.4285    0.0000 C   0  0  0  0  0  0  0  2  0  0  0  0
   -2.8579   -0.8410    0.0000 C   0  0  0  0  0  0  0  2  0  0  0  0
   -2.8579   -0.0160    0.0000 C   0  0  0  0  0  0  0  2  0  0  0  0
   -2.1434    0.3965    0.0000 C   0  0  0  0  0  0  0  2  0  0  0  0
   -0.7145    0.3965    0.0000 N   0  0  0  0  0  0  0  2  0  0  0  0
   -1.3819    0.8814    0.0000 N   0  0  0  0  0  0  0  2  0  0  0  0
   -1.1270    1.6660    0.0000 C   0  0  0  0  0  0  0  2  0  0  0  0
   -0.3020    1.6660    0.0000 N   0  0  0  0  0  0  0  2  0  0  0  0
   -0.0470    0.8814    0.0000 C   0  0  0  0  0  0  0  2  0  0  0  0
  1  2  1  0        0
  2  3  4  0        0
  3  4  4  0        0
  4  5  1  0        0
  4  6  4  0        0
  6  7  4  0        0
  7  8  4  0        0
  2  8  4  0        0
  8  9  1  0        0
  9 10  2  0        0
 10 11  1  0        0
 11 12  1  0        0
 11 13  1  0        0
 13 14  1  0        0
 13 15  1  0        0
 13 16  1  0        0
 10 17  1  0        0
 17 18  4  0        0
 18 19  4  0        0
 19 20  4  0        0
 20 21  4  0        0
 17 21  4  0        0
M  END
$$$$

CDXL12

 33 34  0  0  0  0  0  0  0  0999 V2000
   -2.7831    1.4785    0.0000 C   0  0  0  0  0  0  0  2  0  0  0  0
   -2.0294    1.8141    0.0000 C   0  0  0  0  0  0  0  2  0  0  0  0
   -1.4774    1.2010    0.0000 C   0  0  0  0  0  0  0  2  0  0  0  0
   -0.6569    1.2872    0.0000 C   0  0  0  0  0  0  0  2  0  0  0  0
   -1.8899    0.4865    0.0000 C   0  0  0  0  0  0  0  2  0  0  0  0
   -2.6969    0.6580    0.0000 C   0  0  0  0  0  0  0  2  0  0  0  0
   -3.3100    0.1060    0.0000 C   0  0  0  0  0  0  0  2  0  0  0  0
   -4.1169    0.2775    0.0000 C   0  0  0  0  0  0  0  2  0  0  0  0
   -4.5294   -0.4369    0.0000 C   0  0  0  0  0  0  0  2  0  0  0  0
   -5.3499   -0.5232    0.0000 C   0  0  0  0  0  0  0  2  0  0  0  0
   -3.9774   -1.0500    0.0000 C   0  0  0  0  0  0  0  2  0  0  0  0
   -3.2237   -0.7145    0.0000 C   0  0  0  0  0  0  0  2  0  0  0  0
   -2.5093   -1.1270    0.0000 C   0  0  0  0  0  0  0  2  0  0  0  0
   -1.7948   -0.7145    0.0000 C   0  0  0  0  0  0  0  2  0  0  0  0
   -1.0803   -1.1270    0.0000 C   0  0  0  0  0  0  0  2  0  0  0  0
   -0.3658   -0.7145    0.0000 C   0  0  0  0  0  0  0  2  0  0  0  0
    0.3486   -1.1270    0.0000 C   0  0  0  0  0  0  0  2  0  0  0  0
    1.0631   -0.7145    0.0000 C   0  0  0  0  0  0  0  2  0  0  0  0
    1.0631    0.1105    0.0000 O   0  0  0  0  0  0  0  2  0  0  0  0
    1.7776   -1.1270    0.0000 O   0  0  0  0  0  0  0  2  0  0  0  0
    2.4920   -0.7145    0.0000 Sn  0  0  0  0  0  0  0  2  0  0  0  0
    2.0795    0.0000    0.0000 C   0  0  0  0  0  0  0  2  0  0  0  0
    2.4920    0.7145    0.0000 C   0  0  0  0  0  0  0  2  0  0  0  0
    2.0795    1.4289    0.0000 C   0  0  0  0  0  0  0  2  0  0  0  0
    2.4920    2.1434    0.0000 C   0  0  0  0  0  0  0  2  0  0  0  0
    3.2065   -0.3020    0.0000 C   0  0  0  0  0  0  0  2  0  0  0  0
    3.9210   -0.7145    0.0000 C   0  0  0  0  0  0  0  2  0  0  0  0
    4.6354   -0.3020    0.0000 C   0  0  0  0  0  0  0  2  0  0  0  0
    5.3499   -0.7145    0.0000 C   0  0  0  0  0  0  0  2  0  0  0  0
    2.9045   -1.4289    0.0000 C   0  0  0  0  0  0  0  2  0  0  0  0
    3.7295   -1.4289    0.0000 C   0  0  0  0  0  0  0  2  0  0  0  0
    4.1420   -2.1434    0.0000 C   0  0  0  0  0  0  0  2  0  0  0  0
    4.9670   -2.1434    0.0000 C   0  0  0  0  0  0  0  2  0  0  0  0
  1  2  1  0        0
  2  3  1  0        0
  3  4  1  0        0
  3  5  1  0        0
  5  6  1  0        0
  1  6  1  0        0
  6  7  1  0        0
  7  8  1  0        0
  8  9  1  0        0
  9 10  1  0        0
  9 11  1  0        0
 11 12  1  0        0
  7 12  1  0        0
 12 13  1  0        0
 13 14  1  0        0
 14 15  1  0        0
 15 16  1  0        0
 16 17  1  0        0
 17 18  1  0        0
 18 19  2  0        0
 18 20  1  0        0
 20 21  1  0        0
 21 22  1  0        0
 22 23  1  0        0
 23 24  1  0        0
 24 25  1  0        0
 21 26  1  0        0
 26 27  1  0        0
 27 28  1  0        0
 28 29  1  0        0
 21 30  1  0        0
 30 31  1  0        0
 31 32  1  0        0
 32 33  1  0        0
M  END
$$$$

CDXL12

 18 18  0  0  0  0  0  0  0  0999 V2000
    1.7862   -0.8250    0.0000 C   0  0  0  0  0  0  0  2  0  0  0  0
    2.5006   -1.2375    0.0000 C   0  0  0  0  0  0  0  2  0  0  0  0
    3.2151   -0.8250    0.0000 C   0  0  0  0  0  0  0  2  0  0  0  0
    3.2151   -0.0000    0.0000 C   0  0  0  0  0  0  0  2  0  0  0  0
    2.5006    0.4125    0.0000 C   0  0  0  0  0  0  0  2  0  0  0  0
    1.7862   -0.0000    0.0000 C   0  0  0  0  0  0  0  2  0  0  0  0
    1.0717    0.4125    0.0000 C   0  0  0  0  0  0  0  2  0  0  0  0
    0.3572   -0.0000    0.0000 S   0  0  0  0  0  0  0  2  0  0  0  0
   -0.3572    0.4125    0.0000 C   0  0  0  0  0  0  0  2  0  0  0  0
   -0.3572    1.2375    0.0000 O   0  0  0  0  0  0  0  2  0  0  0  0
   -1.0717   -0.0000    0.0000 N   0  0  0  0  0  0  0  2  0  0  0  0
   -1.0717   -0.8250    0.0000 C   0  0  0  0  0  0  0  2  0  0  0  0
   -1.7862   -1.2375    0.0000 C   0  0  0  0  0  0  0  2  0  0  0  0
   -1.7862    0.4125    0.0000 C   0  0  0  0  0  0  0  2  0  0  0  0
   -1.7862    1.2375    0.0000 C   0  0  0  0  0  0  0  2  0  0  0  0
   -2.5006   -0.0000    0.0000 C   0  0  0  0  0  0  0  2  0  0  0  0
   -3.2151    0.4125    0.0000 C   0  0  0  0  0  0  0  2  0  0  0  0
   -2.5006   -0.8250    0.0000 C   0  0  0  0  0  0  0  2  0  0  0  0
  1  2  4  0        0
  2  3  4  0        0
  3  4  4  0        0
  4  5  4  0        0
  5  6  4  0        0
  1  6  4  0        0
  6  7  1  0        0
  7  8  1  0        0
  8  9  1  0        0
  9 10  2  0        0
  9 11  1  0        0
 11 12  1  0        0
 12 13  1  0        0
 11 14  1  0        0
 14 15  1  0        0
 14 16  1  0        0
 16 17  1  0        0
 16 18  1  0        0
M  END
$$$$

CDXL12

 31 32  0  0  0  0  0  0  0  0999 V2000
   -0.7145    0.3572    0.0000 C   0  0  0  0  0  0  0  2  0  0  0  0
   -1.4289   -0.0553    0.0000 O   0  0  0  0  0  0  0  2  0  0  0  0
   -2.1434    0.3572    0.0000 C   0  0  0  0  0  0  0  2  0  0  0  0
   -2.1434    1.1822    0.0000 O   0  0  0  0  0  0  0  2  0  0  0  0
   -2.8579   -0.0553    0.0000 C   0  0  0  0  0  0  0  2  0  0  0  0
   -3.5724    0.3572    0.0000 C   0  0  0  0  0  0  0  2  0  0  0  0
   -4.2868   -0.0553    0.0000 C   0  0  0  0  0  0  0  2  0  0  0  0
   -4.2868   -0.8803    0.0000 C   0  0  0  0  0  0  0  2  0  0  0  0
   -3.5724   -1.2928    0.0000 C   0  0  0  0  0  0  0  2  0  0  0  0
   -2.8579   -0.8803    0.0000 C   0  0  0  0  0  0  0  2  0  0  0  0
   -2.1434   -1.2928    0.0000 S   0  0  0  0  0  0  0  2  0  0  0  0
   -1.7309   -0.5783    0.0000 O   0  0  0  0  0  0  0  2  0  0  0  0
   -2.5559   -2.0072    0.0000 O   0  0  0  0  0  0  0  2  0  0  0  0
   -1.4289   -1.7053    0.0000 N   0  0  0  0  0  0  0  2  0  0  0  0
   -0.7145   -1.2928    0.0000 C   0  0  0  0  0  0  0  2  0  0  0  0
   -0.7145   -0.4678    0.0000 O   0  0  0  0  0  0  0  2  0  0  0  0
   -0.0000   -1.7053    0.0000 N   0  0  0  0  0  0  0  2  0  0  0  0
    0.7145   -1.2928    0.0000 C   0  0  0  0  0  0  0  2  0  0  0  0
    1.4289   -1.7053    0.0000 N   0  0  0  0  0  0  0  2  0  0  0  0
    2.1434   -1.2928    0.0000 C   0  0  0  0  0  0  0  2  0  0  0  0
    2.1434   -0.4678    0.0000 C   0  0  0  0  0  0  0  2  0  0  0  0
    1.4289   -0.0553    0.0000 C   0  0  0  0  0  0  0  2  0  0  0  0
    0.7145   -0.4678    0.0000 N   0  0  0  0  0  0  0  2  0  0  0  0
    1.4289    0.7697    0.0000 O   0  0  0  0  0  0  0  2  0  0  0  0
    2.1434    1.1822    0.0000 C   0  0  0  0  0  0  0  2  0  0  0  0
    2.8579    0.7697    0.0000 F   0  0  0  0  0  0  0  2  0  0  0  0
    2.1434    2.0072    0.0000 F   0  0  0  0  0  0  0  2  0  0  0  0
    2.8579   -1.7053    0.0000 O   0  0  0  0  0  0  0  2  0  0  0  0
    3.5724   -1.2928    0.0000 C   0  0  0  0  0  0  0  2  0  0  0  0
    3.5724   -0.4678    0.0000 F   0  0  0  0  0  0  0  2  0  0  0  0
    4.2868   -1.7053    0.0000 F   0  0  0  0  0  0  0  2  0  0  0  0
  1  2  1  0        0
  2  3  1  0        0
  3  4  2  0        0
  3  5  1  0        0
  5  6  4  0        0
  6  7  4  0        0
  7  8  4  0        0
  8  9  4  0        0
  9 10  4  0        0
  5 10  4  0        0
 10 11  1  0        0
 11 12  2  0        0
 11 13  2  0        0
 11 14  1  0        0
 14 15  1  0        0
 15 16  2  0        0
 15 17  1  0        0
 17 18  1  0        0
 18 19  4  0        0
 19 20  4  0        0
 20 21  4  0        0
 21 22  4  0        0
 22 23  4  0        0
 18 23  4  0        0
 22 24  1  0        0
 24 25  1  0        0
 25 26  1  0        0
 25 27  1  0        0
 20 28  1  0        0
 28 29  1  0        0
 29 30  1  0        0
 29 31  1  0        0
M  END
$$$$

CDXL12

 29 30  0  0  0  0  0  0  0  0999 V2000
   -2.5006   -1.8562    0.0000 F   0  0  0  0  0  0  0  2  0  0  0  0
   -3.2151   -1.4437    0.0000 C   0  0  0  0  0  0  0  2  0  0  0  0
   -3.9296   -1.8562    0.0000 C   0  0  0  0  0  0  0  2  0  0  0  0
   -4.6441   -1.4437    0.0000 C   0  0  0  0  0  0  0  2  0  0  0  0
   -4.6441   -0.6187    0.0000 C   0  0  0  0  0  0  0  2  0  0  0  0
   -3.9296   -0.2062    0.0000 C   0  0  0  0  0  0  0  2  0  0  0  0
   -3.9296    0.6188    0.0000 F   0  0  0  0  0  0  0  2  0  0  0  0
   -3.2151   -0.6187    0.0000 C   0  0  0  0  0  0  0  2  0  0  0  0
   -2.5006   -0.2062    0.0000 C   0  0  0  0  0  0  0  2  0  0  0  0
   -2.5006    0.6187    0.0000 O   0  0  0  0  0  0  0  2  0  0  0  0
   -1.7862   -0.6187    0.0000 N   0  0  0  0  0  0  0  2  0  0  0  0
   -1.0717   -0.2062    0.0000 C   0  0  0  0  0  0  0  2  0  0  0  0
   -1.0717    0.6187    0.0000 O   0  0  0  0  0  0  0  2  0  0  0  0
   -0.3572   -0.6187    0.0000 N   0  0  0  0  0  0  0  2  0  0  0  0
    0.3572   -0.2062    0.0000 C   0  0  0  0  0  0  0  2  0  0  0  0
    1.0717   -0.6187    0.0000 C   0  0  0  0  0  0  0  2  0  0  0  0
    1.7862   -0.2062    0.0000 C   0  0  0  0  0  0  0  2  0  0  0  0
    2.5006   -0.6187    0.0000 Cl  0  0  0  0  0  0  0  2  0  0  0  0
    1.7862    0.6187    0.0000 C   0  0  0  0  0  0  0  2  0  0  0  0
    2.5006    1.0312    0.0000 O   0  0  0  0  0  0  0  2  0  0  0  0
    3.2151    0.6187    0.0000 C   0  0  0  0  0  0  0  2  0  0  0  0
    2.8026   -0.0957    0.0000 F   0  0  0  0  0  0  0  2  0  0  0  0
    3.6276   -0.0957    0.0000 F   0  0  0  0  0  0  0  2  0  0  0  0
    3.9296    1.0312    0.0000 C   0  0  0  0  0  0  0  2  0  0  0  0
    3.9296    1.8562    0.0000 F   0  0  0  0  0  0  0  2  0  0  0  0
    4.6441    0.6187    0.0000 F   0  0  0  0  0  0  0  2  0  0  0  0
    1.0717    1.0312    0.0000 C   0  0  0  0  0  0  0  2  0  0  0  0
    1.0717    1.8562    0.0000 Cl  0  0  0  0  0  0  0  2  0  0  0  0
    0.3572    0.6187    0.0000 C   0  0  0  0  0  0  0  2  0  0  0  0
  1  2  1  0        0
  2  3  4  0        0
  3  4  4  0        0
  4  5  4  0        0
  5  6  4  0        0
  6  7  1  0        0
  6  8  4  0        0
  2  8  4  0        0
  8  9  1  0        0
  9 10  2  0        0
  9 11  1  0        0
 11 12  1  0        0
 12 13  2  0        0
 12 14  1  0        0
 14 15  1  0        0
 15 16  4  0        0
 16 17  4  0        0
 17 18  1  0        0
 17 19  4  0        0
 19 20  1  0        0
 20 21  1  0        0
 21 22  1  0        0
 21 23  1  0        0
 21 24  1  0        0
 24 25  1  0        0
 24 26  1  0        0
 19 27  4  0        0
 27 28  1  0        0
 27 29  4  0        0
 15 29  4  0        0
M  END
$$$$

CDXL12

 29 30  0  0  0  0  0  0  0  0999 V2000
   -2.5006    0.4125    0.0000 Cl  0  0  0  0  0  0  0  2  0  0  0  0
   -3.2151   -0.0000    0.0000 C   0  0  0  0  0  0  0  2  0  0  0  0
   -3.9296    0.4125    0.0000 C   0  0  0  0  0  0  0  2  0  0  0  0
   -4.6441   -0.0000    0.0000 C   0  0  0  0  0  0  0  2  0  0  0  0
   -5.3585    0.4125    0.0000 C   0  0  0  0  0  0  0  2  0  0  0  0
   -5.3585    1.2375    0.0000 F   0  0  0  0  0  0  0  2  0  0  0  0
   -6.0730    0.8250    0.0000 F   0  0  0  0  0  0  0  2  0  0  0  0
   -6.0730   -0.0000    0.0000 F   0  0  0  0  0  0  0  2  0  0  0  0
   -4.6441   -0.8250    0.0000 C   0  0  0  0  0  0  0  2  0  0  0  0
   -3.9296   -1.2375    0.0000 N   0  0  0  0  0  0  0  2  0  0  0  0
   -3.2151   -0.8250    0.0000 C   0  0  0  0  0  0  0  2  0  0  0  0
   -2.5006   -1.2375    0.0000 O   0  0  0  0  0  0  0  2  0  0  0  0
   -1.7862   -0.8250    0.0000 C   0  0  0  0  0  0  0  2  0  0  0  0
   -1.7862   -0.0000    0.0000 C   0  0  0  0  0  0  0  2  0  0  0  0
   -1.0717    0.4125    0.0000 C   0  0  0  0  0  0  0  2  0  0  0  0
   -0.3572   -0.0000    0.0000 C   0  0  0  0  0  0  0  2  0  0  0  0
    0.3572    0.4125    0.0000 O   0  0  0  0  0  0  0  2  0  0  0  0
    1.0717   -0.0000    0.0000 C   0  0  0  0  0  0  0  2  0  0  0  0
    1.0717   -0.8250    0.0000 C   0  0  0  0  0  0  0  2  0  0  0  0
    1.7862    0.4125    0.0000 C   0  0  0  0  0  0  0  2  0  0  0  0
    1.7862    1.2375    0.0000 O   0  0  0  0  0  0  0  2  0  0  0  0
    2.5006   -0.0000    0.0000 O   0  0  0  0  0  0  0  2  0  0  0  0
    3.2151    0.4125    0.0000 C   0  0  0  0  0  0  0  2  0  0  0  0
    3.9296   -0.0000    0.0000 C   0  0  0  0  0  0  0  2  0  0  0  0
    4.6441    0.4125    0.0000 O   0  0  0  0  0  0  0  2  0  0  0  0
    5.3585   -0.0000    0.0000 C   0  0  0  0  0  0  0  2  0  0  0  0
    6.0730    0.4125    0.0000 C   0  0  0  0  0  0  0  2  0  0  0  0
   -0.3572   -0.8250    0.0000 C   0  0  0  0  0  0  0  2  0  0  0  0
   -1.0717   -1.2375    0.0000 C   0  0  0  0  0  0  0  2  0  0  0  0
  1  2  1  0        0
  2  3  4  0        0
  3  4  4  0        0
  4  5  1  0        0
  5  6  1  0        0
  5  7  1  0        0
  5  8  1  0        0
  4  9  4  0        0
  9 10  4  0        0
 10 11  4  0        0
  2 11  4  0        0
 11 12  1  0        0
 12 13  1  0        0
 13 14  4  0        0
 14 15  4  0        0
 15 16  4  0        0
 16 17  1  0        0
 17 18  1  0        0
 18 19  1  0        0
 18 20  1  0        0
 20 21  2  0        0
 20 22  1  0        0
 22 23  1  0        0
 23 24  1  0        0
 24 25  1  0        0
 25 26  1  0        0
 26 27  1  0        0
 16 28  4  0        0
 28 29  4  0        0
 13 29  4  0        0
M  END
$$$$

CDXL12

 20 22  0  0  0  0  0  0  0  0999 V2000
   -1.0717   -0.4125    0.0000 C   0  0  0  0  0  0  0  2  0  0  0  0
   -1.7862   -0.8250    0.0000 C   0  0  0  0  0  0  0  2  0  0  0  0
   -1.7862   -1.6500    0.0000 C   0  0  0  0  0  0  0  2  0  0  0  0
   -1.0717   -2.0625    0.0000 C   0  0  0  0  0  0  0  2  0  0  0  0
   -2.5006   -2.0625    0.0000 C   0  0  0  0  0  0  0  2  0  0  0  0
   -2.1227   -0.0000    0.0000 O   0  0  0  0  0  0  0  2  0  0  0  0
   -1.7862    0.8250    0.0000 C   0  0  0  0  0  0  0  2  0  0  0  0
   -2.5006    0.4125    0.0000 C   0  0  0  0  0  0  0  2  0  0  0  0
   -2.5006   -0.4125    0.0000 C   0  0  0  0  0  0  0  2  0  0  0  0
   -1.7862    1.6500    0.0000 C   0  0  0  0  0  0  0  2  0  0  0  0
   -1.0717    0.4125    0.0000 C   0  0  0  0  0  0  0  2  0  0  0  0
   -0.3572    0.8250    0.0000 O   0  0  0  0  0  0  0  2  0  0  0  0
    0.3572    0.4125    0.0000 C   0  0  0  0  0  0  0  2  0  0  0  0
    1.0717    0.8250    0.0000 C   0  0  0  0  0  0  0  2  0  0  0  0
    1.7862    0.4125    0.0000 C   0  0  0  0  0  0  0  2  0  0  0  0
    2.5006    0.8250    0.0000 C   0  0  0  0  0  0  0  2  0  0  0  0
    2.5006    1.6500    0.0000 C   0  0  0  0  0  0  0  2  0  0  0  0
    1.7862    2.0625    0.0000 C   0  0  0  0  0  0  0  2  0  0  0  0
    1.0717    1.6500    0.0000 C   0  0  0  0  0  0  0  2  0  0  0  0
    0.3572    2.0625    0.0000 C   0  0  0  0  0  0  0  2  0  0  0  0
  1  2  1  0        0
  2  3  1  0        0
  3  4  1  0        0
  3  5  1  0        0
  2  6  1  0        0
  6  7  1  0        0
  7  8  1  0        0
  8  9  1  0        0
  2  9  1  0        0
  7 10  1  0        0
  7 11  1  0        0
  1 11  1  0        0
 11 12  1  0        0
 12 13  1  0        0
 13 14  1  0        0
 14 15  4  0        0
 15 16  4  0        0
 16 17  4  0        0
 17 18  4  0        0
 18 19  4  0        0
 14 19  4  0        0
 19 20  1  0        0
M  END
$$$$

CDXL12

 20 21  0  0  0  0  0  0  0  0999 V2000
   -1.0621   -0.0235    0.0000 C   0  0  0  0  0  0  0  2  0  0  0  0
   -1.4746    0.6910    0.0000 C   0  0  0  0  0  0  0  2  0  0  0  0
   -1.0621    1.4054    0.0000 C   0  0  0  0  0  0  0  2  0  0  0  0
   -1.4746    2.1199    0.0000 Cl  0  0  0  0  0  0  0  2  0  0  0  0
   -0.2371    1.4054    0.0000 C   0  0  0  0  0  0  0  2  0  0  0  0
    0.1754    0.6910    0.0000 C   0  0  0  0  0  0  0  2  0  0  0  0
   -0.2371   -0.0235    0.0000 C   0  0  0  0  0  0  0  2  0  0  0  0
    0.1754   -0.7380    0.0000 C   0  0  0  0  0  0  0  2  0  0  0  0
    0.8899   -0.3255    0.0000 C   0  0  0  0  0  0  0  2  0  0  0  0
    1.6044    0.0870    0.0000 N   0  0  0  0  0  0  0  2  0  0  0  0
   -0.5391   -1.1505    0.0000 C   0  0  0  0  0  0  0  2  0  0  0  0
   -1.2535   -0.7380    0.0000 C   0  0  0  0  0  0  0  2  0  0  0  0
   -1.9680   -1.1505    0.0000 C   0  0  0  0  0  0  0  2  0  0  0  0
   -2.6825   -0.7380    0.0000 C   0  0  0  0  0  0  0  2  0  0  0  0
    0.5879   -1.4525    0.0000 C   0  0  0  0  0  0  0  2  0  0  0  0
    1.4129   -1.4525    0.0000 N   0  0  0  0  0  0  0  2  0  0  0  0
    1.8978   -0.7850    0.0000 N   0  0  0  0  0  0  0  2  0  0  0  0
    2.6825   -1.0400    0.0000 C   0  0  0  0  0  0  0  2  0  0  0  0
    2.6825   -1.8650    0.0000 N   0  0  0  0  0  0  0  2  0  0  0  0
    1.8978   -2.1199    0.0000 C   0  0  0  0  0  0  0  2  0  0  0  0
  1  2  4  0        0
  2  3  4  0        0
  3  4  1  0        0
  3  5  4  0        0
  5  6  4  0        0
  6  7  4  0        0
  1  7  4  0        0
  7  8  1  0        0
  8  9  1  0        0
  9 10  3  0        0
  8 11  1  0        0
 11 12  1  0        0
 12 13  1  0        0
 13 14  1  0        0
  8 15  1  0        0
 15 16  1  0        0
 16 17  4  0        0
 17 18  4  0        0
 18 19  4  0        0
 19 20  4  0        0
 16 20  4  0        0
M  END
$$$$

CDXL12

 13 12  0  0  0  0  0  0  0  0999 V2000
   -1.7862   -1.6500    0.0000 O   0  0  0  0  0  0  0  2  0  0  0  0
   -1.7862   -0.8250    0.0000 N   0  0  0  0  0  0  0  2  0  0  0  0
   -2.5006   -0.4125    0.0000 O   0  0  0  0  0  0  0  2  0  0  0  0
   -1.0717   -0.4125    0.0000 O   0  0  0  0  0  0  0  2  0  0  0  0
   -0.3572   -0.8250    0.0000 C   0  0  0  0  0  0  0  2  0  0  0  0
    0.3572   -0.4125    0.0000 C   0  0  0  0  0  0  0  2  0  0  0  0
    1.0717   -0.8250    0.0000 O   0  0  0  0  0  0  0  2  0  0  0  0
    1.7862   -0.4125    0.0000 N   0  0  0  0  0  0  0  2  0  0  0  0
    1.7862    0.4125    0.0000 O   0  0  0  0  0  0  0  2  0  0  0  0
    2.5006   -0.8250    0.0000 O   0  0  0  0  0  0  0  2  0  0  0  0
    0.3572    0.4125    0.0000 C   0  0  0  0  0  0  0  2  0  0  0  0
    1.0717    0.8250    0.0000 C   0  0  0  0  0  0  0  2  0  0  0  0
    1.0717    1.6500    0.0000 C   0  0  0  0  0  0  0  2  0  0  0  0
  1  2  2  0        0
  2  3  2  0        0
  2  4  1  0        0
  4  5  1  0        0
  5  6  1  0        0
  6  7  1  0        0
  7  8  1  0        0
  8  9  2  0        0
  8 10  2  0        0
  6 11  1  0        0
 11 12  1  0        0
 12 13  1  0        0
M  END
$$$$

CDXL12

 40 45  0  0  0  0  0  0  0  0999 V2000
   -2.5006    1.0312    0.0000 O   0  0  0  0  0  0  0  2  0  0  0  0
   -3.2151    0.6187    0.0000 C   0  0  0  0  0  0  0  2  0  0  0  0
   -3.9296    1.0312    0.0000 O   0  0  0  0  0  0  0  2  0  0  0  0
   -4.6441    0.6187    0.0000 C   0  0  0  0  0  0  0  2  0  0  0  0
   -5.3585    1.0312    0.0000 C   0  0  0  0  0  0  0  2  0  0  0  0
   -6.0730    0.6187    0.0000 C   0  0  0  0  0  0  0  2  0  0  0  0
   -6.0730   -0.2063    0.0000 C   0  0  0  0  0  0  0  2  0  0  0  0
   -5.3585   -0.6188    0.0000 C   0  0  0  0  0  0  0  2  0  0  0  0
   -4.6441   -0.2063    0.0000 C   0  0  0  0  0  0  0  2  0  0  0  0
   -3.9296   -0.6187    0.0000 C   0  0  0  0  0  0  0  2  0  0  0  0
   -3.9296   -1.4437    0.0000 O   0  0  0  0  0  0  0  2  0  0  0  0
   -3.2151   -0.2062    0.0000 C   0  0  0  0  0  0  0  2  0  0  0  0
   -2.5006   -0.6187    0.0000 C   0  0  0  0  0  0  0  2  0  0  0  0
   -2.5006   -1.4437    0.0000 C   0  0  0  0  0  0  0  2  0  0  0  0
   -3.2151   -1.8562    0.0000 C   0  0  0  0  0  0  0  2  0  0  0  0
   -3.2151   -2.6812    0.0000 C   0  0  0  0  0  0  0  2  0  0  0  0
   -2.5006   -3.0937    0.0000 C   0  0  0  0  0  0  0  2  0  0  0  0
   -1.7862   -2.6812    0.0000 C   0  0  0  0  0  0  0  2  0  0  0  0
   -1.7862   -1.8562    0.0000 C   0  0  0  0  0  0  0  2  0  0  0  0
   -1.0717   -1.4437    0.0000 C   0  0  0  0  0  0  0  2  0  0  0  0
   -1.0717   -0.6187    0.0000 C   0  0  0  0  0  0  0  2  0  0  0  0
   -0.3572   -0.2062    0.0000 C   0  0  0  0  0  0  0  2  0  0  0  0
   -0.3572    0.6187    0.0000 C   0  0  0  0  0  0  0  2  0  0  0  0
    0.3572    1.0312    0.0000 C   0  0  0  0  0  0  0  2  0  0  0  0
    1.0717    0.6187    0.0000 C   0  0  0  0  0  0  0  2  0  0  0  0
    1.7862    1.0312    0.0000 O   0  0  0  0  0  0  0  2  0  0  0  0
    2.5006    0.6187    0.0000 C   0  0  0  0  0  0  0  2  0  0  0  0
    3.2151    1.0312    0.0000 C   0  0  0  0  0  0  0  2  0  0  0  0
    3.2151    1.8562    0.0000 C   0  0  0  0  0  0  0  2  0  0  0  0
    3.9296    2.2687    0.0000 C   0  0  0  0  0  0  0  2  0  0  0  0
    4.6441    1.8562    0.0000 C   0  0  0  0  0  0  0  2  0  0  0  0
    5.3585    2.2687    0.0000 C   0  0  0  0  0  0  0  2  0  0  0  0
    6.0730    2.6812    0.0000 F   0  0  0  0  0  0  0  2  0  0  0  0
    5.3585    3.0937    0.0000 F   0  0  0  0  0  0  0  2  0  0  0  0
    6.0730    1.8562    0.0000 F   0  0  0  0  0  0  0  2  0  0  0  0
    4.6441    1.0312    0.0000 C   0  0  0  0  0  0  0  2  0  0  0  0
    3.9296    0.6187    0.0000 C   0  0  0  0  0  0  0  2  0  0  0  0
    1.0717   -0.2062    0.0000 C   0  0  0  0  0  0  0  2  0  0  0  0
    0.3572   -0.6187    0.0000 C   0  0  0  0  0  0  0  2  0  0  0  0
   -1.7862   -0.2062    0.0000 C   0  0  0  0  0  0  0  2  0  0  0  0
  1  2  2  0        0
  2  3  1  0        0
  3  4  1  0        0
  4  5  4  0        0
  5  6  4  0        0
  6  7  4  0        0
  7  8  4  0        0
  8  9  4  0        0
  4  9  4  0        0
  9 10  1  0        0
 10 11  1  0        0
 10 12  2  0        0
  2 12  1  0        0
 12 13  1  0        0
 13 14  1  0        0
 14 15  4  0        0
 15 16  4  0        0
 16 17  4  0        0
 17 18  4  0        0
 18 19  4  0        0
 14 19  4  0        0
 19 20  1  0        0
 20 21  1  0        0
 21 22  1  0        0
 22 23  4  0        0
 23 24  4  0        0
 24 25  4  0        0
 25 26  1  0        0
 26 27  1  0        0
 27 28  1  0        0
 28 29  4  0        0
 29 30  4  0        0
 30 31  4  0        0
 31 32  1  0        0
 32 33  1  0        0
 32 34  1  0        0
 32 35  1  0        0
 31 36  4  0        0
 36 37  4  0        0
 28 37  4  0        0
 25 38  4  0        0
 38 39  4  0        0
 22 39  4  0        0
 21 40  1  0        0
 13 40  1  0        0
M  END
$$$$

CDXL12

 15 16  0  0  0  0  0  0  0  0999 V2000
   -2.1434    0.2062    0.0000 Cl  0  0  0  0  0  0  0  2  0  0  0  0
   -1.4289   -0.2063    0.0000 C   0  0  0  0  0  0  0  2  0  0  0  0
   -1.4289   -1.0312    0.0000 C   0  0  0  0  0  0  0  2  0  0  0  0
   -0.7145   -1.4437    0.0000 C   0  0  0  0  0  0  0  2  0  0  0  0
    0.0000   -1.0312    0.0000 C   0  0  0  0  0  0  0  2  0  0  0  0
    0.7145   -1.4437    0.0000 C   0  0  0  0  0  0  0  2  0  0  0  0
    1.4289   -1.0312    0.0000 C   0  0  0  0  0  0  0  2  0  0  0  0
    2.1434   -1.4437    0.0000 C   0  0  0  0  0  0  0  2  0  0  0  0
    1.4289   -0.2062    0.0000 C   0  0  0  0  0  0  0  2  0  0  0  0
    0.7145    0.2063    0.0000 N   0  0  0  0  0  0  0  2  0  0  0  0
    0.0000   -0.2062    0.0000 C   0  0  0  0  0  0  0  2  0  0  0  0
   -0.7145    0.2062    0.0000 C   0  0  0  0  0  0  0  2  0  0  0  0
   -0.7145    1.0312    0.0000 C   0  0  0  0  0  0  0  2  0  0  0  0
    0.0000    1.4437    0.0000 O   0  0  0  0  0  0  0  2  0  0  0  0
   -1.4289    1.4437    0.0000 O   0  0  0  0  0  0  0  2  0  0  0  0
  1  2  1  0        0
  2  3  4  0        0
  3  4  4  0        0
  4  5  4  0        0
  5  6  4  0        0
  6  7  4  0        0
  7  8  1  0        0
  7  9  4  0        0
  9 10  4  0        0
 10 11  4  0        0
  5 11  4  0        0
 11 12  4  0        0
  2 12  4  0        0
 12 13  1  0        0
 13 14  2  0        0
 13 15  1  0        0
M  END
$$$$

CDXL12

 31 33  0  0  0  0  0  0  0  0999 V2000
   -2.9131    0.5082    0.0000 F   0  0  0  0  0  0  0  2  0  0  0  0
   -2.9131   -0.3168    0.0000 C   0  0  0  0  0  0  0  2  0  0  0  0
   -3.6276    0.0957    0.0000 F   0  0  0  0  0  0  0  2  0  0  0  0
   -3.6276   -0.7293    0.0000 F   0  0  0  0  0  0  0  2  0  0  0  0
   -2.1987   -0.7293    0.0000 C   0  0  0  0  0  0  0  2  0  0  0  0
   -2.1987   -1.5543    0.0000 Cl  0  0  0  0  0  0  0  2  0  0  0  0
   -1.4842   -0.3168    0.0000 C   0  0  0  0  0  0  0  2  0  0  0  0
   -0.7697   -0.7293    0.0000 C   0  0  0  0  0  0  0  2  0  0  0  0
   -0.3572   -1.4437    0.0000 C   0  0  0  0  0  0  0  2  0  0  0  0
    0.0553   -2.1582    0.0000 C   0  0  0  0  0  0  0  2  0  0  0  0
   -0.7697   -2.1582    0.0000 C   0  0  0  0  0  0  0  2  0  0  0  0
    0.0553   -0.7293    0.0000 C   0  0  0  0  0  0  0  2  0  0  0  0
    0.7697   -0.3168    0.0000 C   0  0  0  0  0  0  0  2  0  0  0  0
    0.7697    0.5082    0.0000 O   0  0  0  0  0  0  0  2  0  0  0  0
    1.4842   -0.7293    0.0000 O   0  0  0  0  0  0  0  2  0  0  0  0
    2.1987   -0.3168    0.0000 C   0  0  0  0  0  0  0  2  0  0  0  0
    2.9131   -0.7293    0.0000 C   0  0  0  0  0  0  0  2  0  0  0  0
    3.6276   -1.1418    0.0000 N   0  0  0  0  0  0  0  2  0  0  0  0
    2.1987    0.5082    0.0000 C   0  0  0  0  0  0  0  2  0  0  0  0
    1.4842    0.9207    0.0000 C   0  0  0  0  0  0  0  2  0  0  0  0
    1.4842    1.7457    0.0000 C   0  0  0  0  0  0  0  2  0  0  0  0
    0.7697    2.1582    0.0000 O   0  0  0  0  0  0  0  2  0  0  0  0
    0.0553    1.7457    0.0000 C   0  0  0  0  0  0  0  2  0  0  0  0
    0.0553    0.9207    0.0000 C   0  0  0  0  0  0  0  2  0  0  0  0
   -0.6592    0.5082    0.0000 C   0  0  0  0  0  0  0  2  0  0  0  0
   -1.3737    0.9207    0.0000 C   0  0  0  0  0  0  0  2  0  0  0  0
   -1.3737    1.7457    0.0000 C   0  0  0  0  0  0  0  2  0  0  0  0
   -0.6592    2.1582    0.0000 C   0  0  0  0  0  0  0  2  0  0  0  0
    2.1987    2.1582    0.0000 C   0  0  0  0  0  0  0  2  0  0  0  0
    2.9131    1.7457    0.0000 C   0  0  0  0  0  0  0  2  0  0  0  0
    2.9131    0.9207    0.0000 C   0  0  0  0  0  0  0  2  0  0  0  0
  1  2  1  0        0
  2  3  1  0        0
  2  4  1  0        0
  2  5  1  0        0
  5  6  1  0        0
  5  7  2  0        0
  7  8  1  0        0
  8  9  1  0        0
  9 10  1  0        0
  9 11  1  0        0
  9 12  1  0        0
  8 12  1  0        0
 12 13  1  0        0
 13 14  2  0        0
 13 15  1  0        0
 15 16  1  0        0
 16 17  1  0        0
 17 18  3  0        0
 16 19  1  0        0
 19 20  4  0        0
 20 21  4  0        0
 21 22  1  0        0
 22 23  1  0        0
 23 24  4  0        0
 24 25  4  0        0
 25 26  4  0        0
 26 27  4  0        0
 27 28  4  0        0
 23 28  4  0        0
 21 29  4  0        0
 29 30  4  0        0
 30 31  4  0        0
 19 31  4  0        0
M  END
$$$$

CDXL12

 17 19  0  0  0  0  0  0  0  0999 V2000
   -1.4842    1.0312    0.0000 Cl  0  0  0  0  0  0  0  2  0  0  0  0
   -1.4842    0.2062    0.0000 N   0  0  0  0  0  0  0  2  0  0  0  0
   -1.8262   -0.3094    0.0000 C   0  0  0  0  0  0  0  2  0  0  0  0
   -1.8262   -0.9281    0.0000 C   0  0  0  0  0  0  0  2  0  0  0  0
   -1.4842   -1.4437    0.0000 C   0  0  0  0  0  0  0  2  0  0  0  0
   -2.1987   -1.0313    0.0000 C   0  0  0  0  0  0  0  2  0  0  0  0
   -2.1987   -0.2063    0.0000 C   0  0  0  0  0  0  0  2  0  0  0  0
   -0.7697   -1.0313    0.0000 C   0  0  0  0  0  0  0  2  0  0  0  0
   -0.7697   -0.2063    0.0000 C   0  0  0  0  0  0  0  2  0  0  0  0
   -0.0553    0.2062    0.0000 C   0  0  0  0  0  0  0  2  0  0  0  0
   -0.0553    1.0312    0.0000 C   0  0  0  0  0  0  0  2  0  0  0  0
    0.6592    1.4437    0.0000 C   0  0  0  0  0  0  0  2  0  0  0  0
    1.3737    1.0312    0.0000 C   0  0  0  0  0  0  0  2  0  0  0  0
    1.3737    0.2062    0.0000 N   0  0  0  0  0  0  0  2  0  0  0  0
    1.7862   -0.5082    0.0000 H   0  0  0  0  0  0  0  2  0  0  0  0
    2.1987    0.2062    0.0000 Cl  0  0  0  0  0  0  0  2  0  0  0  0
    0.6592   -0.2063    0.0000 C   0  0  0  0  0  0  0  2  0  0  0  0
  1  2  1  0        0
  2  3  1  0        0
  3  4  1  0        0
  4  5  1  0        0
  5  6  1  0        0
  6  7  1  0        0
  2  7  1  0        0
  5  8  1  0        0
  8  9  1  0        0
  2  9  1  0        0
  9 10  1  0        0
 10 11  1  0        0
 11 12  1  0        0
 12 13  1  0        0
 13 14  1  0        0
 14 15  1  0        0
 14 16  1  0        0
 14 17  1  0        0
 10 17  1  0        0
M  END
$$$$

CDXL12

 28 29  0  0  0  0  0  0  0  0999 V2000
   -0.3572    0.7697    0.0000 C   0  0  0  0  0  0  0  2  0  0  0  0
    0.3572    1.1822    0.0000 F   0  0  0  0  0  0  0  2  0  0  0  0
   -0.3572    1.5947    0.0000 F   0  0  0  0  0  0  0  2  0  0  0  0
    0.3572    0.3572    0.0000 F   0  0  0  0  0  0  0  2  0  0  0  0
   -1.0717    0.3572    0.0000 C   0  0  0  0  0  0  0  2  0  0  0  0
   -1.7862    0.7697    0.0000 C   0  0  0  0  0  0  0  2  0  0  0  0
   -2.5006    0.3572    0.0000 C   0  0  0  0  0  0  0  2  0  0  0  0
   -3.2151    0.7697    0.0000 C   0  0  0  0  0  0  0  2  0  0  0  0
   -3.9296    0.3572    0.0000 C   0  0  0  0  0  0  0  2  0  0  0  0
   -3.9296   -0.4678    0.0000 C   0  0  0  0  0  0  0  2  0  0  0  0
   -3.2151   -0.8803    0.0000 C   0  0  0  0  0  0  0  2  0  0  0  0
   -2.5006   -0.4678    0.0000 C   0  0  0  0  0  0  0  2  0  0  0  0
   -1.7862   -0.8803    0.0000 S   0  0  0  0  0  0  0  2  0  0  0  0
   -1.3737   -0.1658    0.0000 O   0  0  0  0  0  0  0  2  0  0  0  0
   -2.1987   -1.5947    0.0000 O   0  0  0  0  0  0  0  2  0  0  0  0
   -1.0717   -1.2928    0.0000 N   0  0  0  0  0  0  0  2  0  0  0  0
   -0.3572   -0.8803    0.0000 C   0  0  0  0  0  0  0  2  0  0  0  0
   -0.3572   -0.0553    0.0000 O   0  0  0  0  0  0  0  2  0  0  0  0
    0.3572   -1.2928    0.0000 N   0  0  0  0  0  0  0  2  0  0  0  0
    1.0717   -0.8803    0.0000 C   0  0  0  0  0  0  0  2  0  0  0  0
    1.0717   -0.0553    0.0000 N   0  0  0  0  0  0  0  2  0  0  0  0
    1.7862    0.3572    0.0000 C   0  0  0  0  0  0  0  2  0  0  0  0
    1.7862    1.1822    0.0000 C   0  0  0  0  0  0  0  2  0  0  0  0
    2.5006   -0.0553    0.0000 N   0  0  0  0  0  0  0  2  0  0  0  0
    2.5006   -0.8803    0.0000 C   0  0  0  0  0  0  0  2  0  0  0  0
    3.2151   -1.2928    0.0000 O   0  0  0  0  0  0  0  2  0  0  0  0
    3.9296   -0.8803    0.0000 C   0  0  0  0  0  0  0  2  0  0  0  0
    1.7862   -1.2928    0.0000 N   0  0  0  0  0  0  0  2  0  0  0  0
  1  2  1  0        0
  1  3  1  0        0
  1  4  1  0        0
  1  5  1  0        0
  5  6  1  0        0
  6  7  1  0        0
  7  8  4  0        0
  8  9  4  0        0
  9 10  4  0        0
 10 11  4  0        0
 11 12  4  0        0
  7 12  4  0        0
 12 13  1  0        0
 13 14  2  0        0
 13 15  2  0        0
 13 16  1  0        0
 16 17  1  0        0
 17 18  2  0        0
 17 19  1  0        0
 19 20  1  0        0
 20 21  4  0        0
 21 22  4  0        0
 22 23  1  0        0
 22 24  4  0        0
 24 25  4  0        0
 25 26  1  0        0
 26 27  1  0        0
 25 28  4  0        0
 20 28  4  0        0
M  END
$$$$

CDXL12

 24 25  0  0  0  0  0  0  0  0999 V2000
    1.0717    1.0312    0.0000 C   0  0  0  0  0  0  0  2  0  0  0  0
    1.7862    1.4437    0.0000 C   0  0  0  0  0  0  0  2  0  0  0  0
    2.5006    1.0312    0.0000 C   0  0  0  0  0  0  0  2  0  0  0  0
    2.5006    0.2062    0.0000 C   0  0  0  0  0  0  0  2  0  0  0  0
    1.7862   -0.2063    0.0000 C   0  0  0  0  0  0  0  2  0  0  0  0
    1.0717    0.2062    0.0000 C   0  0  0  0  0  0  0  2  0  0  0  0
    0.3572   -0.2063    0.0000 C   0  0  0  0  0  0  0  2  0  0  0  0
   -0.3572    0.2062    0.0000 S   0  0  0  0  0  0  0  2  0  0  0  0
   -1.0717   -0.2062    0.0000 C   0  0  0  0  0  0  0  2  0  0  0  0
   -1.0717   -1.0313    0.0000 C   0  0  0  0  0  0  0  2  0  0  0  0
   -0.3572   -1.4438    0.0000 Cl  0  0  0  0  0  0  0  2  0  0  0  0
   -1.7862   -1.4437    0.0000 C   0  0  0  0  0  0  0  2  0  0  0  0
   -1.7862   -2.2687    0.0000 O   0  0  0  0  0  0  0  2  0  0  0  0
   -2.5006   -1.0313    0.0000 N   0  0  0  0  0  0  0  2  0  0  0  0
   -3.2151   -1.4437    0.0000 C   0  0  0  0  0  0  0  2  0  0  0  0
   -3.2151   -2.2687    0.0000 C   0  0  0  0  0  0  0  2  0  0  0  0
   -3.9296   -1.8562    0.0000 C   0  0  0  0  0  0  0  2  0  0  0  0
   -3.9296   -1.0313    0.0000 C   0  0  0  0  0  0  0  2  0  0  0  0
   -2.5006   -0.2062    0.0000 N   0  0  0  0  0  0  0  2  0  0  0  0
   -1.7862    0.2062    0.0000 C   0  0  0  0  0  0  0  2  0  0  0  0
    3.2151    1.4437    0.0000 C   0  0  0  0  0  0  0  2  0  0  0  0
    3.2151    2.2687    0.0000 C   0  0  0  0  0  0  0  2  0  0  0  0
    3.9296    1.8562    0.0000 C   0  0  0  0  0  0  0  2  0  0  0  0
    3.9296    1.0312    0.0000 C   0  0  0  0  0  0  0  2  0  0  0  0
  1  2  4  0        0
  2  3  4  0        0
  3  4  4  0        0
  4  5  4  0        0
  5  6  4  0        0
  1  6  4  0        0
  6  7  1  0        0
  7  8  1  0        0
  8  9  1  0        0
  9 10  2  0        0
 10 11  1  0        0
 10 12  1  0        0
 12 13  2  0        0
 12 14  1  0        0
 14 15  1  0        0
 15 16  1  0        0
 15 17  1  0        0
 15 18  1  0        0
 14 19  1  0        0
 19 20  2  0        0
  9 20  1  0        0
  3 21  1  0        0
 21 22  1  0        0
 21 23  1  0        0
 21 24  1  0        0
M  END
$$$$

CDXL12

 14 13  0  0  0  0  0  0  0  0999 V2000
   -2.5006   -1.0312    0.0000 O   0  0  0  0  0  0  0  2  0  0  0  0
   -2.5006   -0.2062    0.0000 N   0  0  0  0  0  0  0  2  0  0  0  0
   -3.2151    0.2062    0.0000 O   0  0  0  0  0  0  0  2  0  0  0  0
   -1.7862    0.2062    0.0000 O   0  0  0  0  0  0  0  2  0  0  0  0
   -1.0717   -0.2062    0.0000 C   0  0  0  0  0  0  0  2  0  0  0  0
   -1.0717   -1.0312    0.0000 C   0  0  0  0  0  0  0  2  0  0  0  0
   -0.3572    0.2063    0.0000 C   0  0  0  0  0  0  0  2  0  0  0  0
    0.3572   -0.2062    0.0000 C   0  0  0  0  0  0  0  2  0  0  0  0
    1.0717    0.2062    0.0000 C   0  0  0  0  0  0  0  2  0  0  0  0
    1.7862   -0.2062    0.0000 O   0  0  0  0  0  0  0  2  0  0  0  0
    2.5006    0.2062    0.0000 N   0  0  0  0  0  0  0  2  0  0  0  0
    2.5006    1.0312    0.0000 O   0  0  0  0  0  0  0  2  0  0  0  0
    3.2151   -0.2062    0.0000 O   0  0  0  0  0  0  0  2  0  0  0  0
    1.0717    1.0312    0.0000 C   0  0  0  0  0  0  0  2  0  0  0  0
  1  2  2  0        0
  2  3  2  0        0
  2  4  1  0        0
  4  5  1  0        0
  5  6  1  0        0
  5  7  1  0        0
  7  8  1  0        0
  8  9  1  0        0
  9 10  1  0        0
 10 11  1  0        0
 11 12  2  0        0
 11 13  2  0        0
  9 14  1  0        0
M  END
$$$$

CDXL12

 27 28  0  0  0  0  0  0  0  0999 V2000
   -0.3572    1.0312    0.0000 C   0  0  0  0  0  0  0  2  0  0  0  0
   -1.0717    0.6187    0.0000 O   0  0  0  0  0  0  0  2  0  0  0  0
   -1.7862    1.0312    0.0000 C   0  0  0  0  0  0  0  2  0  0  0  0
   -1.7862    1.8563    0.0000 O   0  0  0  0  0  0  0  2  0  0  0  0
   -2.5006    0.6187    0.0000 C   0  0  0  0  0  0  0  2  0  0  0  0
   -3.2151    1.0312    0.0000 C   0  0  0  0  0  0  0  2  0  0  0  0
   -3.9296    0.6187    0.0000 C   0  0  0  0  0  0  0  2  0  0  0  0
   -3.9296   -0.2063    0.0000 C   0  0  0  0  0  0  0  2  0  0  0  0
   -3.2151   -0.6188    0.0000 C   0  0  0  0  0  0  0  2  0  0  0  0
   -2.5006   -0.2063    0.0000 C   0  0  0  0  0  0  0  2  0  0  0  0
   -1.7862   -0.6188    0.0000 S   0  0  0  0  0  0  0  2  0  0  0  0
   -1.3737    0.0957    0.0000 O   0  0  0  0  0  0  0  2  0  0  0  0
   -2.1987   -1.3332    0.0000 O   0  0  0  0  0  0  0  2  0  0  0  0
   -1.0717   -1.0313    0.0000 N   0  0  0  0  0  0  0  2  0  0  0  0
   -0.3572   -0.6188    0.0000 C   0  0  0  0  0  0  0  2  0  0  0  0
   -0.3572    0.2062    0.0000 O   0  0  0  0  0  0  0  2  0  0  0  0
    0.3572   -1.0313    0.0000 N   0  0  0  0  0  0  0  2  0  0  0  0
    0.3572   -1.8563    0.0000 C   0  0  0  0  0  0  0  2  0  0  0  0
    1.0717   -0.6188    0.0000 C   0  0  0  0  0  0  0  2  0  0  0  0
    1.7862   -1.0313    0.0000 N   0  0  0  0  0  0  0  2  0  0  0  0
    2.5006   -0.6188    0.0000 C   0  0  0  0  0  0  0  2  0  0  0  0
    3.2151   -1.0313    0.0000 O   0  0  0  0  0  0  0  2  0  0  0  0
    3.9296   -0.6188    0.0000 C   0  0  0  0  0  0  0  2  0  0  0  0
    2.5006    0.2062    0.0000 N   0  0  0  0  0  0  0  2  0  0  0  0
    1.7862    0.6187    0.0000 C   0  0  0  0  0  0  0  2  0  0  0  0
    1.7862    1.4437    0.0000 C   0  0  0  0  0  0  0  2  0  0  0  0
    1.0717    0.2062    0.0000 N   0  0  0  0  0  0  0  2  0  0  0  0
  1  2  1  0        0
  2  3  1  0        0
  3  4  2  0        0
  3  5  1  0        0
  5  6  4  0        0
  6  7  4  0        0
  7  8  4  0        0
  8  9  4  0        0
  9 10  4  0        0
  5 10  4  0        0
 10 11  1  0        0
 11 12  2  0        0
 11 13  2  0        0
 11 14  1  0        0
 14 15  1  0        0
 15 16  2  0        0
 15 17  1  0        0
 17 18  1  0        0
 17 19  1  0        0
 19 20  4  0        0
 20 21  4  0        0
 21 22  1  0        0
 22 23  1  0        0
 21 24  4  0        0
 24 25  4  0        0
 25 26  1  0        0
 25 27  4  0        0
 19 27  4  0        0
M  END
$$$$

CDXL12

 22 23  0  0  0  0  0  0  0  0999 V2000
   -1.0717    1.4438    0.0000 C   0  0  0  0  0  0  0  2  0  0  0  0
   -1.0717    2.2687    0.0000 S   0  0  0  0  0  0  0  2  0  0  0  0
   -0.3572    2.6812    0.0000 C   0  0  0  0  0  0  0  2  0  0  0  0
    0.3572    2.2687    0.0000 C   0  0  0  0  0  0  0  2  0  0  0  0
    0.3572    1.4438    0.0000 C   0  0  0  0  0  0  0  2  0  0  0  0
   -0.3572    1.0313    0.0000 C   0  0  0  0  0  0  0  2  0  0  0  0
   -0.3572    0.2063    0.0000 C   0  0  0  0  0  0  0  2  0  0  0  0
    0.3572   -0.2062    0.0000 C   0  0  0  0  0  0  0  2  0  0  0  0
    0.3572   -1.0313    0.0000 C   0  0  0  0  0  0  0  2  0  0  0  0
    1.0717   -1.4438    0.0000 O   0  0  0  0  0  0  0  2  0  0  0  0
   -0.3572   -1.4438    0.0000 C   0  0  0  0  0  0  0  2  0  0  0  0
   -0.3572   -2.2687    0.0000 C   0  0  0  0  0  0  0  2  0  0  0  0
    0.3572   -2.6812    0.0000 N   0  0  0  0  0  0  0  2  0  0  0  0
    1.0717   -2.2687    0.0000 O   0  0  0  0  0  0  0  2  0  0  0  0
    1.7862   -2.6812    0.0000 C   0  0  0  0  0  0  0  2  0  0  0  0
    2.5006   -2.2687    0.0000 C   0  0  0  0  0  0  0  2  0  0  0  0
   -1.0717   -2.6812    0.0000 C   0  0  0  0  0  0  0  2  0  0  0  0
   -1.7862   -2.2687    0.0000 C   0  0  0  0  0  0  0  2  0  0  0  0
   -2.5006   -2.6812    0.0000 C   0  0  0  0  0  0  0  2  0  0  0  0
   -1.0717   -1.0312    0.0000 C   0  0  0  0  0  0  0  2  0  0  0  0
   -1.7862   -1.4437    0.0000 O   0  0  0  0  0  0  0  2  0  0  0  0
   -1.0717   -0.2062    0.0000 C   0  0  0  0  0  0  0  2  0  0  0  0
  1  2  1  0        0
  2  3  1  0        0
  3  4  1  0        0
  4  5  1  0        0
  5  6  1  0        0
  1  6  1  0        0
  6  7  1  0        0
  7  8  1  0        0
  8  9  1  0        0
  9 10  2  0        0
  9 11  1  0        0
 11 12  1  0        0
 12 13  2  0        0
 13 14  1  0        0
 14 15  1  0        0
 15 16  1  0        0
 12 17  1  0        0
 17 18  1  0        0
 18 19  1  0        0
 11 20  2  0        0
 20 21  1  0        0
 20 22  1  0        0
  7 22  1  0        0
M  END
$$$$

CDXL12

 13 12  0  0  0  0  0  0  0  0999 V2000
    2.1434    0.6187    0.0000 O   0  0  0  0  0  0  0  2  0  0  0  0
    2.1434   -0.2062    0.0000 N   0  0  0  0  0  0  0  2  0  0  0  0
    2.8579   -0.6188    0.0000 O   0  0  0  0  0  0  0  2  0  0  0  0
    1.4289   -0.6188    0.0000 O   0  0  0  0  0  0  0  2  0  0  0  0
    0.7145   -0.2062    0.0000 C   0  0  0  0  0  0  0  2  0  0  0  0
    0.7145    0.6187    0.0000 C   0  0  0  0  0  0  0  2  0  0  0  0
   -0.0000   -0.6188    0.0000 C   0  0  0  0  0  0  0  2  0  0  0  0
   -0.7145   -0.2062    0.0000 C   0  0  0  0  0  0  0  2  0  0  0  0
   -1.4289   -0.6188    0.0000 O   0  0  0  0  0  0  0  2  0  0  0  0
   -2.1434   -0.2062    0.0000 N   0  0  0  0  0  0  0  2  0  0  0  0
   -2.8579   -0.6187    0.0000 O   0  0  0  0  0  0  0  2  0  0  0  0
   -2.1434    0.6188    0.0000 O   0  0  0  0  0  0  0  2  0  0  0  0
   -0.7145    0.6187    0.0000 C   0  0  0  0  0  0  0  2  0  0  0  0
  1  2  2  0        0
  2  3  2  0        0
  2  4  1  0        0
  4  5  1  0        0
  5  6  1  0        0
  5  7  1  0        0
  7  8  1  0        0
  8  9  1  0        0
  9 10  1  0        0
 10 11  2  0        0
 10 12  2  0        0
  8 13  1  0        0
M  END
$$$$

CDXL12

 35 40  0  0  0  0  0  0  0  0999 V2000
   -1.4289    1.4437    0.0000 O   0  0  0  0  0  0  0  2  0  0  0  0
   -2.1434    1.0312    0.0000 C   0  0  0  0  0  0  0  2  0  0  0  0
   -2.8579    1.4437    0.0000 S   0  0  0  0  0  0  0  2  0  0  0  0
   -3.5724    1.0312    0.0000 C   0  0  0  0  0  0  0  2  0  0  0  0
   -4.2868    1.4437    0.0000 C   0  0  0  0  0  0  0  2  0  0  0  0
   -5.0013    1.0312    0.0000 C   0  0  0  0  0  0  0  2  0  0  0  0
   -5.0013    0.2062    0.0000 C   0  0  0  0  0  0  0  2  0  0  0  0
   -4.2868   -0.2063    0.0000 C   0  0  0  0  0  0  0  2  0  0  0  0
   -3.5724    0.2062    0.0000 C   0  0  0  0  0  0  0  2  0  0  0  0
   -2.8579   -0.2062    0.0000 C   0  0  0  0  0  0  0  2  0  0  0  0
   -2.8579   -1.0312    0.0000 O   0  0  0  0  0  0  0  2  0  0  0  0
   -2.1434    0.2063    0.0000 C   0  0  0  0  0  0  0  2  0  0  0  0
   -1.4289   -0.2062    0.0000 C   0  0  0  0  0  0  0  2  0  0  0  0
   -0.7145    0.2063    0.0000 C   0  0  0  0  0  0  0  2  0  0  0  0
    0.0000   -0.2062    0.0000 C   0  0  0  0  0  0  0  2  0  0  0  0
    0.7145    0.2063    0.0000 C   0  0  0  0  0  0  0  2  0  0  0  0
    0.7145    1.0312    0.0000 C   0  0  0  0  0  0  0  2  0  0  0  0
    1.4289    1.4437    0.0000 C   0  0  0  0  0  0  0  2  0  0  0  0
    2.1434    1.0312    0.0000 C   0  0  0  0  0  0  0  2  0  0  0  0
    2.8579    1.4437    0.0000 C   0  0  0  0  0  0  0  2  0  0  0  0
    2.8579    2.2687    0.0000 C   0  0  0  0  0  0  0  2  0  0  0  0
    3.5724    2.6812    0.0000 C   0  0  0  0  0  0  0  2  0  0  0  0
    4.2868    2.2687    0.0000 C   0  0  0  0  0  0  0  2  0  0  0  0
    5.0013    2.6812    0.0000 Br  0  0  0  0  0  0  0  2  0  0  0  0
    4.2868    1.4437    0.0000 C   0  0  0  0  0  0  0  2  0  0  0  0
    3.5724    1.0312    0.0000 C   0  0  0  0  0  0  0  2  0  0  0  0
    2.1434    0.2063    0.0000 C   0  0  0  0  0  0  0  2  0  0  0  0
    1.4289   -0.2062    0.0000 C   0  0  0  0  0  0  0  2  0  0  0  0
    0.0000   -1.0312    0.0000 C   0  0  0  0  0  0  0  2  0  0  0  0
   -0.7145   -1.4437    0.0000 C   0  0  0  0  0  0  0  2  0  0  0  0
   -0.7145   -2.2687    0.0000 C   0  0  0  0  0  0  0  2  0  0  0  0
   -1.4289   -2.6812    0.0000 C   0  0  0  0  0  0  0  2  0  0  0  0
   -2.1434   -2.2687    0.0000 C   0  0  0  0  0  0  0  2  0  0  0  0
   -2.1434   -1.4438    0.0000 C   0  0  0  0  0  0  0  2  0  0  0  0
   -1.4289   -1.0312    0.0000 C   0  0  0  0  0  0  0  2  0  0  0  0
  1  2  2  0        0
  2  3  1  0        0
  3  4  1  0        0
  4  5  4  0        0
  5  6  4  0        0
  6  7  4  0        0
  7  8  4  0        0
  8  9  4  0        0
  4  9  4  0        0
  9 10  1  0        0
 10 11  1  0        0
 10 12  2  0        0
  2 12  1  0        0
 12 13  1  0        0
 13 14  1  0        0
 14 15  1  0        0
 15 16  1  0        0
 16 17  4  0        0
 17 18  4  0        0
 18 19  4  0        0
 19 20  1  0        0
 20 21  4  0        0
 21 22  4  0        0
 22 23  4  0        0
 23 24  1  0        0
 23 25  4  0        0
 25 26  4  0        0
 20 26  4  0        0
 19 27  4  0        0
 27 28  4  0        0
 16 28  4  0        0
 15 29  1  0        0
 29 30  1  0        0
 30 31  4  0        0
 31 32  4  0        0
 32 33  4  0        0
 33 34  4  0        0
 34 35  4  0        0
 13 35  1  0        0
 30 35  4  0        0
M  END
$$$$

CDXL12

 24 25  0  0  0  0  0  0  0  0999 V2000
    1.7862    0.4125    0.0000 N   0  0  0  0  0  0  0  2  0  0  0  0
    2.5006    0.8250    0.0000 C   0  0  0  0  0  0  0  2  0  0  0  0
    3.2151    0.4125    0.0000 C   0  0  0  0  0  0  0  2  0  0  0  0
    3.2151   -0.4125    0.0000 C   0  0  0  0  0  0  0  2  0  0  0  0
    3.9296   -0.8250    0.0000 C   0  0  0  0  0  0  0  2  0  0  0  0
    3.9296   -1.6500    0.0000 O   0  0  0  0  0  0  0  2  0  0  0  0
    4.6441   -0.4125    0.0000 O   0  0  0  0  0  0  0  2  0  0  0  0
    2.5006   -0.8250    0.0000 C   0  0  0  0  0  0  0  2  0  0  0  0
    1.7862   -0.4125    0.0000 C   0  0  0  0  0  0  0  2  0  0  0  0
    1.0717   -0.8250    0.0000 C   0  0  0  0  0  0  0  2  0  0  0  0
    0.3572   -0.4125    0.0000 N   0  0  0  0  0  0  0  2  0  0  0  0
   -0.3572   -0.8250    0.0000 N   0  0  0  0  0  0  0  2  0  0  0  0
   -1.0717   -0.4125    0.0000 C   0  0  0  0  0  0  0  2  0  0  0  0
   -1.0717    0.4125    0.0000 O   0  0  0  0  0  0  0  2  0  0  0  0
   -1.7862   -0.8250    0.0000 N   0  0  0  0  0  0  0  2  0  0  0  0
   -2.5006   -0.4125    0.0000 C   0  0  0  0  0  0  0  2  0  0  0  0
   -2.5006    0.4125    0.0000 C   0  0  0  0  0  0  0  2  0  0  0  0
   -3.2151    0.8250    0.0000 C   0  0  0  0  0  0  0  2  0  0  0  0
   -3.2151    1.6500    0.0000 F   0  0  0  0  0  0  0  2  0  0  0  0
   -3.9296    0.4125    0.0000 C   0  0  0  0  0  0  0  2  0  0  0  0
   -3.9296   -0.4125    0.0000 C   0  0  0  0  0  0  0  2  0  0  0  0
   -4.6441   -0.8250    0.0000 F   0  0  0  0  0  0  0  2  0  0  0  0
   -3.2151   -0.8250    0.0000 C   0  0  0  0  0  0  0  2  0  0  0  0
    1.0717   -1.6500    0.0000 C   0  0  0  0  0  0  0  2  0  0  0  0
  1  2  4  0        0
  2  3  4  0        0
  3  4  4  0        0
  4  5  1  0        0
  5  6  2  0        0
  5  7  1  0        0
  4  8  4  0        0
  8  9  4  0        0
  1  9  4  0        0
  9 10  1  0        0
 10 11  1  0        0
 11 12  1  0        0
 12 13  1  0        0
 13 14  2  0        0
 13 15  1  0        0
 15 16  1  0        0
 16 17  4  0        0
 17 18  4  0        0
 18 19  1  0        0
 18 20  4  0        0
 20 21  4  0        0
 21 22  1  0        0
 21 23  4  0        0
 16 23  4  0        0
 10 24  1  0        0
M  END
$$$$

CDXL12

 17 16  0  0  0  0  0  0  0  0999 V2000
    1.4289    1.0717    0.0000 Br  0  0  0  0  0  0  0  2  0  0  0  0
    1.0164    0.3572    0.0000 C   0  0  0  0  0  0  0  2  0  0  0  0
    1.4289   -0.3572    0.0000 C   0  0  0  0  0  0  0  2  0  0  0  0
    0.7145   -0.7697    0.0000 C   0  0  0  0  0  0  0  2  0  0  0  0
   -0.0000   -0.3572    0.0000 O   0  0  0  0  0  0  0  2  0  0  0  0
   -0.7145   -0.7697    0.0000 C   0  0  0  0  0  0  0  2  0  0  0  0
   -1.4289   -0.3572    0.0000 C   0  0  0  0  0  0  0  2  0  0  0  0
   -1.8414   -1.0717    0.0000 C   0  0  0  0  0  0  0  2  0  0  0  0
   -2.6664   -1.0717    0.0000 Br  0  0  0  0  0  0  0  2  0  0  0  0
   -2.1434    0.0553    0.0000 C   0  0  0  0  0  0  0  2  0  0  0  0
   -2.8579   -0.3572    0.0000 Br  0  0  0  0  0  0  0  2  0  0  0  0
   -1.0164    0.3572    0.0000 C   0  0  0  0  0  0  0  2  0  0  0  0
   -0.1914    0.3572    0.0000 O   0  0  0  0  0  0  0  2  0  0  0  0
    2.1434    0.0553    0.0000 C   0  0  0  0  0  0  0  2  0  0  0  0
    2.8579   -0.3572    0.0000 Br  0  0  0  0  0  0  0  2  0  0  0  0
    1.8414   -1.0717    0.0000 C   0  0  0  0  0  0  0  2  0  0  0  0
    2.6664   -1.0717    0.0000 O   0  0  0  0  0  0  0  2  0  0  0  0
  1  2  1  0        0
  2  3  1  0        0
  3  4  1  0        0
  4  5  1  0        0
  5  6  1  0        0
  6  7  1  0        0
  7  8  1  0        0
  8  9  1  0        0
  7 10  1  0        0
 10 11  1  0        0
  7 12  1  0        0
 12 13  1  0        0
  3 14  1  0        0
 14 15  1  0        0
  3 16  1  0        0
 16 17  1  0        0
M  END
$$$$

CDXL12

 19 18  0  0  0  0  0  0  0  0999 V2000
   -2.8579   -1.2375    0.0000 C   0  0  0  0  0  0  0  2  0  0  0  0
   -2.8579   -0.4125    0.0000 C   0  0  0  0  0  0  0  2  0  0  0  0
   -3.5724    0.0000    0.0000 C   0  0  0  0  0  0  0  2  0  0  0  0
   -2.1434    0.0000    0.0000 N   0  0  0  0  0  0  0  2  0  0  0  0
   -2.1434    0.8250    0.0000 C   0  0  0  0  0  0  0  2  0  0  0  0
   -2.8579    1.2375    0.0000 C   0  0  0  0  0  0  0  2  0  0  0  0
   -1.4289    1.2375    0.0000 C   0  0  0  0  0  0  0  2  0  0  0  0
   -1.4289   -0.4125    0.0000 C   0  0  0  0  0  0  0  2  0  0  0  0
   -0.7145    0.0000    0.0000 C   0  0  0  0  0  0  0  2  0  0  0  0
    0.0000   -0.4125    0.0000 S   0  0  0  0  0  0  0  2  0  0  0  0
    0.7145    0.0000    0.0000 C   0  0  0  0  0  0  0  2  0  0  0  0
    1.4289   -0.4125    0.0000 C   0  0  0  0  0  0  0  2  0  0  0  0
    2.1434    0.0000    0.0000 N   0  0  0  0  0  0  0  2  0  0  0  0
    2.8579   -0.4125    0.0000 C   0  0  0  0  0  0  0  2  0  0  0  0
    3.5724    0.0000    0.0000 C   0  0  0  0  0  0  0  2  0  0  0  0
    2.8579   -1.2375    0.0000 C   0  0  0  0  0  0  0  2  0  0  0  0
    2.1434    0.8250    0.0000 C   0  0  0  0  0  0  0  2  0  0  0  0
    2.8579    1.2375    0.0000 C   0  0  0  0  0  0  0  2  0  0  0  0
    1.4289    1.2375    0.0000 C   0  0  0  0  0  0  0  2  0  0  0  0
  1  2  1  0        0
  2  3  1  0        0
  2  4  1  0        0
  4  5  1  0        0
  5  6  1  0        0
  5  7  1  0        0
  4  8  1  0        0
  8  9  1  0        0
  9 10  1  0        0
 10 11  1  0        0
 11 12  1  0        0
 12 13  1  0        0
 13 14  1  0        0
 14 15  1  0        0
 14 16  1  0        0
 13 17  1  0        0
 17 18  1  0        0
 17 19  1  0        0
M  END
$$$$

CDXL12

 14 13  0  0  0  0  0  0  0  0999 V2000
   -2.1434   -1.6500    0.0000 O   0  0  0  0  0  0  0  2  0  0  0  0
   -2.1434   -0.8250    0.0000 N   0  0  0  0  0  0  0  2  0  0  0  0
   -2.8579   -0.4125    0.0000 O   0  0  0  0  0  0  0  2  0  0  0  0
   -1.4289   -0.4125    0.0000 O   0  0  0  0  0  0  0  2  0  0  0  0
   -0.7145   -0.8250    0.0000 C   0  0  0  0  0  0  0  2  0  0  0  0
    0.0000   -0.4125    0.0000 C   0  0  0  0  0  0  0  2  0  0  0  0
    0.0000    0.4125    0.0000 O   0  0  0  0  0  0  0  2  0  0  0  0
   -0.7145    0.8250    0.0000 N   0  0  0  0  0  0  0  2  0  0  0  0
   -0.7145    1.6500    0.0000 O   0  0  0  0  0  0  0  2  0  0  0  0
   -1.4289    0.4125    0.0000 O   0  0  0  0  0  0  0  2  0  0  0  0
    0.7145   -0.8250    0.0000 C   0  0  0  0  0  0  0  2  0  0  0  0
    1.4289   -0.4125    0.0000 C   0  0  0  0  0  0  0  2  0  0  0  0
    2.1434   -0.8250    0.0000 C   0  0  0  0  0  0  0  2  0  0  0  0
    2.8579   -0.4125    0.0000 C   0  0  0  0  0  0  0  2  0  0  0  0
  1  2  2  0        0
  2  3  2  0        0
  2  4  1  0        0
  4  5  1  0        0
  5  6  1  0        0
  6  7  1  0        0
  7  8  1  0        0
  8  9  2  0        0
  8 10  2  0        0
  6 11  1  0        0
 11 12  1  0        0
 12 13  1  0        0
 13 14  1  0        0
M  END
$$$$

CDXL12

 28 29  0  0  0  0  0  0  0  0999 V2000
   -1.0717    1.8010    0.0000 C   0  0  0  0  0  0  0  2  0  0  0  0
   -1.7862    1.3885    0.0000 N   0  0  0  0  0  0  0  2  0  0  0  0
   -2.5006    1.8010    0.0000 C   0  0  0  0  0  0  0  2  0  0  0  0
   -1.7862    0.5635    0.0000 C   0  0  0  0  0  0  0  2  0  0  0  0
   -1.0717    0.1510    0.0000 O   0  0  0  0  0  0  0  2  0  0  0  0
   -2.5006    0.1510    0.0000 C   0  0  0  0  0  0  0  2  0  0  0  0
   -3.2151    0.5635    0.0000 C   0  0  0  0  0  0  0  2  0  0  0  0
   -3.9296    0.1510    0.0000 C   0  0  0  0  0  0  0  2  0  0  0  0
   -3.9296   -0.6740    0.0000 C   0  0  0  0  0  0  0  2  0  0  0  0
   -3.2151   -1.0865    0.0000 N   0  0  0  0  0  0  0  2  0  0  0  0
   -2.5006   -0.6740    0.0000 C   0  0  0  0  0  0  0  2  0  0  0  0
   -1.7862   -1.0865    0.0000 S   0  0  0  0  0  0  0  2  0  0  0  0
   -1.3737   -0.3720    0.0000 O   0  0  0  0  0  0  0  2  0  0  0  0
   -2.1987   -1.8010    0.0000 O   0  0  0  0  0  0  0  2  0  0  0  0
   -1.0717   -1.4990    0.0000 N   0  0  0  0  0  0  0  2  0  0  0  0
   -0.3572   -1.0865    0.0000 C   0  0  0  0  0  0  0  2  0  0  0  0
   -0.3572   -0.2615    0.0000 O   0  0  0  0  0  0  0  2  0  0  0  0
    0.3572   -1.4990    0.0000 N   0  0  0  0  0  0  0  2  0  0  0  0
    1.0717   -1.0865    0.0000 C   0  0  0  0  0  0  0  2  0  0  0  0
    1.7862   -1.4990    0.0000 N   0  0  0  0  0  0  0  2  0  0  0  0
    2.5006   -1.0865    0.0000 C   0  0  0  0  0  0  0  2  0  0  0  0
    3.2151   -1.4990    0.0000 O   0  0  0  0  0  0  0  2  0  0  0  0
    3.9296   -1.0865    0.0000 C   0  0  0  0  0  0  0  2  0  0  0  0
    2.5006   -0.2615    0.0000 C   0  0  0  0  0  0  0  2  0  0  0  0
    1.7862    0.1510    0.0000 C   0  0  0  0  0  0  0  2  0  0  0  0
    1.7862    0.9760    0.0000 O   0  0  0  0  0  0  0  2  0  0  0  0
    2.5006    1.3885    0.0000 C   0  0  0  0  0  0  0  2  0  0  0  0
    1.0717   -0.2615    0.0000 N   0  0  0  0  0  0  0  2  0  0  0  0
  1  2  1  0        0
  2  3  1  0        0
  2  4  1  0        0
  4  5  2  0        0
  4  6  1  0        0
  6  7  4  0        0
  7  8  4  0        0
  8  9  4  0        0
  9 10  4  0        0
 10 11  4  0        0
  6 11  4  0        0
 11 12  1  0        0
 12 13  2  0        0
 12 14  2  0        0
 12 15  1  0        0
 15 16  1  0        0
 16 17  2  0        0
 16 18  1  0        0
 18 19  1  0        0
 19 20  4  0        0
 20 21  4  0        0
 21 22  1  0        0
 22 23  1  0        0
 21 24  4  0        0
 24 25  4  0        0
 25 26  1  0        0
 26 27  1  0        0
 25 28  4  0        0
 19 28  4  0        0
M  END
$$$$

CDXL12

 20 22  0  0  0  0  0  0  0  0999 V2000
   -0.4741    0.2062    0.0000 C   0  0  0  0  0  0  0  2  0  0  0  0
   -0.4741    1.0313    0.0000 C   0  0  0  0  0  0  0  2  0  0  0  0
    0.2404    1.4438    0.0000 C   0  0  0  0  0  0  0  2  0  0  0  0
    0.2404    2.2687    0.0000 Cl  0  0  0  0  0  0  0  2  0  0  0  0
    0.9548    1.0312    0.0000 C   0  0  0  0  0  0  0  2  0  0  0  0
    0.9548    0.2062    0.0000 C   0  0  0  0  0  0  0  2  0  0  0  0
    0.2404   -0.2062    0.0000 C   0  0  0  0  0  0  0  2  0  0  0  0
    0.2404   -1.0313    0.0000 C   0  0  0  0  0  0  0  2  0  0  0  0
    0.2404   -1.8563    0.0000 O   0  0  0  0  0  0  0  2  0  0  0  0
    0.9548   -1.4438    0.0000 C   0  0  0  0  0  0  0  2  0  0  0  0
    0.9548   -2.2687    0.0000 C   0  0  0  0  0  0  0  2  0  0  0  0
    1.6693   -1.0313    0.0000 C   0  0  0  0  0  0  0  2  0  0  0  0
    2.0818   -0.3168    0.0000 C   0  0  0  0  0  0  0  2  0  0  0  0
    2.4943   -1.0313    0.0000 C   0  0  0  0  0  0  0  2  0  0  0  0
   -0.4741   -1.4438    0.0000 C   0  0  0  0  0  0  0  2  0  0  0  0
   -1.1886   -1.0313    0.0000 N   0  0  0  0  0  0  0  2  0  0  0  0
   -1.9423   -1.3668    0.0000 N   0  0  0  0  0  0  0  2  0  0  0  0
   -2.4943   -0.7537    0.0000 C   0  0  0  0  0  0  0  2  0  0  0  0
   -2.0818   -0.0392    0.0000 N   0  0  0  0  0  0  0  2  0  0  0  0
   -1.2748   -0.2108    0.0000 C   0  0  0  0  0  0  0  2  0  0  0  0
  1  2  4  0        0
  2  3  4  0        0
  3  4  1  0        0
  3  5  4  0        0
  5  6  4  0        0
  6  7  4  0        0
  1  7  4  0        0
  7  8  1  0        0
  8  9  1  0        0
  8 10  1  0        0
 10 11  1  0        0
 10 12  1  0        0
 12 13  1  0        0
 13 14  1  0        0
 12 14  1  0        0
  8 15  1  0        0
 15 16  1  0        0
 16 17  4  0        0
 17 18  4  0        0
 18 19  4  0        0
 19 20  4  0        0
 16 20  4  0        0
M  END
$$$$

CDXL12

 23 25  0  0  0  0  0  0  0  0999 V2000
   -0.3572    1.8563    0.0000 N   0  0  0  0  0  0  0  2  0  0  0  0
   -0.3572    2.6812    0.0000 C   0  0  0  0  0  0  0  2  0  0  0  0
   -1.0717    3.0938    0.0000 N   0  0  0  0  0  0  0  2  0  0  0  0
   -1.7862    2.6812    0.0000 C   0  0  0  0  0  0  0  2  0  0  0  0
   -2.5006    3.0937    0.0000 C   0  0  0  0  0  0  0  2  0  0  0  0
   -3.2151    2.6812    0.0000 C   0  0  0  0  0  0  0  2  0  0  0  0
   -3.2151    1.8563    0.0000 C   0  0  0  0  0  0  0  2  0  0  0  0
   -2.5006    1.4438    0.0000 C   0  0  0  0  0  0  0  2  0  0  0  0
   -1.7862    1.8563    0.0000 C   0  0  0  0  0  0  0  2  0  0  0  0
   -1.0717    1.4438    0.0000 C   0  0  0  0  0  0  0  2  0  0  0  0
   -1.0717    0.6188    0.0000 O   0  0  0  0  0  0  0  2  0  0  0  0
   -0.3572    0.2063    0.0000 C   0  0  0  0  0  0  0  2  0  0  0  0
   -0.3572   -0.6188    0.0000 C   0  0  0  0  0  0  0  2  0  0  0  0
    0.3572   -1.0313    0.0000 C   0  0  0  0  0  0  0  2  0  0  0  0
    1.0717   -0.6188    0.0000 C   0  0  0  0  0  0  0  2  0  0  0  0
    1.7862   -1.0313    0.0000 C   0  0  0  0  0  0  0  2  0  0  0  0
    1.7862   -1.8563    0.0000 C   0  0  0  0  0  0  0  2  0  0  0  0
    2.5006   -2.2687    0.0000 C   0  0  0  0  0  0  0  2  0  0  0  0
    3.2151   -2.6812    0.0000 C   0  0  0  0  0  0  0  2  0  0  0  0
    2.5006   -3.0938    0.0000 C   0  0  0  0  0  0  0  2  0  0  0  0
    3.2151   -1.8563    0.0000 C   0  0  0  0  0  0  0  2  0  0  0  0
    1.0717   -2.2687    0.0000 C   0  0  0  0  0  0  0  2  0  0  0  0
    0.3572   -1.8563    0.0000 C   0  0  0  0  0  0  0  2  0  0  0  0
  1  2  4  0        0
  2  3  4  0        0
  3  4  4  0        0
  4  5  4  0        0
  5  6  4  0        0
  6  7  4  0        0
  7  8  4  0        0
  8  9  4  0        0
  4  9  4  0        0
  9 10  4  0        0
  1 10  4  0        0
 10 11  1  0        0
 11 12  1  0        0
 12 13  1  0        0
 13 14  1  0        0
 14 15  4  0        0
 15 16  4  0        0
 16 17  4  0        0
 17 18  1  0        0
 18 19  1  0        0
 18 20  1  0        0
 18 21  1  0        0
 17 22  4  0        0
 22 23  4  0        0
 14 23  4  0        0
M  END
$$$$

CDXL12

 16 15  0  0  0  0  0  0  0  0999 V2000
   -2.8579   -1.6500    0.0000 O   0  0  0  0  0  0  0  2  0  0  0  0
   -2.8579   -0.8250    0.0000 N   0  0  0  0  0  0  0  2  0  0  0  0
   -3.5724   -0.4125    0.0000 O   0  0  0  0  0  0  0  2  0  0  0  0
   -2.1434   -0.4125    0.0000 O   0  0  0  0  0  0  0  2  0  0  0  0
   -1.4289   -0.8250    0.0000 C   0  0  0  0  0  0  0  2  0  0  0  0
   -0.7145   -0.4125    0.0000 C   0  0  0  0  0  0  0  2  0  0  0  0
   -0.7145    0.4125    0.0000 O   0  0  0  0  0  0  0  2  0  0  0  0
   -1.4289    0.8250    0.0000 N   0  0  0  0  0  0  0  2  0  0  0  0
   -1.4289    1.6500    0.0000 O   0  0  0  0  0  0  0  2  0  0  0  0
   -2.1434    0.4125    0.0000 O   0  0  0  0  0  0  0  2  0  0  0  0
    0.0000   -0.8250    0.0000 C   0  0  0  0  0  0  0  2  0  0  0  0
    0.7145   -0.4125    0.0000 C   0  0  0  0  0  0  0  2  0  0  0  0
    1.4289   -0.8250    0.0000 C   0  0  0  0  0  0  0  2  0  0  0  0
    2.1434   -0.4125    0.0000 C   0  0  0  0  0  0  0  2  0  0  0  0
    2.8579   -0.8250    0.0000 C   0  0  0  0  0  0  0  2  0  0  0  0
    3.5724   -0.4125    0.0000 C   0  0  0  0  0  0  0  2  0  0  0  0
  1  2  2  0        0
  2  3  2  0        0
  2  4  1  0        0
  4  5  1  0        0
  5  6  1  0        0
  6  7  1  0        0
  7  8  1  0        0
  8  9  2  0        0
  8 10  2  0        0
  6 11  1  0        0
 11 12  1  0        0
 12 13  1  0        0
 13 14  1  0        0
 14 15  1  0        0
 15 16  1  0        0
M  END
$$$$

CDXL12

 28 29  0  0  0  0  0  0  0  0999 V2000
   -0.2501    0.9487    0.0000 C   0  0  0  0  0  0  0  2  0  0  0  0
   -0.9645    1.3613    0.0000 C   0  0  0  0  0  0  0  2  0  0  0  0
   -1.6790    0.9487    0.0000 S   0  0  0  0  0  0  0  2  0  0  0  0
   -1.2665    0.2343    0.0000 O   0  0  0  0  0  0  0  2  0  0  0  0
   -2.0915    1.6632    0.0000 O   0  0  0  0  0  0  0  2  0  0  0  0
   -2.6078    0.4125    0.0000 C   0  0  0  0  0  0  0  2  0  0  0  0
   -3.3223    0.8250    0.0000 C   0  0  0  0  0  0  0  2  0  0  0  0
   -4.0368    0.4125    0.0000 C   0  0  0  0  0  0  0  2  0  0  0  0
   -4.0368   -0.4125    0.0000 C   0  0  0  0  0  0  0  2  0  0  0  0
   -3.3223   -0.8250    0.0000 N   0  0  0  0  0  0  0  2  0  0  0  0
   -2.6078   -0.4125    0.0000 C   0  0  0  0  0  0  0  2  0  0  0  0
   -1.6790   -0.9488    0.0000 S   0  0  0  0  0  0  0  2  0  0  0  0
   -1.2665   -0.2343    0.0000 O   0  0  0  0  0  0  0  2  0  0  0  0
   -2.0915   -1.6632    0.0000 O   0  0  0  0  0  0  0  2  0  0  0  0
   -0.9645   -1.3613    0.0000 N   0  0  0  0  0  0  0  2  0  0  0  0
   -0.2501   -0.9487    0.0000 C   0  0  0  0  0  0  0  2  0  0  0  0
   -0.2501   -0.1238    0.0000 O   0  0  0  0  0  0  0  2  0  0  0  0
    0.4644   -1.3613    0.0000 N   0  0  0  0  0  0  0  2  0  0  0  0
    1.1789   -0.9488    0.0000 C   0  0  0  0  0  0  0  2  0  0  0  0
    1.8933   -1.3613    0.0000 N   0  0  0  0  0  0  0  2  0  0  0  0
    2.6078   -0.9488    0.0000 C   0  0  0  0  0  0  0  2  0  0  0  0
    3.3223   -1.3613    0.0000 O   0  0  0  0  0  0  0  2  0  0  0  0
    4.0368   -0.9488    0.0000 C   0  0  0  0  0  0  0  2  0  0  0  0
    2.6078   -0.1238    0.0000 C   0  0  0  0  0  0  0  2  0  0  0  0
    1.8933    0.2887    0.0000 C   0  0  0  0  0  0  0  2  0  0  0  0
    1.8933    1.1137    0.0000 O   0  0  0  0  0  0  0  2  0  0  0  0
    2.6078    1.5262    0.0000 C   0  0  0  0  0  0  0  2  0  0  0  0
    1.1789   -0.1238    0.0000 N   0  0  0  0  0  0  0  2  0  0  0  0
  1  2  1  0        0
  2  3  1  0        0
  3  4  2  0        0
  3  5  2  0        0
  3  6  1  0        0
  6  7  4  0        0
  7  8  4  0        0
  8  9  4  0        0
  9 10  4  0        0
 10 11  4  0        0
  6 11  4  0        0
 11 12  1  0        0
 12 13  2  0        0
 12 14  2  0        0
 12 15  1  0        0
 15 16  1  0        0
 16 17  2  0        0
 16 18  1  0        0
 18 19  1  0        0
 19 20  4  0        0
 20 21  4  0        0
 21 22  1  0        0
 22 23  1  0        0
 21 24  4  0        0
 24 25  4  0        0
 25 26  1  0        0
 26 27  1  0        0
 25 28  4  0        0
 19 28  4  0        0
M  END
$$$$

CDXL12

 24 25  0  0  0  0  0  0  0  0999 V2000
   -2.1434    0.4125    0.0000 F   0  0  0  0  0  0  0  2  0  0  0  0
   -2.8579   -0.0000    0.0000 C   0  0  0  0  0  0  0  2  0  0  0  0
   -3.5724    0.4125    0.0000 C   0  0  0  0  0  0  0  2  0  0  0  0
   -4.2868   -0.0000    0.0000 C   0  0  0  0  0  0  0  2  0  0  0  0
   -5.0013    0.4125    0.0000 Cl  0  0  0  0  0  0  0  2  0  0  0  0
   -4.2868   -0.8250    0.0000 C   0  0  0  0  0  0  0  2  0  0  0  0
   -3.5724   -1.2375    0.0000 N   0  0  0  0  0  0  0  2  0  0  0  0
   -2.8579   -0.8250    0.0000 C   0  0  0  0  0  0  0  2  0  0  0  0
   -2.1434   -1.2375    0.0000 O   0  0  0  0  0  0  0  2  0  0  0  0
   -1.4289   -0.8250    0.0000 C   0  0  0  0  0  0  0  2  0  0  0  0
   -1.4289   -0.0000    0.0000 C   0  0  0  0  0  0  0  2  0  0  0  0
   -0.7145    0.4125    0.0000 C   0  0  0  0  0  0  0  2  0  0  0  0
    0.0000   -0.0000    0.0000 C   0  0  0  0  0  0  0  2  0  0  0  0
    0.0000   -0.8250    0.0000 C   0  0  0  0  0  0  0  2  0  0  0  0
   -0.7145   -1.2375    0.0000 C   0  0  0  0  0  0  0  2  0  0  0  0
    0.7145    0.4125    0.0000 O   0  0  0  0  0  0  0  2  0  0  0  0
    1.4289   -0.0000    0.0000 C   0  0  0  0  0  0  0  2  0  0  0  0
    1.4289   -0.8250    0.0000 C   0  0  0  0  0  0  0  2  0  0  0  0
    2.1434    0.4125    0.0000 C   0  0  0  0  0  0  0  2  0  0  0  0
    2.1434    1.2375    0.0000 O   0  0  0  0  0  0  0  2  0  0  0  0
    2.8579   -0.0000    0.0000 O   0  0  0  0  0  0  0  2  0  0  0  0
    3.5724    0.4125    0.0000 C   0  0  0  0  0  0  0  2  0  0  0  0
    4.2868   -0.0000    0.0000 C   0  0  0  0  0  0  0  2  0  0  0  0
    5.0013   -0.4125    0.0000 C   0  0  0  0  0  0  0  2  0  0  0  0
  1  2  1  0        0
  2  3  4  0        0
  3  4  4  0        0
  4  5  1  0        0
  4  6  4  0        0
  6  7  4  0        0
  7  8  4  0        0
  2  8  4  0        0
  8  9  1  0        0
  9 10  1  0        0
 10 11  4  0        0
 11 12  4  0        0
 12 13  4  0        0
 13 14  4  0        0
 14 15  4  0        0
 10 15  4  0        0
 13 16  1  0        0
 16 17  1  0        0
 17 18  1  0        0
 17 19  1  0        0
 19 20  2  0        0
 19 21  1  0        0
 21 22  1  0        0
 22 23  1  0        0
 23 24  3  0        0
M  END
$$$$

CDXL12

 19 20  0  0  0  0  0  0  0  0999 V2000
    1.4289    1.4437    0.0000 C   0  0  0  0  0  0  0  2  0  0  0  0
    2.1434    1.8562    0.0000 C   0  0  0  0  0  0  0  2  0  0  0  0
    2.8579    1.4437    0.0000 C   0  0  0  0  0  0  0  2  0  0  0  0
    2.8579    0.6187    0.0000 C   0  0  0  0  0  0  0  2  0  0  0  0
    2.1434    0.2062    0.0000 C   0  0  0  0  0  0  0  2  0  0  0  0
    1.4289    0.6187    0.0000 C   0  0  0  0  0  0  0  2  0  0  0  0
    1.4289   -0.2063    0.0000 C   0  0  0  0  0  0  0  2  0  0  0  0
    0.7145    0.2062    0.0000 C   0  0  0  0  0  0  0  2  0  0  0  0
    0.7145   -0.6188    0.0000 O   0  0  0  0  0  0  0  2  0  0  0  0
   -0.0000    0.6188    0.0000 N   0  0  0  0  0  0  0  2  0  0  0  0
   -0.7145    0.2062    0.0000 C   0  0  0  0  0  0  0  2  0  0  0  0
   -0.7145   -0.6188    0.0000 C   0  0  0  0  0  0  0  2  0  0  0  0
   -0.0000   -1.0313    0.0000 Cl  0  0  0  0  0  0  0  2  0  0  0  0
   -1.4289   -1.0312    0.0000 C   0  0  0  0  0  0  0  2  0  0  0  0
   -2.1434   -0.6188    0.0000 C   0  0  0  0  0  0  0  2  0  0  0  0
   -2.8579   -1.0312    0.0000 O   0  0  0  0  0  0  0  2  0  0  0  0
   -2.1434    0.2062    0.0000 C   0  0  0  0  0  0  0  2  0  0  0  0
   -1.4289    0.6188    0.0000 C   0  0  0  0  0  0  0  2  0  0  0  0
   -1.4289   -1.8562    0.0000 Cl  0  0  0  0  0  0  0  2  0  0  0  0
  1  2  1  0        0
  2  3  1  0        0
  3  4  1  0        0
  4  5  1  0        0
  5  6  1  0        0
  1  6  1  0        0
  6  7  1  0        0
  6  8  1  0        0
  8  9  2  0        0
  8 10  1  0        0
 10 11  1  0        0
 11 12  4  0        0
 12 13  1  0        0
 12 14  4  0        0
 14 15  4  0        0
 15 16  1  0        0
 15 17  4  0        0
 17 18  4  0        0
 11 18  4  0        0
 14 19  1  0        0
M  END
$$$$

CDXL12

 26 27  0  0  0  0  0  0  0  0999 V2000
   -1.9958    0.7726    0.0000 N   0  0  0  0  0  0  0  2  0  0  0  0
   -2.8028    0.9442    0.0000 C   0  0  0  0  0  0  0  2  0  0  0  0
   -3.1383    1.6978    0.0000 C   0  0  0  0  0  0  0  2  0  0  0  0
   -3.2153    0.2297    0.0000 N   0  0  0  0  0  0  0  2  0  0  0  0
   -4.0358    0.1435    0.0000 C   0  0  0  0  0  0  0  2  0  0  0  0
   -4.3713   -0.6102    0.0000 F   0  0  0  0  0  0  0  2  0  0  0  0
   -4.5207    0.8109    0.0000 F   0  0  0  0  0  0  0  2  0  0  0  0
   -2.6632   -0.3834    0.0000 C   0  0  0  0  0  0  0  2  0  0  0  0
   -2.8348   -1.1904    0.0000 O   0  0  0  0  0  0  0  2  0  0  0  0
   -1.9096   -0.0478    0.0000 N   0  0  0  0  0  0  0  2  0  0  0  0
   -1.1951   -0.4603    0.0000 C   0  0  0  0  0  0  0  2  0  0  0  0
   -1.1951   -1.2853    0.0000 C   0  0  0  0  0  0  0  2  0  0  0  0
   -1.9096   -1.6978    0.0000 F   0  0  0  0  0  0  0  2  0  0  0  0
   -0.4806   -1.6978    0.0000 C   0  0  0  0  0  0  0  2  0  0  0  0
    0.2338   -1.2853    0.0000 C   0  0  0  0  0  0  0  2  0  0  0  0
    0.9483   -1.6978    0.0000 Cl  0  0  0  0  0  0  0  2  0  0  0  0
    0.2338   -0.4603    0.0000 C   0  0  0  0  0  0  0  2  0  0  0  0
    0.9483   -0.0478    0.0000 C   0  0  0  0  0  0  0  2  0  0  0  0
    1.6628   -0.4603    0.0000 C   0  0  0  0  0  0  0  2  0  0  0  0
    1.6628   -1.2853    0.0000 Cl  0  0  0  0  0  0  0  2  0  0  0  0
    2.3773   -0.0478    0.0000 C   0  0  0  0  0  0  0  2  0  0  0  0
    2.3773    0.7772    0.0000 O   0  0  0  0  0  0  0  2  0  0  0  0
    3.0917   -0.4603    0.0000 O   0  0  0  0  0  0  0  2  0  0  0  0
    3.8062   -0.0478    0.0000 C   0  0  0  0  0  0  0  2  0  0  0  0
    4.5207   -0.4603    0.0000 C   0  0  0  0  0  0  0  2  0  0  0  0
   -0.4806   -0.0478    0.0000 C   0  0  0  0  0  0  0  2  0  0  0  0
  1  2  2  0        0
  2  3  1  0        0
  2  4  1  0        0
  4  5  1  0        0
  5  6  1  0        0
  5  7  1  0        0
  4  8  1  0        0
  8  9  2  0        0
  8 10  1  0        0
  1 10  1  0        0
 10 11  1  0        0
 11 12  4  0        0
 12 13  1  0        0
 12 14  4  0        0
 14 15  4  0        0
 15 16  1  0        0
 15 17  4  0        0
 17 18  1  0        0
 18 19  1  0        0
 19 20  1  0        0
 19 21  1  0        0
 21 22  2  0        0
 21 23  1  0        0
 23 24  1  0        0
 24 25  1  0        0
 17 26  4  0        0
 11 26  4  0        0
M  END
$$$$

CDXL12

 14 14  0  0  0  0  0  0  0  0999 V2000
   -0.7145    0.4125    0.0000 C   0  0  0  0  0  0  0  2  0  0  0  0
    0.0000    0.8250    0.0000 C   0  0  0  0  0  0  0  2  0  0  0  0
    0.7145    0.4125    0.0000 C   0  0  0  0  0  0  0  2  0  0  0  0
    0.7145   -0.4125    0.0000 C   0  0  0  0  0  0  0  2  0  0  0  0
    1.4289   -0.8250    0.0000 O   0  0  0  0  0  0  0  2  0  0  0  0
    2.1434   -0.4125    0.0000 N   0  0  0  0  0  0  0  2  0  0  0  0
    2.1434    0.4125    0.0000 O   0  0  0  0  0  0  0  2  0  0  0  0
    2.8579   -0.8250    0.0000 O   0  0  0  0  0  0  0  2  0  0  0  0
    0.0000   -0.8250    0.0000 C   0  0  0  0  0  0  0  2  0  0  0  0
   -0.7145   -0.4125    0.0000 C   0  0  0  0  0  0  0  2  0  0  0  0
   -1.4289   -0.8250    0.0000 O   0  0  0  0  0  0  0  2  0  0  0  0
   -2.1434   -0.4125    0.0000 N   0  0  0  0  0  0  0  2  0  0  0  0
   -2.1434    0.4125    0.0000 O   0  0  0  0  0  0  0  2  0  0  0  0
   -2.8579   -0.8250    0.0000 O   0  0  0  0  0  0  0  2  0  0  0  0
  1  2  1  0        0
  2  3  1  0        0
  3  4  1  0        0
  4  5  1  0        0
  5  6  1  0        0
  6  7  2  0        0
  6  8  2  0        0
  4  9  1  0        0
  9 10  1  0        0
  1 10  1  0        0
 10 11  1  0        0
 11 12  1  0        0
 12 13  2  0        0
 12 14  2  0        0
M  END
$$$$

CDXL12

 13 13  0  0  0  0  0  0  0  0999 V2000
    3.2151   -1.0313    0.0000 C   0  0  0  0  0  0  0  2  0  0  0  0
    2.5006   -0.6188    0.0000 C   0  0  0  0  0  0  0  2  0  0  0  0
    1.7862   -0.2063    0.0000 C   0  0  0  0  0  0  0  2  0  0  0  0
    1.0717   -0.6188    0.0000 O   0  0  0  0  0  0  0  2  0  0  0  0
    0.3572   -0.2062    0.0000 C   0  0  0  0  0  0  0  2  0  0  0  0
   -0.3572   -0.6188    0.0000 O   0  0  0  0  0  0  0  2  0  0  0  0
   -1.0717   -0.2063    0.0000 C   0  0  0  0  0  0  0  2  0  0  0  0
   -1.7862   -0.6188    0.0000 C   0  0  0  0  0  0  0  2  0  0  0  0
   -2.5006   -0.2062    0.0000 C   0  0  0  0  0  0  0  2  0  0  0  0
   -2.5006    0.6188    0.0000 C   0  0  0  0  0  0  0  2  0  0  0  0
   -3.2151    1.0313    0.0000 Cl  0  0  0  0  0  0  0  2  0  0  0  0
   -1.7862    1.0313    0.0000 C   0  0  0  0  0  0  0  2  0  0  0  0
   -1.0717    0.6188    0.0000 C   0  0  0  0  0  0  0  2  0  0  0  0
  1  2  3  0        0
  2  3  1  0        0
  3  4  1  0        0
  4  5  1  0        0
  5  6  1  0        0
  6  7  1  0        0
  7  8  4  0        0
  8  9  4  0        0
  9 10  4  0        0
 10 11  1  0        0
 10 12  4  0        0
 12 13  4  0        0
  7 13  4  0        0
M  END
$$$$

CDXL12

 40 42  0  0  0  0  0  0  0  0999 V2000
    4.5464    0.0236    0.0000 O   0  0  0  0  0  0  0  2  0  0  0  0
    4.5464    0.8486    0.0000 P   0  0  0  0  0  0  0  2  0  0  0  0
    4.5464    1.6736    0.0000 O   0  0  0  0  0  0  0  2  0  0  0  0
    5.2609    0.4361    0.0000 O   0  0  0  0  0  0  0  2  0  0  0  0
    5.9753    0.8486    0.0000 Na  0  0  0  0  0  0  0  2  0  0  0  0
    3.8319    0.4361    0.0000 C   0  0  0  0  0  0  0  2  0  0  0  0
    3.4194   -0.2783    0.0000 Br  0  0  0  0  0  0  0  2  0  0  0  0
    4.2444   -0.2783    0.0000 Br  0  0  0  0  0  0  0  2  0  0  0  0
    3.1175    0.8486    0.0000 P   0  0  0  0  0  0  0  2  0  0  0  0
    3.1175    1.6736    0.0000 O   0  0  0  0  0  0  0  2  0  0  0  0
    3.1175    0.0236    0.0000 O   0  0  0  0  0  0  0  2  0  0  0  0
    2.4030   -0.3889    0.0000 Na  0  0  0  0  0  0  0  2  0  0  0  0
    2.4030    0.4361    0.0000 O   0  0  0  0  0  0  0  2  0  0  0  0
    1.6885    0.8486    0.0000 P   0  0  0  0  0  0  0  2  0  0  0  0
    1.6885    1.6736    0.0000 O   0  0  0  0  0  0  0  2  0  0  0  0
    1.6885    0.0236    0.0000 O   0  0  0  0  0  0  0  2  0  0  0  0
    0.9740   -0.3889    0.0000 Na  0  0  0  0  0  0  0  2  0  0  0  0
    0.9740    0.4361    0.0000 O   0  0  0  0  0  0  0  2  0  0  0  0
    0.2596    0.8486    0.0000 C   0  0  0  0  0  0  0  2  0  0  0  0
   -0.4549    0.4361    0.0000 C   0  0  0  0  0  0  0  2  0  0  0  0
   -0.5411   -0.3843    0.0000 C   0  0  0  0  0  0  0  2  0  0  0  0
    0.0720   -0.9364    0.0000 O   0  0  0  0  0  0  0  2  0  0  0  0
   -1.3481   -0.5559    0.0000 C   0  0  0  0  0  0  0  2  0  0  0  0
   -1.6837   -1.3095    0.0000 O   0  0  0  0  0  0  0  2  0  0  0  0
   -1.7606    0.1586    0.0000 C   0  0  0  0  0  0  0  2  0  0  0  0
   -2.5811    0.2448    0.0000 N   0  0  0  0  0  0  0  2  0  0  0  0
   -2.9936    0.9593    0.0000 C   0  0  0  0  0  0  0  2  0  0  0  0
   -3.8006    0.7878    0.0000 N   0  0  0  0  0  0  0  2  0  0  0  0
   -3.8868   -0.0327    0.0000 C   0  0  0  0  0  0  0  2  0  0  0  0
   -4.5542   -0.5176    0.0000 C   0  0  0  0  0  0  0  2  0  0  0  0
   -5.3079   -0.1821    0.0000 N   0  0  0  0  0  0  0  2  0  0  0  0
   -5.9753   -0.6670    0.0000 C   0  0  0  0  0  0  0  2  0  0  0  0
   -5.8891   -1.4875    0.0000 C   0  0  0  0  0  0  0  2  0  0  0  0
   -5.3941    0.6384    0.0000 C   0  0  0  0  0  0  0  2  0  0  0  0
   -4.7267    1.1233    0.0000 C   0  0  0  0  0  0  0  2  0  0  0  0
   -4.4680   -1.3381    0.0000 N   0  0  0  0  0  0  0  2  0  0  0  0
   -3.7143   -1.6736    0.0000 C   0  0  0  0  0  0  0  2  0  0  0  0
   -3.0469   -1.1887    0.0000 N   0  0  0  0  0  0  0  2  0  0  0  0
   -3.1331   -0.3682    0.0000 C   0  0  0  0  0  0  0  2  0  0  0  0
   -1.2086    0.7717    0.0000 O   0  0  0  0  0  0  0  2  0  0  0  0
  1  2  1  0        0
  2  3  2  0        0
  2  4  1  0        0
  4  5  1  0        0
  2  6  1  0        0
  6  7  1  0        0
  6  8  1  0        0
  6  9  1  0        0
  9 10  2  0        0
  9 11  1  0        0
 11 12  1  0        0
  9 13  1  0        0
 13 14  1  0        0
 14 15  2  0        0
 14 16  1  0        0
 16 17  1  0        0
 14 18  1  0        0
 18 19  1  0        0
 19 20  1  0        0
 20 21  1  0        0
 21 22  1  0        0
 21 23  1  0        0
 23 24  1  0        0
 23 25  1  0        0
 25 26  1  0        0
 26 27  4  0        0
 27 28  4  0        0
 28 29  4  0        0
 29 30  4  0        0
 30 31  1  0        0
 31 32  1  0        0
 32 33  1  0        0
 31 34  1  0        0
 34 35  1  0        0
 30 36  4  0        0
 36 37  4  0        0
 37 38  4  0        0
 38 39  4  0        0
 26 39  4  0        0
 29 39  4  0        0
 25 40  1  0        0
 20 40  1  0        0
M  END
$$$$

CDXL12

 40 41  0  0  0  0  0  0  0  0999 V2000
   -6.7875   -1.0313    0.0000 C   0  0  0  0  0  0  0  2  0  0  0  0
   -7.5019   -1.4438    0.0000 N   0  0  0  0  0  0  0  2  0  0  0  0
   -8.2164   -1.0312    0.0000 C   0  0  0  0  0  0  0  2  0  0  0  0
   -8.2164   -0.2062    0.0000 C   0  0  0  0  0  0  0  2  0  0  0  0
   -7.5019    0.2062    0.0000 C   0  0  0  0  0  0  0  2  0  0  0  0
   -6.7875   -0.2062    0.0000 C   0  0  0  0  0  0  0  2  0  0  0  0
   -6.0730    0.2062    0.0000 C   0  0  0  0  0  0  0  2  0  0  0  0
   -5.3585   -0.2062    0.0000 C   0  0  0  0  0  0  0  2  0  0  0  0
   -4.6441    0.2062    0.0000 C   0  0  0  0  0  0  0  2  0  0  0  0
   -3.9296   -0.2062    0.0000 C   0  0  0  0  0  0  0  2  0  0  0  0
   -3.2151    0.2062    0.0000 N   0  0  0  0  0  0  0  2  0  0  0  0
   -2.8026    0.9207    0.0000 H   0  0  0  0  0  0  0  2  0  0  0  0
   -3.6276    0.9207    0.0000 C   0  0  0  0  0  0  0  2  0  0  0  0
   -2.5006   -0.2062    0.0000 O   0  0  0  0  0  0  0  2  0  0  0  0
   -1.7862    0.2062    0.0000 C   0  0  0  0  0  0  0  2  0  0  0  0
   -1.7862    1.0312    0.0000 O   0  0  0  0  0  0  0  2  0  0  0  0
   -1.0717   -0.2062    0.0000 C   0  0  0  0  0  0  0  2  0  0  0  0
   -1.0717   -1.0313    0.0000 O   0  0  0  0  0  0  0  2  0  0  0  0
   -0.3572    0.2062    0.0000 C   0  0  0  0  0  0  0  2  0  0  0  0
   -0.3572    1.0313    0.0000 O   0  0  0  0  0  0  0  2  0  0  0  0
    0.3572   -0.2062    0.0000 C   0  0  0  0  0  0  0  2  0  0  0  0
    0.3572   -1.0313    0.0000 O   0  0  0  0  0  0  0  2  0  0  0  0
    1.0717    0.2062    0.0000 C   0  0  0  0  0  0  0  2  0  0  0  0
    1.0717    1.0313    0.0000 O   0  0  0  0  0  0  0  2  0  0  0  0
    1.7862   -0.2062    0.0000 C   0  0  0  0  0  0  0  2  0  0  0  0
    1.7862   -1.0313    0.0000 O   0  0  0  0  0  0  0  2  0  0  0  0
    2.5006    0.2062    0.0000 O   0  0  0  0  0  0  0  2  0  0  0  0
    3.2151   -0.2062    0.0000 N   0  0  0  0  0  0  0  2  0  0  0  0
    2.8026   -0.9207    0.0000 C   0  0  0  0  0  0  0  2  0  0  0  0
    3.6276   -0.9207    0.0000 H   0  0  0  0  0  0  0  2  0  0  0  0
    3.9296    0.2062    0.0000 C   0  0  0  0  0  0  0  2  0  0  0  0
    4.6441   -0.2062    0.0000 C   0  0  0  0  0  0  0  2  0  0  0  0
    5.3585    0.2062    0.0000 C   0  0  0  0  0  0  0  2  0  0  0  0
    6.0730   -0.2062    0.0000 C   0  0  0  0  0  0  0  2  0  0  0  0
    6.7875    0.2062    0.0000 C   0  0  0  0  0  0  0  2  0  0  0  0
    6.7875    1.0312    0.0000 C   0  0  0  0  0  0  0  2  0  0  0  0
    7.5019    1.4438    0.0000 N   0  0  0  0  0  0  0  2  0  0  0  0
    8.2164    1.0312    0.0000 C   0  0  0  0  0  0  0  2  0  0  0  0
    8.2164    0.2062    0.0000 C   0  0  0  0  0  0  0  2  0  0  0  0
    7.5019   -0.2062    0.0000 C   0  0  0  0  0  0  0  2  0  0  0  0
  1  2  4  0        0
  2  3  4  0        0
  3  4  4  0        0
  4  5  4  0        0
  5  6  4  0        0
  1  6  4  0        0
  6  7  1  0        0
  7  8  2  0        0
  8  9  1  0        0
  9 10  1  0        0
 10 11  1  0        0
 11 12  1  0        0
 11 13  1  0        0
 11 14  1  0        0
 14 15  1  0        0
 15 16  2  0        0
 15 17  1  0        0
 17 18  1  0        0
 17 19  1  0        0
 19 20  1  0        0
 19 21  1  0        0
 21 22  1  0        0
 21 23  1  0        0
 23 24  1  0        0
 23 25  1  0        0
 25 26  2  0        0
 25 27  1  0        0
 27 28  1  0        0
 28 29  1  0        0
 28 30  1  0        0
 28 31  1  0        0
 31 32  1  0        0
 32 33  1  0        0
 33 34  2  0        0
 34 35  1  0        0
 35 36  4  0        0
 36 37  4  0        0
 37 38  4  0        0
 38 39  4  0        0
 39 40  4  0        0
 35 40  4  0        0
M  END
$$$$

CDXL12

 22 25  0  0  0  0  0  0  0  0999 V2000
   -0.3572    0.2062    0.0000 C   0  0  0  0  0  0  0  2  0  0  0  0
   -1.0717   -0.2063    0.0000 C   0  0  0  0  0  0  0  2  0  0  0  0
   -1.7862    0.2062    0.0000 C   0  0  0  0  0  0  0  2  0  0  0  0
   -2.5006   -0.2063    0.0000 C   0  0  0  0  0  0  0  2  0  0  0  0
   -3.2151    0.2062    0.0000 C   0  0  0  0  0  0  0  2  0  0  0  0
   -3.9296   -0.2063    0.0000 C   0  0  0  0  0  0  0  2  0  0  0  0
   -1.0717   -1.0313    0.0000 C   0  0  0  0  0  0  0  2  0  0  0  0
   -0.3572   -1.4438    0.0000 C   0  0  0  0  0  0  0  2  0  0  0  0
    0.3572   -1.0313    0.0000 C   0  0  0  0  0  0  0  2  0  0  0  0
    1.0717   -1.4438    0.0000 C   0  0  0  0  0  0  0  2  0  0  0  0
    1.7862   -1.0312    0.0000 C   0  0  0  0  0  0  0  2  0  0  0  0
    2.5006   -1.4437    0.0000 C   0  0  0  0  0  0  0  2  0  0  0  0
    3.2151   -1.0313    0.0000 C   0  0  0  0  0  0  0  2  0  0  0  0
    3.2151   -0.2062    0.0000 C   0  0  0  0  0  0  0  2  0  0  0  0
    3.9296    0.2062    0.0000 C   0  0  0  0  0  0  0  2  0  0  0  0
    3.9296    1.0312    0.0000 C   0  0  0  0  0  0  0  2  0  0  0  0
    3.2151    1.4438    0.0000 C   0  0  0  0  0  0  0  2  0  0  0  0
    2.5006    1.0313    0.0000 C   0  0  0  0  0  0  0  2  0  0  0  0
    2.5006    0.2062    0.0000 C   0  0  0  0  0  0  0  2  0  0  0  0
    1.7862   -0.2062    0.0000 C   0  0  0  0  0  0  0  2  0  0  0  0
    1.0717    0.2062    0.0000 C   0  0  0  0  0  0  0  2  0  0  0  0
    0.3572   -0.2063    0.0000 C   0  0  0  0  0  0  0  2  0  0  0  0
  1  2  4  0        0
  2  3  1  0        0
  3  4  1  0        0
  4  5  1  0        0
  5  6  1  0        0
  2  7  4  0        0
  7  8  4  0        0
  8  9  4  0        0
  9 10  4  0        0
 10 11  4  0        0
 11 12  4  0        0
 12 13  4  0        0
 13 14  4  0        0
 14 15  4  0        0
 15 16  4  0        0
 16 17  4  0        0
 17 18  4  0        0
 18 19  4  0        0
 14 19  4  0        0
 19 20  4  0        0
 11 20  4  0        0
 20 21  4  0        0
 21 22  4  0        0
  1 22  4  0        0
  9 22  4  0        0
M  END
$$$$

CDXL12

 23 26  0  0  0  0  0  0  0  0999 V2000
    0.0000    0.2062    0.0000 C   0  0  0  0  0  0  0  2  0  0  0  0
   -0.7145   -0.2063    0.0000 C   0  0  0  0  0  0  0  2  0  0  0  0
   -1.4289    0.2062    0.0000 C   0  0  0  0  0  0  0  2  0  0  0  0
   -2.1434   -0.2063    0.0000 C   0  0  0  0  0  0  0  2  0  0  0  0
   -2.8579    0.2062    0.0000 C   0  0  0  0  0  0  0  2  0  0  0  0
   -3.5724   -0.2063    0.0000 C   0  0  0  0  0  0  0  2  0  0  0  0
   -4.2868    0.2062    0.0000 C   0  0  0  0  0  0  0  2  0  0  0  0
   -0.7145   -1.0313    0.0000 C   0  0  0  0  0  0  0  2  0  0  0  0
    0.0000   -1.4438    0.0000 C   0  0  0  0  0  0  0  2  0  0  0  0
    0.7145   -1.0313    0.0000 C   0  0  0  0  0  0  0  2  0  0  0  0
    1.4289   -1.4438    0.0000 C   0  0  0  0  0  0  0  2  0  0  0  0
    2.1434   -1.0312    0.0000 C   0  0  0  0  0  0  0  2  0  0  0  0
    2.8579   -1.4437    0.0000 C   0  0  0  0  0  0  0  2  0  0  0  0
    3.5724   -1.0313    0.0000 C   0  0  0  0  0  0  0  2  0  0  0  0
    3.5724   -0.2062    0.0000 C   0  0  0  0  0  0  0  2  0  0  0  0
    4.2868    0.2062    0.0000 C   0  0  0  0  0  0  0  2  0  0  0  0
    4.2868    1.0312    0.0000 C   0  0  0  0  0  0  0  2  0  0  0  0
    3.5724    1.4438    0.0000 C   0  0  0  0  0  0  0  2  0  0  0  0
    2.8579    1.0313    0.0000 C   0  0  0  0  0  0  0  2  0  0  0  0
    2.8579    0.2062    0.0000 C   0  0  0  0  0  0  0  2  0  0  0  0
    2.1434   -0.2062    0.0000 C   0  0  0  0  0  0  0  2  0  0  0  0
    1.4289    0.2062    0.0000 C   0  0  0  0  0  0  0  2  0  0  0  0
    0.7145   -0.2063    0.0000 C   0  0  0  0  0  0  0  2  0  0  0  0
  1  2  4  0        0
  2  3  1  0        0
  3  4  1  0        0
  4  5  1  0        0
  5  6  1  0        0
  6  7  1  0        0
  2  8  4  0        0
  8  9  4  0        0
  9 10  4  0        0
 10 11  4  0        0
 11 12  4  0        0
 12 13  4  0        0
 13 14  4  0        0
 14 15  4  0        0
 15 16  4  0        0
 16 17  4  0        0
 17 18  4  0        0
 18 19  4  0        0
 19 20  4  0        0
 15 20  4  0        0
 20 21  4  0        0
 12 21  4  0        0
 21 22  4  0        0
 22 23  4  0        0
  1 23  4  0        0
 10 23  4  0        0
M  END
$$$$

CDXL12

 20 23  0  0  0  0  0  0  0  0999 V2000
   -1.4289    0.6187    0.0000 C   0  0  0  0  0  0  0  2  0  0  0  0
   -2.1434    0.2062    0.0000 C   0  0  0  0  0  0  0  2  0  0  0  0
   -2.8579    0.6187    0.0000 C   0  0  0  0  0  0  0  2  0  0  0  0
   -2.1434   -0.6188    0.0000 C   0  0  0  0  0  0  0  2  0  0  0  0
   -1.4289   -1.0313    0.0000 C   0  0  0  0  0  0  0  2  0  0  0  0
   -0.7145   -0.6188    0.0000 C   0  0  0  0  0  0  0  2  0  0  0  0
    0.0000   -1.0313    0.0000 C   0  0  0  0  0  0  0  2  0  0  0  0
    0.7145   -0.6187    0.0000 C   0  0  0  0  0  0  0  2  0  0  0  0
    1.4289   -1.0312    0.0000 C   0  0  0  0  0  0  0  2  0  0  0  0
    1.4289   -1.8562    0.0000 Cl  0  0  0  0  0  0  0  2  0  0  0  0
    2.1434   -0.6188    0.0000 C   0  0  0  0  0  0  0  2  0  0  0  0
    2.1434    0.2062    0.0000 C   0  0  0  0  0  0  0  2  0  0  0  0
    2.8579    0.6187    0.0000 C   0  0  0  0  0  0  0  2  0  0  0  0
    2.8579    1.4437    0.0000 C   0  0  0  0  0  0  0  2  0  0  0  0
    2.1434    1.8562    0.0000 C   0  0  0  0  0  0  0  2  0  0  0  0
    1.4289    1.4437    0.0000 C   0  0  0  0  0  0  0  2  0  0  0  0
    1.4289    0.6187    0.0000 C   0  0  0  0  0  0  0  2  0  0  0  0
    0.7145    0.2062    0.0000 C   0  0  0  0  0  0  0  2  0  0  0  0
    0.0000    0.6187    0.0000 C   0  0  0  0  0  0  0  2  0  0  0  0
   -0.7145    0.2062    0.0000 C   0  0  0  0  0  0  0  2  0  0  0  0
  1  2  4  0        0
  2  3  1  0        0
  2  4  4  0        0
  4  5  4  0        0
  5  6  4  0        0
  6  7  4  0        0
  7  8  4  0        0
  8  9  4  0        0
  9 10  1  0        0
  9 11  4  0        0
 11 12  4  0        0
 12 13  4  0        0
 13 14  4  0        0
 14 15  4  0        0
 15 16  4  0        0
 16 17  4  0        0
 12 17  4  0        0
 17 18  4  0        0
  8 18  4  0        0
 18 19  4  0        0
 19 20  4  0        0
  1 20  4  0        0
  6 20  4  0        0
M  END
$$$$

CDXL12

 14 13  0  0  0  0  0  0  0  0999 V2000
   -3.9296   -0.2062    0.0000 Cl  0  0  0  0  0  0  0  2  0  0  0  0
   -3.2151    0.2062    0.0000 C   0  0  0  0  0  0  0  2  0  0  0  0
   -2.5006   -0.2062    0.0000 C   0  0  0  0  0  0  0  2  0  0  0  0
   -2.5006   -1.0312    0.0000 Cl  0  0  0  0  0  0  0  2  0  0  0  0
   -1.7862    0.2063    0.0000 C   0  0  0  0  0  0  0  2  0  0  0  0
   -1.0717   -0.2062    0.0000 C   0  0  0  0  0  0  0  2  0  0  0  0
   -0.3572    0.2062    0.0000 C   0  0  0  0  0  0  0  2  0  0  0  0
    0.3572   -0.2062    0.0000 C   0  0  0  0  0  0  0  2  0  0  0  0
    1.0717    0.2062    0.0000 C   0  0  0  0  0  0  0  2  0  0  0  0
    1.7862   -0.2062    0.0000 C   0  0  0  0  0  0  0  2  0  0  0  0
    2.5006    0.2062    0.0000 C   0  0  0  0  0  0  0  2  0  0  0  0
    2.5006    1.0312    0.0000 Cl  0  0  0  0  0  0  0  2  0  0  0  0
    3.2151   -0.2062    0.0000 C   0  0  0  0  0  0  0  2  0  0  0  0
    3.9296    0.2062    0.0000 Cl  0  0  0  0  0  0  0  2  0  0  0  0
  1  2  1  0        0
  2  3  1  0        0
  3  4  1  0        0
  3  5  1  0        0
  5  6  1  0        0
  6  7  1  0        0
  7  8  1  0        0
  8  9  1  0        0
  9 10  1  0        0
 10 11  1  0        0
 11 12  1  0        0
 11 13  1  0        0
 13 14  1  0        0
M  END
$$$$

CDXL12

 14 13  0  0  0  0  0  0  0  0999 V2000
    2.8579    0.6187    0.0000 O   0  0  0  0  0  0  0  2  0  0  0  0
    2.8579   -0.2062    0.0000 N   0  0  0  0  0  0  0  2  0  0  0  0
    3.5724   -0.6188    0.0000 O   0  0  0  0  0  0  0  2  0  0  0  0
    2.1434   -0.6188    0.0000 O   0  0  0  0  0  0  0  2  0  0  0  0
    1.4289   -0.2062    0.0000 C   0  0  0  0  0  0  0  2  0  0  0  0
    0.7145   -0.6188    0.0000 C   0  0  0  0  0  0  0  2  0  0  0  0
    0.0000   -0.2062    0.0000 C   0  0  0  0  0  0  0  2  0  0  0  0
   -0.7145   -0.6188    0.0000 C   0  0  0  0  0  0  0  2  0  0  0  0
   -1.4289   -0.2062    0.0000 C   0  0  0  0  0  0  0  2  0  0  0  0
   -2.1434   -0.6188    0.0000 O   0  0  0  0  0  0  0  2  0  0  0  0
   -2.8579   -0.2062    0.0000 N   0  0  0  0  0  0  0  2  0  0  0  0
   -3.5724   -0.6187    0.0000 O   0  0  0  0  0  0  0  2  0  0  0  0
   -2.8579    0.6188    0.0000 O   0  0  0  0  0  0  0  2  0  0  0  0
   -1.4289    0.6187    0.0000 C   0  0  0  0  0  0  0  2  0  0  0  0
  1  2  2  0        0
  2  3  2  0        0
  2  4  1  0        0
  4  5  1  0        0
  5  6  1  0        0
  6  7  1  0        0
  7  8  1  0        0
  8  9  1  0        0
  9 10  1  0        0
 10 11  1  0        0
 11 12  2  0        0
 11 13  2  0        0
  9 14  1  0        0
M  END
$$$$

CDXL12

 15 15  0  0  0  0  0  0  0  0999 V2000
    0.7291    0.3891    0.0000 C   0  0  0  0  0  0  0  2  0  0  0  0
    1.5449    0.2661    0.0000 C   0  0  0  0  0  0  0  2  0  0  0  0
    1.9574   -0.4484    0.0000 C   0  0  0  0  0  0  0  2  0  0  0  0
    1.6560   -1.2163    0.0000 C   0  0  0  0  0  0  0  2  0  0  0  0
    0.8677   -1.4595    0.0000 C   0  0  0  0  0  0  0  2  0  0  0  0
    0.1860   -0.9948    0.0000 C   0  0  0  0  0  0  0  2  0  0  0  0
   -0.5285   -1.4073    0.0000 O   0  0  0  0  0  0  0  2  0  0  0  0
   -1.2429   -0.9948    0.0000 N   0  0  0  0  0  0  0  2  0  0  0  0
   -1.2429   -0.1698    0.0000 O   0  0  0  0  0  0  0  2  0  0  0  0
   -1.9574   -1.4073    0.0000 O   0  0  0  0  0  0  0  2  0  0  0  0
    0.1244   -0.1721    0.0000 C   0  0  0  0  0  0  0  2  0  0  0  0
   -0.6436    0.1293    0.0000 O   0  0  0  0  0  0  0  2  0  0  0  0
   -0.7666    0.9451    0.0000 N   0  0  0  0  0  0  0  2  0  0  0  0
   -0.1216    1.4595    0.0000 O   0  0  0  0  0  0  0  2  0  0  0  0
   -1.5345    1.2465    0.0000 O   0  0  0  0  0  0  0  2  0  0  0  0
  1  2  1  0        0
  2  3  1  0        0
  3  4  1  0        0
  4  5  1  0        0
  5  6  1  0        0
  6  7  1  0        0
  7  8  1  0        0
  8  9  2  0        0
  8 10  2  0        0
  6 11  1  0        0
  1 11  1  0        0
 11 12  1  0        0
 12 13  1  0        0
 13 14  2  0        0
 13 15  2  0        0
M  END
$$$$

CDXL12

 18 19  0  0  0  0  0  0  0  0999 V2000
   -0.1623   -1.5795    0.0000 Br  0  0  0  0  0  0  0  2  0  0  0  0
   -0.6472   -0.9121    0.0000 C   0  0  0  0  0  0  0  2  0  0  0  0
   -1.4722   -0.9121    0.0000 C   0  0  0  0  0  0  0  2  0  0  0  0
   -1.9572   -1.5795    0.0000 Br  0  0  0  0  0  0  0  2  0  0  0  0
   -1.7272   -0.1275    0.0000 C   0  0  0  0  0  0  0  2  0  0  0  0
   -2.5118    0.1275    0.0000 Br  0  0  0  0  0  0  0  2  0  0  0  0
   -1.0597    0.3575    0.0000 N   0  0  0  0  0  0  0  2  0  0  0  0
   -1.0597    1.1825    0.0000 C   0  0  0  0  0  0  0  2  0  0  0  0
   -0.3923   -0.1275    0.0000 C   0  0  0  0  0  0  0  2  0  0  0  0
    0.3923    0.1275    0.0000 C   0  0  0  0  0  0  0  2  0  0  0  0
    1.0597   -0.3575    0.0000 C   0  0  0  0  0  0  0  2  0  0  0  0
    1.0597   -1.1825    0.0000 Br  0  0  0  0  0  0  0  2  0  0  0  0
    1.7272    0.1275    0.0000 C   0  0  0  0  0  0  0  2  0  0  0  0
    2.5118   -0.1275    0.0000 Br  0  0  0  0  0  0  0  2  0  0  0  0
    1.4722    0.9121    0.0000 C   0  0  0  0  0  0  0  2  0  0  0  0
    1.9572    1.5795    0.0000 Br  0  0  0  0  0  0  0  2  0  0  0  0
    0.6472    0.9121    0.0000 N   0  0  0  0  0  0  0  2  0  0  0  0
    0.1623    1.5795    0.0000 C   0  0  0  0  0  0  0  2  0  0  0  0
  1  2  1  0        0
  2  3  4  0        0
  3  4  1  0        0
  3  5  4  0        0
  5  6  1  0        0
  5  7  4  0        0
  7  8  1  0        0
  7  9  4  0        0
  2  9  4  0        0
  9 10  1  0        0
 10 11  4  0        0
 11 12  1  0        0
 11 13  4  0        0
 13 14  1  0        0
 13 15  4  0        0
 15 16  1  0        0
 15 17  4  0        0
 10 17  4  0        0
 17 18  1  0        0
M  END
$$$$

CDXL12

 28 28  0  0  0  0  0  0  0  0999 V2000
   -2.3624   -0.5390    0.0000 N   0  0  0  0  0  0  0  2  0  0  0  0
   -3.0769   -0.9515    0.0000 H   0  0  0  0  0  0  0  2  0  0  0  0
   -2.3624    0.2860    0.0000 H   0  0  0  0  0  0  0  2  0  0  0  0
   -3.0769   -0.1265    0.0000 H   0  0  0  0  0  0  0  2  0  0  0  0
   -1.6480   -0.9515    0.0000 O   0  0  0  0  0  0  0  2  0  0  0  0
   -0.9335   -0.5390    0.0000 B   0  0  0  0  0  0  0  2  0  0  0  0
   -1.0412    0.2790    0.0000 O   0  0  0  0  0  0  0  2  0  0  0  0
   -0.5390    0.9335    0.0000 B   0  0  0  0  0  0  0  2  0  0  0  0
   -0.9515    1.6480    0.0000 O   0  0  0  0  0  0  0  2  0  0  0  0
   -1.7765    1.6480    0.0000 N   0  0  0  0  0  0  0  2  0  0  0  0
   -2.6015    1.6480    0.0000 H   0  0  0  0  0  0  0  2  0  0  0  0
   -2.1890    0.9335    0.0000 H   0  0  0  0  0  0  0  2  0  0  0  0
   -2.1890    2.3624    0.0000 H   0  0  0  0  0  0  0  2  0  0  0  0
    0.2790    1.0412    0.0000 O   0  0  0  0  0  0  0  2  0  0  0  0
    0.9335    0.5390    0.0000 B   0  0  0  0  0  0  0  2  0  0  0  0
    1.6480    0.9515    0.0000 O   0  0  0  0  0  0  0  2  0  0  0  0
    2.3624    0.5390    0.0000 N   0  0  0  0  0  0  0  2  0  0  0  0
    2.3624   -0.2860    0.0000 H   0  0  0  0  0  0  0  2  0  0  0  0
    3.0769    0.1265    0.0000 H   0  0  0  0  0  0  0  2  0  0  0  0
    3.0769    0.9515    0.0000 H   0  0  0  0  0  0  0  2  0  0  0  0
    1.0412   -0.2790    0.0000 O   0  0  0  0  0  0  0  2  0  0  0  0
    0.5390   -0.9335    0.0000 B   0  0  0  0  0  0  0  2  0  0  0  0
    0.9515   -1.6480    0.0000 O   0  0  0  0  0  0  0  2  0  0  0  0
    1.7765   -1.6480    0.0000 N   0  0  0  0  0  0  0  2  0  0  0  0
    2.6015   -1.6480    0.0000 H   0  0  0  0  0  0  0  2  0  0  0  0
    2.1890   -0.9335    0.0000 H   0  0  0  0  0  0  0  2  0  0  0  0
    2.1890   -2.3624    0.0000 H   0  0  0  0  0  0  0  2  0  0  0  0
   -0.2790   -1.0412    0.0000 O   0  0  0  0  0  0  0  2  0  0  0  0
  1  2  1  0        0
  1  3  1  0        0
  1  4  1  0        0
  1  5  1  0        0
  5  6  1  0        0
  6  7  1  0        0
  7  8  1  0        0
  8  9  1  0        0
  9 10  1  0        0
 10 11  1  0        0
 10 12  1  0        0
 10 13  1  0        0
  8 14  1  0        0
 14 15  1  0        0
 15 16  1  0        0
 16 17  1  0        0
 17 18  1  0        0
 17 19  1  0        0
 17 20  1  0        0
 15 21  1  0        0
 21 22  1  0        0
 22 23  1  0        0
 23 24  1  0        0
 24 25  1  0        0
 24 26  1  0        0
 24 27  1  0        0
 22 28  1  0        0
  6 28  1  0        0
M  END
$$$$

CDXL12

 22 23  0  0  0  0  0  0  0  0999 V2000
    1.4289    1.4437    0.0000 C   0  0  0  0  0  0  0  2  0  0  0  0
    2.1434    1.8562    0.0000 C   0  0  0  0  0  0  0  2  0  0  0  0
    2.8579    1.4437    0.0000 C   0  0  0  0  0  0  0  2  0  0  0  0
    3.5724    1.8562    0.0000 Cl  0  0  0  0  0  0  0  2  0  0  0  0
    2.8579    0.6187    0.0000 C   0  0  0  0  0  0  0  2  0  0  0  0
    3.5724    0.2062    0.0000 Cl  0  0  0  0  0  0  0  2  0  0  0  0
    2.1434    0.2062    0.0000 C   0  0  0  0  0  0  0  2  0  0  0  0
    1.4289    0.6187    0.0000 C   0  0  0  0  0  0  0  2  0  0  0  0
    0.7145    0.2062    0.0000 N   0  0  0  0  0  0  0  2  0  0  0  0
   -0.0000    0.6188    0.0000 N   0  0  0  0  0  0  0  2  0  0  0  0
   -0.7145    0.2062    0.0000 C   0  0  0  0  0  0  0  2  0  0  0  0
   -0.7145   -0.6188    0.0000 C   0  0  0  0  0  0  0  2  0  0  0  0
   -0.0000   -1.0313    0.0000 O   0  0  0  0  0  0  0  2  0  0  0  0
   -1.4289   -1.0312    0.0000 C   0  0  0  0  0  0  0  2  0  0  0  0
   -1.4289   -1.8562    0.0000 C   0  0  0  0  0  0  0  2  0  0  0  0
   -2.1434   -0.6188    0.0000 C   0  0  0  0  0  0  0  2  0  0  0  0
   -2.8579   -1.0312    0.0000 O   0  0  0  0  0  0  0  2  0  0  0  0
   -2.1434    0.2062    0.0000 C   0  0  0  0  0  0  0  2  0  0  0  0
   -2.8579    0.6188    0.0000 C   0  0  0  0  0  0  0  2  0  0  0  0
   -3.5724    1.0313    0.0000 N   0  0  0  0  0  0  0  2  0  0  0  0
   -1.4289    0.6188    0.0000 C   0  0  0  0  0  0  0  2  0  0  0  0
   -1.4289    1.4438    0.0000 C   0  0  0  0  0  0  0  2  0  0  0  0
  1  2  4  0        0
  2  3  4  0        0
  3  4  1  0        0
  3  5  4  0        0
  5  6  1  0        0
  5  7  4  0        0
  7  8  4  0        0
  1  8  4  0        0
  8  9  1  0        0
  9 10  2  0        0
 10 11  1  0        0
 11 12  4  0        0
 12 13  1  0        0
 12 14  4  0        0
 14 15  1  0        0
 14 16  4  0        0
 16 17  1  0        0
 16 18  4  0        0
 18 19  1  0        0
 19 20  3  0        0
 18 21  4  0        0
 11 21  4  0        0
 21 22  1  0        0
M  END
$$$$

CDXL12

 40 42  0  0  0  0  0  0  0  0999 V2000
   -4.7812    0.4363    0.0000 C   0  0  0  0  0  0  0  2  0  0  0  0
   -4.7812   -0.3887    0.0000 C   0  0  0  0  0  0  0  2  0  0  0  0
   -5.4956   -0.8012    0.0000 C   0  0  0  0  0  0  0  2  0  0  0  0
   -4.0667   -0.8012    0.0000 C   0  0  0  0  0  0  0  2  0  0  0  0
   -4.0667   -1.6262    0.0000 N   0  0  0  0  0  0  0  2  0  0  0  0
   -3.3522   -2.0387    0.0000 H   0  0  0  0  0  0  0  2  0  0  0  0
   -4.0667   -2.4512    0.0000 H   0  0  0  0  0  0  0  2  0  0  0  0
   -4.7812   -2.0387    0.0000 Cl  0  0  0  0  0  0  0  2  0  0  0  0
   -3.3522   -0.3887    0.0000 C   0  0  0  0  0  0  0  2  0  0  0  0
   -3.3522    0.4363    0.0000 O   0  0  0  0  0  0  0  2  0  0  0  0
   -2.6377   -0.8012    0.0000 N   0  0  0  0  0  0  0  2  0  0  0  0
   -1.9233   -0.3887    0.0000 C   0  0  0  0  0  0  0  2  0  0  0  0
   -1.2088   -0.8012    0.0000 C   0  0  0  0  0  0  0  2  0  0  0  0
   -1.6213   -1.5156    0.0000 C   0  0  0  0  0  0  0  2  0  0  0  0
   -0.7963   -1.5156    0.0000 C   0  0  0  0  0  0  0  2  0  0  0  0
   -0.4943   -0.3887    0.0000 S   0  0  0  0  0  0  0  2  0  0  0  0
    0.2201   -0.8012    0.0000 C   0  0  0  0  0  0  0  2  0  0  0  0
    0.9346   -0.3887    0.0000 C   0  0  0  0  0  0  0  2  0  0  0  0
    0.9346    0.4363    0.0000 O   0  0  0  0  0  0  0  2  0  0  0  0
    1.6491   -0.8012    0.0000 O   0  0  0  0  0  0  0  2  0  0  0  0
    2.3636   -0.3887    0.0000 C   0  0  0  0  0  0  0  2  0  0  0  0
    2.2596    0.6580    0.0000 C   0  0  0  0  0  0  0  2  0  0  0  0
    2.9768    1.4275    0.0000 C   0  0  0  0  0  0  0  2  0  0  0  0
    2.3206    1.9276    0.0000 C   0  0  0  0  0  0  0  2  0  0  0  0
    3.0818    2.2458    0.0000 C   0  0  0  0  0  0  0  2  0  0  0  0
    3.8429    2.5640    0.0000 C   0  0  0  0  0  0  0  2  0  0  0  0
    4.0282    1.3974    0.0000 C   0  0  0  0  0  0  0  2  0  0  0  0
    4.7002    0.5881    0.0000 C   0  0  0  0  0  0  0  2  0  0  0  0
    5.4956    0.8069    0.0000 C   0  0  0  0  0  0  0  2  0  0  0  0
    4.5364   -0.4509    0.0000 C   0  0  0  0  0  0  0  2  0  0  0  0
    4.2182    0.3102    0.0000 C   0  0  0  0  0  0  0  2  0  0  0  0
    3.4000    0.4153    0.0000 C   0  0  0  0  0  0  0  2  0  0  0  0
    2.8999   -0.2409    0.0000 C   0  0  0  0  0  0  0  2  0  0  0  0
    2.0816   -0.1359    0.0000 C   0  0  0  0  0  0  0  2  0  0  0  0
    3.2181   -1.0021    0.0000 C   0  0  0  0  0  0  0  2  0  0  0  0
    4.0364   -1.1071    0.0000 C   0  0  0  0  0  0  0  2  0  0  0  0
    4.5059   -1.7855    0.0000 C   0  0  0  0  0  0  0  2  0  0  0  0
    5.2961   -1.5486    0.0000 C   0  0  0  0  0  0  0  2  0  0  0  0
    5.3150   -0.7238    0.0000 C   0  0  0  0  0  0  0  2  0  0  0  0
    4.2330   -2.5640    0.0000 O   0  0  0  0  0  0  0  2  0  0  0  0
  1  2  1  0        0
  2  3  1  0        0
  2  4  1  0        0
  4  5  1  0        0
  5  6  1  0        0
  5  7  1  0        0
  5  8  1  0        0
  4  9  1  0        0
  9 10  2  0        0
  9 11  1  0        0
 11 12  1  0        0
 12 13  1  0        0
 13 14  1  0        0
 13 15  1  0        0
 13 16  1  0        0
 16 17  1  0        0
 17 18  1  0        0
 18 19  2  0        0
 18 20  1  0        0
 20 21  1  0        0
 21 22  1  0        0
 22 23  1  0        0
 23 24  1  0        0
 23 25  1  0        0
 25 26  2  0        0
 23 27  1  0        0
 27 28  1  0        0
 28 29  1  0        0
 28 30  1  0        0
 30 31  1  0        0
 31 32  1  0        0
 32 33  1  0        0
 33 34  1  0        0
 33 35  1  0        0
 21 35  1  0        0
 35 36  1  0        0
 30 36  1  0        0
 36 37  1  0        0
 37 38  1  0        0
 38 39  1  0        0
 30 39  1  0        0
 37 40  2  0        0
M  END
$$$$
