Diethylene glycol dimethyl ether
  DSViewer          3D                             0

  9  8  0  0  0  0  0  0  0  0999 V2000
    0.0325    1.8264    1.2309 C   0  0  0  0  0  0  0  0  0  1
   -0.6181    2.6394    0.2400 O   0  0  0  0  0  0  0  0  0  2
   -1.9793    2.8936    0.6272 C   0  0  0  0  0  0  0  0  0  3
   -2.8980    1.6328    0.5191 C   0  0  0  0  0  0  0  0  0  4
   -3.1542    1.2458   -0.8651 O   0  0  0  0  0  0  0  0  0  5
   -2.0492    0.5876   -1.5332 C   0  0  0  0  0  0  0  0  0  6
   -1.9059   -0.9096   -1.1116 C   0  0  0  0  0  0  0  0  0  7
   -1.5953   -1.0447    0.2801 O   0  0  0  0  0  0  0  0  0  8
   -1.4927   -2.4349    0.6072 C   0  0  0  0  0  0  0  0  0  9
  1  2  1  0  0  0
  2  3  1  0  0  0
  3  4  1  0  0  0
  4  5  1  0  0  0
  5  6  1  0  0  0
  6  7  1  0  0  0
  7  8  1  0  0  0
  8  9  1  0  0  0
M  END
> <SMILES>
COCCOCCOC

> <Reference>
SAR and QSAR in Env Res (1994) 2:159

> <Id2>
.

> <Activity>
NEG

> <Predicted Value>
0      NEG

> <Used>
1

> <Additional Info(LOAEL)>
.

> <Status>
Non-Sensitizer

> <isSensitizer>
0

$$$$
Dodecylmethane sulfonate
  SciTegic06161615552D

 17 16  0  0  0  0            999 V2000
    0.0000    0.0000    0.0000 C   0  0
    0.0000    0.0000    0.0000 C   0  0
    0.0000    0.0000    0.0000 C   0  0
    0.0000    0.0000    0.0000 C   0  0
    0.0000    0.0000    0.0000 C   0  0
    0.0000    0.0000    0.0000 C   0  0
    0.0000    0.0000    0.0000 C   0  0
    0.0000    0.0000    0.0000 C   0  0
    0.0000    0.0000    0.0000 C   0  0
    0.0000    0.0000    0.0000 C   0  0
    0.0000    0.0000    0.0000 C   0  0
    0.0000    0.0000    0.0000 C   0  0
    0.0000    0.0000    0.0000 O   0  0
    0.0000    0.0000    0.0000 S   0  0
    0.0000    0.0000    0.0000 C   0  0
    0.0000    0.0000    0.0000 O   0  0
    0.0000    0.0000    0.0000 O   0  0
  1  2  1  0
  2  3  1  0
  3  4  1  0
  4  5  1  0
  5  6  1  0
  6  7  1  0
  7  8  1  0
  8  9  1  0
  9 10  1  0
 10 11  1  0
 11 12  1  0
 12 13  1  0
 13 14  1  0
 14 15  1  0
 14 16  2  0
 14 17  2  0
M  END
> <Name>
Dodecylmethane sulfonate

> <SMILES>
CCCCCCCCCCCCOS(C)(=O)=O

> <Reference>
David A Basketter (priv comm)

> <Id>
17-AOO

> <Activity>
POS

> <Predicted Value>
0.921  POS

> <Used>
1

> <Status>
Sensitizer

> <isSensitizer>
1

$$$$
Sodium lauryl sulfate
  SciTegic06161615552D

 17 16  0  0  0  0            999 V2000
    0.0000    0.0000    0.0000 C   0  0
    0.0000    0.0000    0.0000 C   0  0
    0.0000    0.0000    0.0000 C   0  0
    0.0000    0.0000    0.0000 C   0  0
    0.0000    0.0000    0.0000 C   0  0
    0.0000    0.0000    0.0000 C   0  0
    0.0000    0.0000    0.0000 C   0  0
    0.0000    0.0000    0.0000 C   0  0
    0.0000    0.0000    0.0000 C   0  0
    0.0000    0.0000    0.0000 C   0  0
    0.0000    0.0000    0.0000 C   0  0
    0.0000    0.0000    0.0000 C   0  0
    0.0000    0.0000    0.0000 O   0  0
    0.0000    0.0000    0.0000 S   0  0
    0.0000    0.0000    0.0000 O   0  0
    0.0000    0.0000    0.0000 O   0  0
    0.0000    0.0000    0.0000 O   0  0
  1  2  1  0
  2  3  1  0
  3  4  1  0
  4  5  1  0
  5  6  1  0
  6  7  1  0
  7  8  1  0
  8  9  1  0
  9 10  1  0
 10 11  1  0
 11 12  1  0
 12 13  1  0
 13 14  1  0
 14 15  1  0
 14 16  2  0
 14 17  2  0
M  END
> <Name>
Sodium lauryl sulfate

> <SMILES>
CCCCCCCCCCCCOS(O)(=O)=O

> <Reference>
SAR and QSAR in Env Res (1994) 2:159

> <Id>
151-21-3

> <Activity>
NEG

> <Predicted Value>
0.015  NEG

> <Used>
1

> <Status>
Non-Sensitizer

> <isSensitizer>
0

$$$$
4-(2-Nitrobutyl)-morpholine
  SciTegic06161615552D

 13 13  0  0  0  0            999 V2000
    0.0000    0.0000    0.0000 C   0  0
    0.0000    0.0000    0.0000 C   0  0
    0.0000    0.0000    0.0000 C   0  0
    0.0000    0.0000    0.0000 C   0  0
    0.0000    0.0000    0.0000 N   0  0
    0.0000    0.0000    0.0000 C   0  0
    0.0000    0.0000    0.0000 C   0  0
    0.0000    0.0000    0.0000 O   0  0
    0.0000    0.0000    0.0000 C   0  0
    0.0000    0.0000    0.0000 C   0  0
    0.0000    0.0000    0.0000 N   0  0
    0.0000    0.0000    0.0000 O   0  0
    0.0000    0.0000    0.0000 O   0  0
  1  2  1  0
  2  3  1  0
  3  4  1  0
  4  5  1  0
  5  6  1  0
  6  7  1  0
  7  8  1  0
  8  9  1  0
  9 10  1  0
 10  5  1  0
  3 11  1  0
 11 12  2  0
 11 13  2  0
M  END
> <Name>
4-(2-Nitrobutyl)-morpholine

> <SMILES>
CCC(CN1CCOCC1)N(=O)=O

> <Reference>
Dermatosen (1995) 43:126

> <Id>
2224-44-4

> <Activity>
POS

> <Predicted Value>
1      POS

> <Used>
1

> <Status>
Sensitizer

> <isSensitizer>
1

$$$$
Dipropylene glycol methyl ether
  SciTegic06161615552D

 10  9  0  0  0  0            999 V2000
    0.0000    0.0000    0.0000 C   0  0
    0.0000    0.0000    0.0000 O   0  0
    0.0000    0.0000    0.0000 C   0  0
    0.0000    0.0000    0.0000 C   0  0
    0.0000    0.0000    0.0000 C   0  0
    0.0000    0.0000    0.0000 O   0  0
    0.0000    0.0000    0.0000 C   0  0
    0.0000    0.0000    0.0000 C   0  0
    0.0000    0.0000    0.0000 C   0  0
    0.0000    0.0000    0.0000 O   0  0
  1  2  1  0
  2  3  1  0
  3  4  1  0
  3  5  1  0
  5  6  1  0
  6  7  1  0
  7  8  1  0
  8  9  1  0
  8 10  1  0
M  END
> <Name>
Dipropylene glycol methyl ether

> <SMILES>
COC(C)COCC(C)O

> <Reference>
SAR and QSAR in Env Res (1994) 2:159

> <Id>
34590-94-8

> <Activity>
NEG

> <Predicted Value>
0      NEG

> <Used>
1

> <Status>
Non-Sensitizer

> <isSensitizer>
0

$$$$
Butyl acetate
  SciTegic06161615552D

  8  7  0  0  0  0            999 V2000
    0.0000    0.0000    0.0000 C   0  0
    0.0000    0.0000    0.0000 C   0  0
    0.0000    0.0000    0.0000 C   0  0
    0.0000    0.0000    0.0000 C   0  0
    0.0000    0.0000    0.0000 O   0  0
    0.0000    0.0000    0.0000 C   0  0
    0.0000    0.0000    0.0000 C   0  0
    0.0000    0.0000    0.0000 O   0  0
  1  2  1  0
  2  3  1  0
  3  4  1  0
  4  5  1  0
  5  6  1  0
  6  7  1  0
  6  8  2  0
M  END
> <Name>
Butyl acetate

> <SMILES>
CCCCOC(C)=O

> <Reference>
J Am Coll Toxicol (1989) 8(4):681

> <Id>
123-86-4

> <Activity>
NEG

> <Predicted Value>
0.077  NEG

> <Used>
1

> <Status>
Non-Sensitizer

> <isSensitizer>
0

$$$$
Pentyl acrylate
  SciTegic06161615552D

 10  9  0  0  0  0            999 V2000
    0.0000    0.0000    0.0000 C   0  0
    0.0000    0.0000    0.0000 C   0  0
    0.0000    0.0000    0.0000 C   0  0
    0.0000    0.0000    0.0000 C   0  0
    0.0000    0.0000    0.0000 C   0  0
    0.0000    0.0000    0.0000 O   0  0
    0.0000    0.0000    0.0000 C   0  0
    0.0000    0.0000    0.0000 O   0  0
    0.0000    0.0000    0.0000 C   0  0
    0.0000    0.0000    0.0000 C   0  0
  1  2  1  0
  2  3  1  0
  3  4  1  0
  4  5  1  0
  5  6  1  0
  6  7  1  0
  7  8  2  0
  7  9  1  0
  9 10  2  0
M  END
> <Name>
Pentyl acrylate

> <SMILES>
CCCCCOC(=O)C=C

> <Reference>
Contact Dermatitis (1982) 8:223

> <Id>
99999-05-0

> <Activity>
POS

> <Predicted Value>
0.999  POS

> <Used>
1

> <Status>
Sensitizer

> <isSensitizer>
1

$$$$
Hexyl acrylate
  SciTegic06161615552D

 11 10  0  0  0  0            999 V2000
    0.0000    0.0000    0.0000 C   0  0
    0.0000    0.0000    0.0000 C   0  0
    0.0000    0.0000    0.0000 C   0  0
    0.0000    0.0000    0.0000 C   0  0
    0.0000    0.0000    0.0000 C   0  0
    0.0000    0.0000    0.0000 C   0  0
    0.0000    0.0000    0.0000 O   0  0
    0.0000    0.0000    0.0000 C   0  0
    0.0000    0.0000    0.0000 O   0  0
    0.0000    0.0000    0.0000 C   0  0
    0.0000    0.0000    0.0000 C   0  0
  1  2  1  0
  2  3  1  0
  3  4  1  0
  4  5  1  0
  5  6  1  0
  6  7  1  0
  7  8  1  0
  8  9  2  0
  8 10  1  0
 10 11  2  0
M  END
> <Name>
Hexyl acrylate

> <SMILES>
CCCCCCOC(=O)C=C

> <Reference>
Contact Dermatitis (1982) 8:223

> <Id>
99999-06-0

> <Activity>
POS

> <Predicted Value>
0.998  POS

> <Used>
1

> <Status>
Sensitizer

> <isSensitizer>
1

$$$$
N-Butyl acrylate
  SciTegic06161615552D

  9  8  0  0  0  0            999 V2000
    0.0000    0.0000    0.0000 C   0  0
    0.0000    0.0000    0.0000 C   0  0
    0.0000    0.0000    0.0000 C   0  0
    0.0000    0.0000    0.0000 C   0  0
    0.0000    0.0000    0.0000 O   0  0
    0.0000    0.0000    0.0000 C   0  0
    0.0000    0.0000    0.0000 O   0  0
    0.0000    0.0000    0.0000 C   0  0
    0.0000    0.0000    0.0000 C   0  0
  1  2  1  0
  2  3  1  0
  3  4  1  0
  4  5  1  0
  5  6  1  0
  6  7  2  0
  6  8  1  0
  8  9  2  0
M  END
> <Name>
N-Butyl acrylate

> <SMILES>
CCCCOC(=O)C=C

> <Reference>
Contact Dermatitis (1982) 8:223

> <Id>
99999-04-0

> <Activity>
POS

> <Predicted Value>
1      POS

> <Used>
1

> <Status>
Sensitizer

> <isSensitizer>
1

$$$$
Isostearyl neopentanoate
  SciTegic06161615552D

 25 24  0  0  0  0            999 V2000
    0.0000    0.0000    0.0000 C   0  0
    0.0000    0.0000    0.0000 C   0  0
    0.0000    0.0000    0.0000 C   0  0
    0.0000    0.0000    0.0000 C   0  0
    0.0000    0.0000    0.0000 C   0  0
    0.0000    0.0000    0.0000 C   0  0
    0.0000    0.0000    0.0000 C   0  0
    0.0000    0.0000    0.0000 C   0  0
    0.0000    0.0000    0.0000 C   0  0
    0.0000    0.0000    0.0000 C   0  0
    0.0000    0.0000    0.0000 C   0  0
    0.0000    0.0000    0.0000 C   0  0
    0.0000    0.0000    0.0000 C   0  0
    0.0000    0.0000    0.0000 C   0  0
    0.0000    0.0000    0.0000 C   0  0
    0.0000    0.0000    0.0000 C   0  0
    0.0000    0.0000    0.0000 C   0  0
    0.0000    0.0000    0.0000 C   0  0
    0.0000    0.0000    0.0000 O   0  0
    0.0000    0.0000    0.0000 C   0  0
    0.0000    0.0000    0.0000 O   0  0
    0.0000    0.0000    0.0000 C   0  0
    0.0000    0.0000    0.0000 C   0  0
    0.0000    0.0000    0.0000 C   0  0
    0.0000    0.0000    0.0000 C   0  0
  1  2  1  0
  2  3  1  0
  3  4  1  0
  4  5  1  0
  5  6  1  0
  6  7  1  0
  7  8  1  0
  8  9  1  0
  9 10  1  0
 10 11  1  0
 11 12  1  0
 12 13  1  0
 13 14  1  0
 14 15  1  0
 15 16  1  0
 16 17  1  0
 17 18  1  0
 18 19  1  0
 19 20  1  0
 20 21  2  0
 20 22  1  0
 22 23  1  0
 22 24  1  0
 22 25  1  0
M  END
> <Name>
Isostearyl neopentanoate

> <SMILES>
CCCCCCCCCCCCCCCCCCOC(=O)C(C)(C)C

> <Reference>
J Am Coll Toxicol (1995) 4(3):1

> <Id>
58958-60-4

> <Activity>
NEG

> <Predicted Value>
0      NEG

> <Used>
1

> <Status>
Non-Sensitizer

> <isSensitizer>
0

$$$$
Dodecanonitrile
  SciTegic06161615552D

 13 12  0  0  0  0            999 V2000
    0.0000    0.0000    0.0000 C   0  0
    0.0000    0.0000    0.0000 C   0  0
    0.0000    0.0000    0.0000 C   0  0
    0.0000    0.0000    0.0000 C   0  0
    0.0000    0.0000    0.0000 C   0  0
    0.0000    0.0000    0.0000 C   0  0
    0.0000    0.0000    0.0000 C   0  0
    0.0000    0.0000    0.0000 C   0  0
    0.0000    0.0000    0.0000 C   0  0
    0.0000    0.0000    0.0000 C   0  0
    0.0000    0.0000    0.0000 C   0  0
    0.0000    0.0000    0.0000 C   0  0
    0.0000    0.0000    0.0000 N   0  0
  1  2  1  0
  2  3  1  0
  3  4  1  0
  4  5  1  0
  5  6  1  0
  6  7  1  0
  7  8  1  0
  8  9  1  0
  9 10  1  0
 10 11  1  0
 11 12  1  0
 12 13  3  0
M  END
> <Name>
Dodecanonitrile

> <SMILES>
CCCCCCCCCCCC#N

> <Reference>
SAR and QSAR in Env Res (1994) 2:159

> <Id>
CRO-247

> <Activity>
POS

> <Predicted Value>
0.993  POS

> <Used>
1

> <Status>
Sensitizer

> <isSensitizer>
1

$$$$
2-Methoxyethanol acetate
  SciTegic06161615552D

  8  7  0  0  0  0            999 V2000
    0.0000    0.0000    0.0000 C   0  0
    0.0000    0.0000    0.0000 O   0  0
    0.0000    0.0000    0.0000 C   0  0
    0.0000    0.0000    0.0000 C   0  0
    0.0000    0.0000    0.0000 O   0  0
    0.0000    0.0000    0.0000 C   0  0
    0.0000    0.0000    0.0000 C   0  0
    0.0000    0.0000    0.0000 O   0  0
  1  2  1  0
  2  3  1  0
  3  4  1  0
  4  5  1  0
  5  6  1  0
  6  7  1  0
  6  8  2  0
M  END
> <Name>
2-Methoxyethanol acetate

> <SMILES>
COCCOC(C)=O

> <Reference>
Howard I Maibach (priv comm)

> <Id>
110-49-6

> <Activity>
NEG

> <Predicted Value>
0      NEG

> <Used>
1

> <Status>
Non-Sensitizer

> <isSensitizer>
0

$$$$
Ethyl hexyl palmitate
  SciTegic06161615552D

 26 25  0  0  0  0            999 V2000
    0.0000    0.0000    0.0000 C   0  0
    0.0000    0.0000    0.0000 C   0  0
    0.0000    0.0000    0.0000 C   0  0
    0.0000    0.0000    0.0000 C   0  0
    0.0000    0.0000    0.0000 C   0  0
    0.0000    0.0000    0.0000 C   0  0
    0.0000    0.0000    0.0000 C   0  0
    0.0000    0.0000    0.0000 C   0  0
    0.0000    0.0000    0.0000 C   0  0
    0.0000    0.0000    0.0000 C   0  0
    0.0000    0.0000    0.0000 C   0  0
    0.0000    0.0000    0.0000 C   0  0
    0.0000    0.0000    0.0000 C   0  0
    0.0000    0.0000    0.0000 C   0  0
    0.0000    0.0000    0.0000 C   0  0
    0.0000    0.0000    0.0000 C   0  0
    0.0000    0.0000    0.0000 O   0  0
    0.0000    0.0000    0.0000 O   0  0
    0.0000    0.0000    0.0000 C   0  0
    0.0000    0.0000    0.0000 C   0  0
    0.0000    0.0000    0.0000 C   0  0
    0.0000    0.0000    0.0000 C   0  0
    0.0000    0.0000    0.0000 C   0  0
    0.0000    0.0000    0.0000 C   0  0
    0.0000    0.0000    0.0000 C   0  0
    0.0000    0.0000    0.0000 C   0  0
  1  2  1  0
  2  3  1  0
  3  4  1  0
  4  5  1  0
  5  6  1  0
  6  7  1  0
  7  8  1  0
  8  9  1  0
  9 10  1  0
 10 11  1  0
 11 12  1  0
 12 13  1  0
 13 14  1  0
 14 15  1  0
 15 16  1  0
 16 17  2  0
 16 18  1  0
 18 19  1  0
 19 20  1  0
 20 21  1  0
 21 22  1  0
 20 23  1  0
 23 24  1  0
 24 25  1  0
 25 26  1  0
M  END
> <Name>
Ethyl hexyl palmitate

> <SMILES>
CCCCCCCCCCCCCCCC(=O)OCC(CC)CCCC

> <Reference>
Howard I Maibach (priv comm)

> <Id>
29806-73-3

> <Activity>
NEG

> <Predicted Value>
0      NEG

> <Used>
1

> <Status>
Non-Sensitizer

> <isSensitizer>
0

$$$$
Formaldehyde
  SciTegic06161615552D

  2  1  0  0  0  0            999 V2000
    0.0000    0.0000    0.0000 C   0  0
    0.0000    0.0000    0.0000 O   0  0
  1  2  2  0
M  END
> <Name>
Formaldehyde

> <SMILES>
C=O

> <Reference>
Magnusson & Kligman (1970) Thomas; Springfield; IL.

> <Id>
50-00-0

> <Activity>
POS

> <Predicted Value>
1      POS

> <Used>
1

> <Status>
Sensitizer

> <isSensitizer>
1

$$$$
3;5;5-Trimethylhexyl acetate
  SciTegic06161615552D

 13 12  0  0  0  0            999 V2000
    0.0000    0.0000    0.0000 C   0  0
    0.0000    0.0000    0.0000 C   0  0
    0.0000    0.0000    0.0000 C   0  0
    0.0000    0.0000    0.0000 C   0  0
    0.0000    0.0000    0.0000 O   0  0
    0.0000    0.0000    0.0000 C   0  0
    0.0000    0.0000    0.0000 C   0  0
    0.0000    0.0000    0.0000 O   0  0
    0.0000    0.0000    0.0000 C   0  0
    0.0000    0.0000    0.0000 C   0  0
    0.0000    0.0000    0.0000 C   0  0
    0.0000    0.0000    0.0000 C   0  0
    0.0000    0.0000    0.0000 C   0  0
  1  2  1  0
  2  3  1  0
  3  4  1  0
  4  5  1  0
  5  6  1  0
  6  7  1  0
  6  8  2  0
  2  9  1  0
  9 10  1  0
 10 11  1  0
 10 12  1  0
 10 13  1  0
M  END
> <Name>
3;5;5-Trimethylhexyl acetate

> <SMILES>
CC(CCOC(C)=O)CC(C)(C)C

> <Reference>
SAR and QSAR in Env Res (1994) 2:159

> <Id>
58430-94-7

> <Activity>
NEG

> <Predicted Value>
0.001  NEG

> <Used>
1

> <Status>
Non-Sensitizer

> <isSensitizer>
0

$$$$
n-Decyl succinic acid
  SciTegic06161615552D

 18 17  0  0  0  0            999 V2000
    0.0000    0.0000    0.0000 C   0  0
    0.0000    0.0000    0.0000 C   0  0
    0.0000    0.0000    0.0000 C   0  0
    0.0000    0.0000    0.0000 C   0  0
    0.0000    0.0000    0.0000 C   0  0
    0.0000    0.0000    0.0000 C   0  0
    0.0000    0.0000    0.0000 C   0  0
    0.0000    0.0000    0.0000 C   0  0
    0.0000    0.0000    0.0000 C   0  0
    0.0000    0.0000    0.0000 C   0  0
    0.0000    0.0000    0.0000 O   0  0
    0.0000    0.0000    0.0000 C   0  0
    0.0000    0.0000    0.0000 O   0  0
    0.0000    0.0000    0.0000 C   0  0
    0.0000    0.0000    0.0000 C   0  0
    0.0000    0.0000    0.0000 C   0  0
    0.0000    0.0000    0.0000 O   0  0
    0.0000    0.0000    0.0000 O   0  0
  1  2  1  0
  2  3  1  0
  3  4  1  0
  4  5  1  0
  5  6  1  0
  6  7  1  0
  7  8  1  0
  8  9  1  0
  9 10  1  0
 10 11  1  0
 11 12  1  0
 12 13  2  0
 12 14  1  0
 14 15  1  0
 15 16  1  0
 16 17  1  0
 16 18  2  0
M  END
> <Name>
n-Decyl succinic acid

> <SMILES>
CCCCCCCCCCOC(=O)CCC(O)=O

> <Reference>
SAR and QSAR in Env Res (1994) 2:159

> <Id>
CRO-229

> <Activity>
POS

> <Predicted Value>
0.984  POS

> <Used>
1

> <Status>
Sensitizer

> <isSensitizer>
1

$$$$
Isodecyl oleate
  SciTegic06161615552D

 30 29  0  0  0  0            999 V2000
    0.0000    0.0000    0.0000 C   0  0
    0.0000    0.0000    0.0000 C   0  0
    0.0000    0.0000    0.0000 C   0  0
    0.0000    0.0000    0.0000 C   0  0
    0.0000    0.0000    0.0000 C   0  0
    0.0000    0.0000    0.0000 C   0  0
    0.0000    0.0000    0.0000 C   0  0
    0.0000    0.0000    0.0000 C   0  0
    0.0000    0.0000    0.0000 C   0  0
    0.0000    0.0000    0.0000 C   0  0
    0.0000    0.0000    0.0000 C   0  0
    0.0000    0.0000    0.0000 C   0  0
    0.0000    0.0000    0.0000 C   0  0
    0.0000    0.0000    0.0000 C   0  0
    0.0000    0.0000    0.0000 C   0  0
    0.0000    0.0000    0.0000 C   0  0
    0.0000    0.0000    0.0000 C   0  0
    0.0000    0.0000    0.0000 C   0  0
    0.0000    0.0000    0.0000 O   0  0
    0.0000    0.0000    0.0000 O   0  0
    0.0000    0.0000    0.0000 C   0  0
    0.0000    0.0000    0.0000 C   0  0
    0.0000    0.0000    0.0000 C   0  0
    0.0000    0.0000    0.0000 C   0  0
    0.0000    0.0000    0.0000 C   0  0
    0.0000    0.0000    0.0000 C   0  0
    0.0000    0.0000    0.0000 C   0  0
    0.0000    0.0000    0.0000 C   0  0
    0.0000    0.0000    0.0000 C   0  0
    0.0000    0.0000    0.0000 C   0  0
  1  2  1  0
  2  3  1  0
  3  4  1  0
  4  5  1  0
  5  6  1  0
  6  7  1  0
  7  8  1  0
  8  9  1  0
  9 10  2  3
 10 11  1  0
 11 12  1  0
 12 13  1  0
 13 14  1  0
 14 15  1  0
 15 16  1  0
 16 17  1  0
 17 18  1  0
 18 19  2  0
 18 20  1  0
 20 21  1  0
 21 22  1  0
 22 23  1  0
 23 24  1  0
 24 25  1  0
 25 26  1  0
 26 27  1  0
 27 28  1  0
 27 29  1  0
 27 30  1  0
M  END
> <Name>
Isodecyl oleate

> <SMILES>
CCCCCCCCC=CCCCCCCCC(=O)OCCCCCCC(C)(C)C

> <Reference>
Howard I Maibach (priv comm)

> <Id>
59231-34-4

> <Activity>
NEG

> <Predicted Value>
0      NEG

> <Used>
1

> <Status>
Non-Sensitizer

> <isSensitizer>
0

$$$$
Methyldodecane sulfonate
  SciTegic06161615552D

 17 16  0  0  0  0            999 V2000
    0.0000    0.0000    0.0000 C   0  0
    0.0000    0.0000    0.0000 C   0  0
    0.0000    0.0000    0.0000 C   0  0
    0.0000    0.0000    0.0000 C   0  0
    0.0000    0.0000    0.0000 C   0  0
    0.0000    0.0000    0.0000 C   0  0
    0.0000    0.0000    0.0000 C   0  0
    0.0000    0.0000    0.0000 C   0  0
    0.0000    0.0000    0.0000 C   0  0
    0.0000    0.0000    0.0000 C   0  0
    0.0000    0.0000    0.0000 C   0  0
    0.0000    0.0000    0.0000 C   0  0
    0.0000    0.0000    0.0000 S   0  0
    0.0000    0.0000    0.0000 O   0  0
    0.0000    0.0000    0.0000 O   0  0
    0.0000    0.0000    0.0000 O   0  0
    0.0000    0.0000    0.0000 C   0  0
  1  2  1  0
  2  3  1  0
  3  4  1  0
  4  5  1  0
  5  6  1  0
  6  7  1  0
  7  8  1  0
  8  9  1  0
  9 10  1  0
 10 11  1  0
 11 12  1  0
 12 13  1  0
 13 14  2  0
 13 15  2  0
 13 16  1  0
 16 17  1  0
M  END
> <Name>
Methyldodecane sulfonate

> <SMILES>
CCCCCCCCCCCCS(=O)(=O)OC

> <Reference>
SAR and QSAR in Env Res (1994) 2:159

> <Id>
CRO-74

> <Activity>
POS

> <Predicted Value>
1      POS

> <Used>
1

> <Status>
Sensitizer

> <isSensitizer>
1

$$$$
Methylhexadecene sulfonate
  SciTegic06161615552D

 21 20  0  0  0  0            999 V2000
    0.0000    0.0000    0.0000 C   0  0
    0.0000    0.0000    0.0000 C   0  0
    0.0000    0.0000    0.0000 C   0  0
    0.0000    0.0000    0.0000 C   0  0
    0.0000    0.0000    0.0000 C   0  0
    0.0000    0.0000    0.0000 C   0  0
    0.0000    0.0000    0.0000 C   0  0
    0.0000    0.0000    0.0000 C   0  0
    0.0000    0.0000    0.0000 C   0  0
    0.0000    0.0000    0.0000 C   0  0
    0.0000    0.0000    0.0000 C   0  0
    0.0000    0.0000    0.0000 C   0  0
    0.0000    0.0000    0.0000 C   0  0
    0.0000    0.0000    0.0000 C   0  0
    0.0000    0.0000    0.0000 C   0  0
    0.0000    0.0000    0.0000 C   0  0
    0.0000    0.0000    0.0000 S   0  0
    0.0000    0.0000    0.0000 O   0  0
    0.0000    0.0000    0.0000 O   0  0
    0.0000    0.0000    0.0000 O   0  0
    0.0000    0.0000    0.0000 C   0  0
  1  2  1  0
  2  3  1  0
  3  4  1  0
  4  5  1  0
  5  6  1  0
  6  7  1  0
  7  8  1  0
  8  9  1  0
  9 10  1  0
 10 11  1  0
 11 12  1  0
 12 13  1  0
 13 14  2  3
 14 15  1  0
 15 16  1  0
 16 17  1  0
 17 18  2  0
 17 19  2  0
 17 20  1  0
 20 21  1  0
M  END
> <Name>
Methylhexadecene sulfonate

> <SMILES>
CCCCCCCCCCCCC=CCCS(=O)(=O)OC

> <Reference>
David A Basketter (priv comm)

> <Id>
27-AOO

> <Activity>
POS

> <Predicted Value>
0.999  POS

> <Used>
1

> <Status>
Sensitizer

> <isSensitizer>
1

$$$$
Citrathal
  SciTegic06161615552D

 16 15  0  0  0  0            999 V2000
    0.0000    0.0000    0.0000 C   0  0
    0.0000    0.0000    0.0000 C   0  0
    0.0000    0.0000    0.0000 O   0  0
    0.0000    0.0000    0.0000 C   0  0
    0.0000    0.0000    0.0000 C   0  0
    0.0000    0.0000    0.0000 O   0  0
    0.0000    0.0000    0.0000 C   0  0
    0.0000    0.0000    0.0000 C   0  0
    0.0000    0.0000    0.0000 C   0  0
    0.0000    0.0000    0.0000 C   0  0
    0.0000    0.0000    0.0000 C   0  0
    0.0000    0.0000    0.0000 C   0  0
    0.0000    0.0000    0.0000 C   0  0
    0.0000    0.0000    0.0000 C   0  0
    0.0000    0.0000    0.0000 C   0  0
    0.0000    0.0000    0.0000 C   0  0
  1  2  1  0
  2  3  1  0
  3  4  1  0
  4  5  1  0
  5  6  1  0
  6  7  1  0
  7  8  1  0
  5  9  2  3
  9 10  1  0
  9 11  1  0
 11 12  1  0
 12 13  1  0
 13 14  2  3
 14 15  1  0
 14 16  1  0
M  END
> <Name>
Citrathal

> <SMILES>
CCOCC(OCC)=C(C)CCC=C(C)C

> <Reference>
SAR and QSAR in Env Res (1994) 2:159

> <Id>
CRO-191

> <Activity>
POS

> <Predicted Value>
0.998  POS

> <Used>
1

> <Status>
Sensitizer

> <isSensitizer>
1

$$$$
4-Acetoxy-3-N-pentyltetrahydropyran
  SciTegic06161615552D

 15 15  0  0  0  0            999 V2000
    0.0000    0.0000    0.0000 C   0  0
    0.0000    0.0000    0.0000 C   0  0
    0.0000    0.0000    0.0000 C   0  0
    0.0000    0.0000    0.0000 C   0  0
    0.0000    0.0000    0.0000 C   0  0
    0.0000    0.0000    0.0000 C   0  0
    0.0000    0.0000    0.0000 C   0  0
    0.0000    0.0000    0.0000 O   0  0
    0.0000    0.0000    0.0000 C   0  0
    0.0000    0.0000    0.0000 C   0  0
    0.0000    0.0000    0.0000 C   0  0
    0.0000    0.0000    0.0000 O   0  0
    0.0000    0.0000    0.0000 C   0  0
    0.0000    0.0000    0.0000 C   0  0
    0.0000    0.0000    0.0000 O   0  0
  1  2  1  0
  2  3  1  0
  3  4  1  0
  4  5  1  0
  5  6  1  0
  6  7  1  0
  7  8  1  0
  8  9  1  0
  9 10  1  0
 10 11  1  0
 11  6  1  0
 11 12  1  0
 12 13  1  0
 13 14  1  0
 13 15  2  0
M  END
> <Name>
4-Acetoxy-3-N-pentyltetrahydropyran

> <SMILES>
CCCCCC1COCCC1OC(C)=O

> <Reference>
SAR and QSAR in Env Res (1994) 2:159

> <Id>
18871-14-2

> <Activity>
POS

> <Predicted Value>
0.998  POS

> <Used>
1

> <Status>
Sensitizer

> <isSensitizer>
1

$$$$
2-Butoxyethanol
  SciTegic06161615552D

  8  7  0  0  0  0            999 V2000
    0.0000    0.0000    0.0000 C   0  0
    0.0000    0.0000    0.0000 C   0  0
    0.0000    0.0000    0.0000 C   0  0
    0.0000    0.0000    0.0000 C   0  0
    0.0000    0.0000    0.0000 O   0  0
    0.0000    0.0000    0.0000 C   0  0
    0.0000    0.0000    0.0000 C   0  0
    0.0000    0.0000    0.0000 O   0  0
  1  2  1  0
  2  3  1  0
  3  4  1  0
  4  5  1  0
  5  6  1  0
  6  7  1  0
  7  8  1  0
M  END
> <Name>
2-Butoxyethanol

> <SMILES>
CCCCOCCO

> <Reference>
Contact Dermatitis (1995) 32:74

> <Id>
111-76-2

> <Activity>
NEG

> <Predicted Value>
0.002  NEG

> <Used>
1

> <Status>
Non-Sensitizer

> <isSensitizer>
0

$$$$
Dilauryl thiodipropionate
  SciTegic06161615552D

 33 32  0  0  0  0            999 V2000
    0.0000    0.0000    0.0000 C   0  0
    0.0000    0.0000    0.0000 C   0  0
    0.0000    0.0000    0.0000 C   0  0
    0.0000    0.0000    0.0000 C   0  0
    0.0000    0.0000    0.0000 C   0  0
    0.0000    0.0000    0.0000 C   0  0
    0.0000    0.0000    0.0000 C   0  0
    0.0000    0.0000    0.0000 C   0  0
    0.0000    0.0000    0.0000 C   0  0
    0.0000    0.0000    0.0000 C   0  0
    0.0000    0.0000    0.0000 C   0  0
    0.0000    0.0000    0.0000 C   0  0
    0.0000    0.0000    0.0000 O   0  0
    0.0000    0.0000    0.0000 C   0  0
    0.0000    0.0000    0.0000 O   0  0
    0.0000    0.0000    0.0000 C   0  0
    0.0000    0.0000    0.0000 S   0  0
    0.0000    0.0000    0.0000 C   0  0
    0.0000    0.0000    0.0000 C   0  0
    0.0000    0.0000    0.0000 O   0  0
    0.0000    0.0000    0.0000 O   0  0
    0.0000    0.0000    0.0000 C   0  0
    0.0000    0.0000    0.0000 C   0  0
    0.0000    0.0000    0.0000 C   0  0
    0.0000    0.0000    0.0000 C   0  0
    0.0000    0.0000    0.0000 C   0  0
    0.0000    0.0000    0.0000 C   0  0
    0.0000    0.0000    0.0000 C   0  0
    0.0000    0.0000    0.0000 C   0  0
    0.0000    0.0000    0.0000 C   0  0
    0.0000    0.0000    0.0000 C   0  0
    0.0000    0.0000    0.0000 C   0  0
    0.0000    0.0000    0.0000 C   0  0
  1  2  1  0
  2  3  1  0
  3  4  1  0
  4  5  1  0
  5  6  1  0
  6  7  1  0
  7  8  1  0
  8  9  1  0
  9 10  1  0
 10 11  1  0
 11 12  1  0
 12 13  1  0
 13 14  1  0
 14 15  2  0
 14 16  1  0
 16 17  1  0
 17 18  1  0
 18 19  1  0
 19 20  2  0
 19 21  1  0
 21 22  1  0
 22 23  1  0
 23 24  1  0
 24 25  1  0
 25 26  1  0
 26 27  1  0
 27 28  1  0
 28 29  1  0
 29 30  1  0
 30 31  1  0
 31 32  1  0
 32 33  1  0
M  END
> <Name>
Dilauryl thiodipropionate

> <SMILES>
CCCCCCCCCCCCOC(=O)CSCC(=O)OCCCCCCCCCCCC

> <Reference>
J Am Coll Toxicol (1992) 11(1):25

> <Id>
123-28-4

> <Activity>
NEG

> <Predicted Value>
0      NEG

> <Used>
1

> <Status>
Non-Sensitizer

> <isSensitizer>
0

$$$$
Butyl dioxitol
  SciTegic06161615552D

 11 10  0  0  0  0            999 V2000
    0.0000    0.0000    0.0000 C   0  0
    0.0000    0.0000    0.0000 C   0  0
    0.0000    0.0000    0.0000 C   0  0
    0.0000    0.0000    0.0000 C   0  0
    0.0000    0.0000    0.0000 O   0  0
    0.0000    0.0000    0.0000 C   0  0
    0.0000    0.0000    0.0000 C   0  0
    0.0000    0.0000    0.0000 O   0  0
    0.0000    0.0000    0.0000 C   0  0
    0.0000    0.0000    0.0000 C   0  0
    0.0000    0.0000    0.0000 O   0  0
  1  2  1  0
  2  3  1  0
  3  4  1  0
  4  5  1  0
  5  6  1  0
  6  7  1  0
  7  8  1  0
  8  9  1  0
  9 10  1  0
 10 11  1  0
M  END
> <Name>
Butyl dioxitol

> <SMILES>
CCCCOCCOCCO

> <Reference>
SAR and QSAR in Env Res (1994) 2:159

> <Id>
CRO-132

> <Activity>
NEG

> <Predicted Value>
0      NEG

> <Used>
1

> <Status>
Non-Sensitizer

> <isSensitizer>
0

$$$$
Dimethyl sulfoxide
  SciTegic06161615552D

  4  3  0  0  0  0            999 V2000
    0.0000    0.0000    0.0000 C   0  0
    0.0000    0.0000    0.0000 S   0  0
    0.0000    0.0000    0.0000 C   0  0
    0.0000    0.0000    0.0000 O   0  0
  1  2  1  0
  2  3  1  0
  2  4  2  0
M  END
> <Name>
Dimethyl sulfoxide

> <SMILES>
CS(C)=O

> <Reference>
Contact Dermatitis (1994) 31:72

> <Id>
67-68-5

> <Activity>
NEG

> <Predicted Value>
0.04   NEG

> <Used>
1

> <Status>
Non-Sensitizer

> <isSensitizer>
0

$$$$
2-Ethoxyethanol
  SciTegic06161615552D

  6  5  0  0  0  0            999 V2000
    0.0000    0.0000    0.0000 C   0  0
    0.0000    0.0000    0.0000 C   0  0
    0.0000    0.0000    0.0000 O   0  0
    0.0000    0.0000    0.0000 C   0  0
    0.0000    0.0000    0.0000 C   0  0
    0.0000    0.0000    0.0000 O   0  0
  1  2  1  0
  2  3  1  0
  3  4  1  0
  4  5  1  0
  5  6  1  0
M  END
> <Name>
2-Ethoxyethanol

> <SMILES>
CCOCCO

> <Reference>
Contact Dermatitis (1995) 32:74

> <Id>
110-80-5

> <Activity>
NEG

> <Predicted Value>
0      NEG

> <Used>
1

> <Status>
Non-Sensitizer

> <isSensitizer>
0

$$$$
2-Di-(ethylhexyl)adipate
  SciTegic06161615552D

 26 25  0  0  0  0            999 V2000
    0.0000    0.0000    0.0000 C   0  0
    0.0000    0.0000    0.0000 C   0  0
    0.0000    0.0000    0.0000 C   0  0
    0.0000    0.0000    0.0000 C   0  0
    0.0000    0.0000    0.0000 C   0  0
    0.0000    0.0000    0.0000 C   0  0
    0.0000    0.0000    0.0000 C   0  0
    0.0000    0.0000    0.0000 C   0  0
    0.0000    0.0000    0.0000 O   0  0
    0.0000    0.0000    0.0000 C   0  0
    0.0000    0.0000    0.0000 O   0  0
    0.0000    0.0000    0.0000 C   0  0
    0.0000    0.0000    0.0000 C   0  0
    0.0000    0.0000    0.0000 C   0  0
    0.0000    0.0000    0.0000 C   0  0
    0.0000    0.0000    0.0000 C   0  0
    0.0000    0.0000    0.0000 O   0  0
    0.0000    0.0000    0.0000 O   0  0
    0.0000    0.0000    0.0000 C   0  0
    0.0000    0.0000    0.0000 C   0  0
    0.0000    0.0000    0.0000 C   0  0
    0.0000    0.0000    0.0000 C   0  0
    0.0000    0.0000    0.0000 C   0  0
    0.0000    0.0000    0.0000 C   0  0
    0.0000    0.0000    0.0000 C   0  0
    0.0000    0.0000    0.0000 C   0  0
  1  2  1  0
  2  3  1  0
  3  4  1  0
  4  5  1  0
  5  6  1  0
  6  7  1  0
  5  8  1  0
  8  9  1  0
  9 10  1  0
 10 11  2  0
 10 12  1  0
 12 13  1  0
 13 14  1  0
 14 15  1  0
 15 16  1  0
 16 17  2  0
 16 18  1  0
 18 19  1  0
 19 20  1  0
 20 21  1  0
 21 22  1  0
 20 23  1  0
 23 24  1  0
 24 25  1  0
 25 26  1  0
M  END
> <Name>
2-Di-(ethylhexyl)adipate

> <SMILES>
CCCCC(CC)COC(=O)CCCCC(=O)OCC(CC)CCCC

> <Reference>
Howard I Maibach (priv comm)

> <Id>
103-23-1

> <Activity>
NEG

> <Predicted Value>
0.027  NEG

> <Used>
1

> <Status>
Non-Sensitizer

> <isSensitizer>
0

$$$$
2-Heptylcyclopentanone
  SciTegic06161615552D

 13 13  0  0  0  0            999 V2000
    0.0000    0.0000    0.0000 C   0  0
    0.0000    0.0000    0.0000 C   0  0
    0.0000    0.0000    0.0000 C   0  0
    0.0000    0.0000    0.0000 C   0  0
    0.0000    0.0000    0.0000 C   0  0
    0.0000    0.0000    0.0000 C   0  0
    0.0000    0.0000    0.0000 C   0  0
    0.0000    0.0000    0.0000 C   0  0
    0.0000    0.0000    0.0000 C   0  0
    0.0000    0.0000    0.0000 C   0  0
    0.0000    0.0000    0.0000 C   0  0
    0.0000    0.0000    0.0000 C   0  0
    0.0000    0.0000    0.0000 O   0  0
  1  2  1  0
  2  3  1  0
  3  4  1  0
  4  5  1  0
  5  6  1  0
  6  7  1  0
  7  8  1  0
  8  9  1  0
  9 10  1  0
 10 11  1  0
 11 12  1  0
 12  8  1  0
 12 13  2  0
M  END
> <Name>
2-Heptylcyclopentanone

> <SMILES>
CCCCCCCC1CCCC1=O

> <Reference>
SAR and QSAR in Env Res (1994) 2:159

> <Id>
CRO-213

> <Activity>
NEG

> <Predicted Value>
0.732  POS

> <Used>
1

> <Status>
Non-Sensitizer

> <isSensitizer>
0

$$$$
2-Hexylcyclopentanone
  SciTegic06161615552D

 12 12  0  0  0  0            999 V2000
    0.0000    0.0000    0.0000 C   0  0
    0.0000    0.0000    0.0000 C   0  0
    0.0000    0.0000    0.0000 C   0  0
    0.0000    0.0000    0.0000 C   0  0
    0.0000    0.0000    0.0000 C   0  0
    0.0000    0.0000    0.0000 C   0  0
    0.0000    0.0000    0.0000 C   0  0
    0.0000    0.0000    0.0000 C   0  0
    0.0000    0.0000    0.0000 C   0  0
    0.0000    0.0000    0.0000 C   0  0
    0.0000    0.0000    0.0000 C   0  0
    0.0000    0.0000    0.0000 O   0  0
  1  2  1  0
  2  3  1  0
  3  4  1  0
  4  5  1  0
  5  6  1  0
  6  7  1  0
  7  8  1  0
  8  9  1  0
  9 10  1  0
 10 11  1  0
 11  7  1  0
 11 12  2  0
M  END
> <Name>
2-Hexylcyclopentanone

> <SMILES>
CCCCCCC1CCCC1=O

> <Reference>
SAR and QSAR in Env Res (1994) 2:159

> <Id>
13074-65-2

> <Activity>
POS

> <Predicted Value>
0.793  POS

> <Used>
1

> <Status>
Sensitizer

> <isSensitizer>
1

$$$$
4;4'-(2-Ethyl-2-nitromethylene)-dimorpholine
  SciTegic06161615552D

 20 21  0  0  0  0            999 V2000
    0.0000    0.0000    0.0000 C   0  0
    0.0000    0.0000    0.0000 C   0  0
    0.0000    0.0000    0.0000 C   0  0
    0.0000    0.0000    0.0000 C   0  0
    0.0000    0.0000    0.0000 N   0  0
    0.0000    0.0000    0.0000 C   0  0
    0.0000    0.0000    0.0000 C   0  0
    0.0000    0.0000    0.0000 O   0  0
    0.0000    0.0000    0.0000 C   0  0
    0.0000    0.0000    0.0000 C   0  0
    0.0000    0.0000    0.0000 C   0  0
    0.0000    0.0000    0.0000 N   0  0
    0.0000    0.0000    0.0000 C   0  0
    0.0000    0.0000    0.0000 C   0  0
    0.0000    0.0000    0.0000 O   0  0
    0.0000    0.0000    0.0000 C   0  0
    0.0000    0.0000    0.0000 C   0  0
    0.0000    0.0000    0.0000 N   0  0
    0.0000    0.0000    0.0000 O   0  0
    0.0000    0.0000    0.0000 O   0  0
  1  2  1  0
  2  3  1  0
  3  4  1  0
  4  5  1  0
  5  6  1  0
  6  7  1  0
  7  8  1  0
  8  9  1  0
  9 10  1  0
 10  5  1  0
  3 11  1  0
 11 12  1  0
 12 13  1  0
 13 14  1  0
 14 15  1  0
 15 16  1  0
 16 17  1  0
 17 12  1  0
  3 18  1  0
 18 19  2  0
 18 20  2  0
M  END
> <Name>
4;4'-(2-Ethyl-2-nitromethylene)-dimorpholine

> <SMILES>
CCC(CN1CCOCC1)(CN2CCOCC2)N(=O)=O

> <Reference>
Dermatosen (1995) 43:126

> <Id>
1854-23-5

> <Activity>
POS

> <Predicted Value>
0.996  POS

> <Used>
1

> <Status>
Sensitizer

> <isSensitizer>
1

$$$$
Methyl laurate
  SciTegic06161615552D

 15 14  0  0  0  0            999 V2000
    0.0000    0.0000    0.0000 C   0  0
    0.0000    0.0000    0.0000 C   0  0
    0.0000    0.0000    0.0000 C   0  0
    0.0000    0.0000    0.0000 C   0  0
    0.0000    0.0000    0.0000 C   0  0
    0.0000    0.0000    0.0000 C   0  0
    0.0000    0.0000    0.0000 C   0  0
    0.0000    0.0000    0.0000 C   0  0
    0.0000    0.0000    0.0000 C   0  0
    0.0000    0.0000    0.0000 C   0  0
    0.0000    0.0000    0.0000 C   0  0
    0.0000    0.0000    0.0000 C   0  0
    0.0000    0.0000    0.0000 O   0  0
    0.0000    0.0000    0.0000 O   0  0
    0.0000    0.0000    0.0000 C   0  0
  1  2  1  0
  2  3  1  0
  3  4  1  0
  4  5  1  0
  5  6  1  0
  6  7  1  0
  7  8  1  0
  8  9  1  0
  9 10  1  0
 10 11  1  0
 11 12  1  0
 12 13  2  0
 12 14  1  0
 14 15  1  0
M  END
> <Name>
Methyl laurate

> <SMILES>
CCCCCCCCCCCC(=O)OC

> <Reference>
SAR and QSAR in Env Res (1994) 2:159

> <Id>
111-82-0

> <Activity>
NEG

> <Predicted Value>
0.333  IND

> <Used>
1

> <Status>
Non-Sensitizer

> <isSensitizer>
0

$$$$
n-Octylpyrrolidone
  SciTegic06161615552D

 24 24  0  0  0  0            999 V2000
    0.0000    0.0000    0.0000 C   0  0
    0.0000    0.0000    0.0000 C   0  0
    0.0000    0.0000    0.0000 C   0  0
    0.0000    0.0000    0.0000 C   0  0
    0.0000    0.0000    0.0000 C   0  0
    0.0000    0.0000    0.0000 C   0  0
    0.0000    0.0000    0.0000 C   0  0
    0.0000    0.0000    0.0000 C   0  0
    0.0000    0.0000    0.0000 C   0  0
    0.0000    0.0000    0.0000 C   0  0
    0.0000    0.0000    0.0000 C   0  0
    0.0000    0.0000    0.0000 C   0  0
    0.0000    0.0000    0.0000 C   0  0
    0.0000    0.0000    0.0000 C   0  0
    0.0000    0.0000    0.0000 C   0  0
    0.0000    0.0000    0.0000 C   0  0
    0.0000    0.0000    0.0000 C   0  0
    0.0000    0.0000    0.0000 C   0  0
    0.0000    0.0000    0.0000 N   0  0
    0.0000    0.0000    0.0000 C   0  0
    0.0000    0.0000    0.0000 C   0  0
    0.0000    0.0000    0.0000 C   0  0
    0.0000    0.0000    0.0000 C   0  0
    0.0000    0.0000    0.0000 O   0  0
  1  2  1  0
  2  3  1  0
  3  4  1  0
  4  5  1  0
  5  6  1  0
  6  7  1  0
  7  8  1  0
  8  9  1  0
  9 10  1  0
 10 11  1  0
 11 12  1  0
 12 13  1  0
 13 14  1  0
 14 15  1  0
 15 16  1  0
 16 17  1  0
 17 18  1  0
 18 19  1  0
 19 20  1  0
 20 21  1  0
 21 22  1  0
 22 23  1  0
 23 19  1  0
 23 24  2  0
M  END
> <Name>
n-Octylpyrrolidone

> <SMILES>
CCCCCCCCCCCCCCCCCCN1CCCC1=O

> <Reference>
SAR and QSAR in Env Res (1994) 2:159

> <Id>
7425-87-8

> <Activity>
NEG

> <Predicted Value>
0.003  NEG

> <Used>
1

> <Status>
Non-Sensitizer

> <isSensitizer>
0

$$$$
Acrylic acid 6-acryloyloxy-hexyl ester
  SciTegic06161615552D

 16 15  0  0  0  0            999 V2000
    0.0000    0.0000    0.0000 C   0  0
    0.0000    0.0000    0.0000 C   0  0
    0.0000    0.0000    0.0000 C   0  0
    0.0000    0.0000    0.0000 O   0  0
    0.0000    0.0000    0.0000 O   0  0
    0.0000    0.0000    0.0000 C   0  0
    0.0000    0.0000    0.0000 C   0  0
    0.0000    0.0000    0.0000 C   0  0
    0.0000    0.0000    0.0000 C   0  0
    0.0000    0.0000    0.0000 C   0  0
    0.0000    0.0000    0.0000 C   0  0
    0.0000    0.0000    0.0000 O   0  0
    0.0000    0.0000    0.0000 C   0  0
    0.0000    0.0000    0.0000 O   0  0
    0.0000    0.0000    0.0000 C   0  0
    0.0000    0.0000    0.0000 C   0  0
  1  2  2  0
  2  3  1  0
  3  4  2  0
  3  5  1  0
  5  6  1  0
  6  7  1  0
  7  8  1  0
  8  9  1  0
  9 10  1  0
 10 11  1  0
 11 12  1  0
 12 13  1  0
 13 14  2  0
 13 15  1  0
 15 16  2  0
M  END
> <Name>
Acrylic acid 6-acryloyloxy-hexyl ester

> <SMILES>
C=CC(=O)OCCCCCCOC(=O)C=C

> <Id>
13048-33-4

> <Activity>
POS

> <Predicted Value>
1      POS

> <Used>
1

> <Status>
Sensitizer

> <isSensitizer>
1

$$$$
Isopropoxyethanol
  SciTegic06161615552D

  7  6  0  0  0  0            999 V2000
    0.0000    0.0000    0.0000 C   0  0
    0.0000    0.0000    0.0000 C   0  0
    0.0000    0.0000    0.0000 C   0  0
    0.0000    0.0000    0.0000 O   0  0
    0.0000    0.0000    0.0000 C   0  0
    0.0000    0.0000    0.0000 C   0  0
    0.0000    0.0000    0.0000 O   0  0
  1  2  1  0
  2  3  1  0
  2  4  1  0
  4  5  1  0
  5  6  1  0
  6  7  1  0
M  END
> <Name>
Isopropoxyethanol

> <SMILES>
CC(C)OCCO

> <Reference>
Contact Dermatitis (1995) 32:74

> <Id>
109-59-1

> <Activity>
NEG

> <Predicted Value>
0      NEG

> <Used>
1

> <Status>
Non-Sensitizer

> <isSensitizer>
0

$$$$
2-Methoxyethanol
  SciTegic06161615552D

  5  4  0  0  0  0            999 V2000
    0.0000    0.0000    0.0000 C   0  0
    0.0000    0.0000    0.0000 O   0  0
    0.0000    0.0000    0.0000 C   0  0
    0.0000    0.0000    0.0000 C   0  0
    0.0000    0.0000    0.0000 O   0  0
  1  2  1  0
  2  3  1  0
  3  4  1  0
  4  5  1  0
M  END
> <Name>
2-Methoxyethanol

> <SMILES>
COCCO

> <Reference>
Contact Dermatitis (1995) 32:74

> <Id>
109-86-4

> <Activity>
NEG

> <Predicted Value>
0      NEG

> <Used>
1

> <Status>
Non-Sensitizer

> <isSensitizer>
0

$$$$
Pernonanoic acid
  SciTegic06161615552D

 12 11  0  0  0  0            999 V2000
    0.0000    0.0000    0.0000 C   0  0
    0.0000    0.0000    0.0000 C   0  0
    0.0000    0.0000    0.0000 C   0  0
    0.0000    0.0000    0.0000 C   0  0
    0.0000    0.0000    0.0000 C   0  0
    0.0000    0.0000    0.0000 C   0  0
    0.0000    0.0000    0.0000 C   0  0
    0.0000    0.0000    0.0000 C   0  0
    0.0000    0.0000    0.0000 C   0  0
    0.0000    0.0000    0.0000 O   0  0
    0.0000    0.0000    0.0000 O   0  0
    0.0000    0.0000    0.0000 O   0  0
  1  2  1  0
  2  3  1  0
  3  4  1  0
  4  5  1  0
  5  6  1  0
  6  7  1  0
  7  8  1  0
  8  9  1  0
  9 10  2  0
  9 11  1  0
 11 12  1  0
M  END
> <Name>
Pernonanoic acid

> <SMILES>
CCCCCCCCC(=O)OO

> <Reference>
SAR and QSAR in Env Res (1994) 2:159

> <Id>
CRO-186

> <Activity>
NEG

> <Predicted Value>
0.648  IND

> <Used>
1

> <Status>
Non-Sensitizer

> <isSensitizer>
0

$$$$
2-Pentylcyclopent-2-enone
  SciTegic06161615552D

 11 11  0  0  0  0            999 V2000
    0.0000    0.0000    0.0000 C   0  0
    0.0000    0.0000    0.0000 C   0  0
    0.0000    0.0000    0.0000 C   0  0
    0.0000    0.0000    0.0000 C   0  0
    0.0000    0.0000    0.0000 C   0  0
    0.0000    0.0000    0.0000 C   0  0
    0.0000    0.0000    0.0000 C   0  0
    0.0000    0.0000    0.0000 C   0  0
    0.0000    0.0000    0.0000 C   0  0
    0.0000    0.0000    0.0000 C   0  0
    0.0000    0.0000    0.0000 O   0  0
  1  2  1  0
  2  3  1  0
  3  4  1  0
  4  5  1  0
  5  6  1  0
  6  7  2  3
  7  8  1  0
  8  9  1  0
  9 10  1  0
 10  6  1  0
 10 11  2  0
M  END
> <Name>
2-Pentylcyclopent-2-enone

> <SMILES>
CCCCCC1=CCCC1=O

> <Reference>
SAR and QSAR in Env Res (1994) 2:159

> <Id>
CRO-218

> <Activity>
POS

> <Predicted Value>
1      POS

> <Used>
1

> <Status>
Sensitizer

> <isSensitizer>
1

$$$$
Ethyl pyrrolidone carboxylic acid
  SciTegic06161615552D

 11 11  0  0  0  0            999 V2000
    0.0000    0.0000    0.0000 C   0  0
    0.0000    0.0000    0.0000 C   0  0
    0.0000    0.0000    0.0000 O   0  0
    0.0000    0.0000    0.0000 C   0  0
    0.0000    0.0000    0.0000 O   0  0
    0.0000    0.0000    0.0000 C   0  0
    0.0000    0.0000    0.0000 C   0  0
    0.0000    0.0000    0.0000 C   0  0
    0.0000    0.0000    0.0000 C   0  0
    0.0000    0.0000    0.0000 O   0  0
    0.0000    0.0000    0.0000 N   0  0
  1  2  1  0
  2  3  1  0
  3  4  1  0
  4  5  2  0
  4  6  1  0
  6  7  1  0
  7  8  1  0
  8  9  1  0
  9 10  2  0
  9 11  1  0
 11  6  1  0
M  END
> <Name>
Ethyl pyrrolidone carboxylic acid

> <SMILES>
CCOC(=O)C1CCC(=O)N1

> <Reference>
SAR and QSAR in Env Res (1994) 2:159

> <Id>
CRO-275

> <Activity>
POS

> <Predicted Value>
0.907  POS

> <Used>
1

> <Status>
Sensitizer

> <isSensitizer>
1

$$$$
2-Heptylidene-cyclopentanone
  SciTegic06161615552D

 13 13  0  0  0  0            999 V2000
    0.0000    0.0000    0.0000 C   0  0
    0.0000    0.0000    0.0000 C   0  0
    0.0000    0.0000    0.0000 C   0  0
    0.0000    0.0000    0.0000 C   0  0
    0.0000    0.0000    0.0000 C   0  0
    0.0000    0.0000    0.0000 C   0  0
    0.0000    0.0000    0.0000 C   0  0
    0.0000    0.0000    0.0000 C   0  0
    0.0000    0.0000    0.0000 C   0  0
    0.0000    0.0000    0.0000 C   0  0
    0.0000    0.0000    0.0000 C   0  0
    0.0000    0.0000    0.0000 C   0  0
    0.0000    0.0000    0.0000 O   0  0
  1  2  1  0
  2  3  1  0
  3  4  1  0
  4  5  1  0
  5  6  1  0
  6  7  1  0
  7  8  2  3
  8  9  1  0
  9 10  1  0
 10 11  1  0
 11 12  1  0
 12  8  1  0
 12 13  2  0
M  END
> <Name>
2-Heptylidene-cyclopentanone

> <SMILES>
CCCCCCC=C1CCCC1=O

> <Reference>
SAR and QSAR in Env Res (1994) 2:159

> <Id>
CRO-231

> <Activity>
POS

> <Predicted Value>
1      POS

> <Used>
1

> <Status>
Sensitizer

> <isSensitizer>
1

$$$$
2-Pentylidene-cyclopentanone
  SciTegic06161615552D

 11 11  0  0  0  0            999 V2000
    0.0000    0.0000    0.0000 C   0  0
    0.0000    0.0000    0.0000 C   0  0
    0.0000    0.0000    0.0000 C   0  0
    0.0000    0.0000    0.0000 C   0  0
    0.0000    0.0000    0.0000 C   0  0
    0.0000    0.0000    0.0000 C   0  0
    0.0000    0.0000    0.0000 C   0  0
    0.0000    0.0000    0.0000 C   0  0
    0.0000    0.0000    0.0000 C   0  0
    0.0000    0.0000    0.0000 C   0  0
    0.0000    0.0000    0.0000 O   0  0
  1  2  1  0
  2  3  1  0
  3  4  1  0
  4  5  1  0
  5  6  2  3
  6  7  1  0
  7  8  1  0
  8  9  1  0
  9 10  1  0
 10  6  1  0
 10 11  2  0
M  END
> <Name>
2-Pentylidene-cyclopentanone

> <SMILES>
CCCCC=C1CCCC1=O

> <Reference>
SAR and QSAR in Env Res (1994) 2:159

> <Id>
CRO-233

> <Activity>
POS

> <Predicted Value>
1      POS

> <Used>
1

> <Status>
Sensitizer

> <isSensitizer>
1

$$$$
Oleic acid
  SciTegic06161615552D

 20 19  0  0  0  0            999 V2000
    0.0000    0.0000    0.0000 C   0  0
    0.0000    0.0000    0.0000 C   0  0
    0.0000    0.0000    0.0000 C   0  0
    0.0000    0.0000    0.0000 C   0  0
    0.0000    0.0000    0.0000 C   0  0
    0.0000    0.0000    0.0000 C   0  0
    0.0000    0.0000    0.0000 C   0  0
    0.0000    0.0000    0.0000 C   0  0
    0.0000    0.0000    0.0000 C   0  0
    0.0000    0.0000    0.0000 C   0  0
    0.0000    0.0000    0.0000 C   0  0
    0.0000    0.0000    0.0000 C   0  0
    0.0000    0.0000    0.0000 C   0  0
    0.0000    0.0000    0.0000 C   0  0
    0.0000    0.0000    0.0000 C   0  0
    0.0000    0.0000    0.0000 C   0  0
    0.0000    0.0000    0.0000 C   0  0
    0.0000    0.0000    0.0000 C   0  0
    0.0000    0.0000    0.0000 O   0  0
    0.0000    0.0000    0.0000 O   0  0
  1  2  1  0
  2  3  1  0
  3  4  1  0
  4  5  1  0
  5  6  1  0
  6  7  1  0
  7  8  1  0
  8  9  1  0
  9 10  2  3
 10 11  1  0
 11 12  1  0
 12 13  1  0
 13 14  1  0
 14 15  1  0
 15 16  1  0
 16 17  1  0
 17 18  1  0
 18 19  1  0
 18 20  2  0
M  END
> <Name>
Oleic acid

> <SMILES>
CCCCCCCCC=CCCCCCCCC(O)=O

> <Reference>
J Am Coll Toxicol (1987) 6(3):321

> <Id>
112-80-1

> <Activity>
NEG

> <Predicted Value>
0.008  NEG

> <Used>
1

> <Status>
Non-Sensitizer

> <isSensitizer>
0

$$$$
Octalactone
  SciTegic06161615552D

 10 10  0  0  0  0            999 V2000
    0.0000    0.0000    0.0000 C   0  0
    0.0000    0.0000    0.0000 C   0  0
    0.0000    0.0000    0.0000 C   0  0
    0.0000    0.0000    0.0000 C   0  0
    0.0000    0.0000    0.0000 C   0  0
    0.0000    0.0000    0.0000 C   0  0
    0.0000    0.0000    0.0000 C   0  0
    0.0000    0.0000    0.0000 O   0  0
    0.0000    0.0000    0.0000 C   0  0
    0.0000    0.0000    0.0000 O   0  0
  1  2  1  0
  2  3  1  0
  3  4  1  0
  4  5  1  0
  5  6  1  0
  6  7  1  0
  7  8  1  0
  8  9  1  0
  9  5  1  0
  9 10  2  0
M  END
> <Name>
Octalactone

> <SMILES>
CCCCC1CCOC1=O

> <Reference>
SAR and QSAR in Env Res (1994) 2:159

> <Id>
CRO-88

> <Activity>
NEG

> <Predicted Value>
0.007  NEG

> <Used>
1

> <Status>
Non-Sensitizer

> <isSensitizer>
0

$$$$
Ethyl lactate
  SciTegic06161615552D

  8  7  0  0  0  0            999 V2000
    0.0000    0.0000    0.0000 C   0  0
    0.0000    0.0000    0.0000 C   0  0
    0.0000    0.0000    0.0000 O   0  0
    0.0000    0.0000    0.0000 C   0  0
    0.0000    0.0000    0.0000 O   0  0
    0.0000    0.0000    0.0000 C   0  0
    0.0000    0.0000    0.0000 C   0  0
    0.0000    0.0000    0.0000 O   0  0
  1  2  1  0
  2  3  1  0
  3  4  1  0
  4  5  2  0
  4  6  1  0
  6  7  1  0
  6  8  1  0
M  END
> <Name>
Ethyl lactate

> <SMILES>
CCOC(=O)C(C)O

> <Reference>
SAR and QSAR in Env Res (1994) 2:159

> <Id>
97-64-3

> <Activity>
NEG

> <Predicted Value>
0      NEG

> <Used>
1

> <Status>
Non-Sensitizer

> <isSensitizer>
0

$$$$
Isobutyl(methylthio)butyrate
  SciTegic06161615552D

 12 11  0  0  0  0            999 V2000
    0.0000    0.0000    0.0000 C   0  0
    0.0000    0.0000    0.0000 S   0  0
    0.0000    0.0000    0.0000 C   0  0
    0.0000    0.0000    0.0000 C   0  0
    0.0000    0.0000    0.0000 C   0  0
    0.0000    0.0000    0.0000 C   0  0
    0.0000    0.0000    0.0000 O   0  0
    0.0000    0.0000    0.0000 O   0  0
    0.0000    0.0000    0.0000 C   0  0
    0.0000    0.0000    0.0000 C   0  0
    0.0000    0.0000    0.0000 C   0  0
    0.0000    0.0000    0.0000 C   0  0
  1  2  1  0
  2  3  1  0
  3  4  1  0
  3  5  1  0
  5  6  1  0
  6  7  2  0
  6  8  1  0
  8  9  1  0
  9 10  1  0
 10 11  1  0
 10 12  1  0
M  END
> <Name>
Isobutyl(methylthio)butyrate

> <SMILES>
CSC(C)CC(=O)OCC(C)C

> <Reference>
SAR and QSAR in Env Res (1994) 2:159

> <Id>
CRO-300

> <Activity>
NEG

> <Predicted Value>
0      NEG

> <Used>
1

> <Status>
Non-Sensitizer

> <isSensitizer>
0

$$$$
Hydroxycitronellal
  SciTegic06161615552D

 12 11  0  0  0  0            999 V2000
    0.0000    0.0000    0.0000 C   0  0
    0.0000    0.0000    0.0000 C   0  0
    0.0000    0.0000    0.0000 C   0  0
    0.0000    0.0000    0.0000 C   0  0
    0.0000    0.0000    0.0000 C   0  0
    0.0000    0.0000    0.0000 C   0  0
    0.0000    0.0000    0.0000 C   0  0
    0.0000    0.0000    0.0000 C   0  0
    0.0000    0.0000    0.0000 O   0  0
    0.0000    0.0000    0.0000 C   0  0
    0.0000    0.0000    0.0000 C   0  0
    0.0000    0.0000    0.0000 O   0  0
  1  2  1  0
  2  3  1  0
  3  4  1  0
  4  5  1  0
  5  6  1  0
  6  7  1  0
  6  8  1  0
  6  9  1  0
  2 10  1  0
 10 11  1  0
 11 12  2  0
M  END
> <Name>
Hydroxycitronellal

> <SMILES>
CC(CCCC(C)(C)O)CC=O

> <Reference>
SAR and QSAR in Env Res (1994) 2:159

> <Id>
CRO-61

> <Activity>
POS

> <Predicted Value>
0.985  POS

> <Used>
1

> <Status>
Sensitizer

> <isSensitizer>
1

$$$$
Nonadienal
  SciTegic06161615552D

 10  9  0  0  0  0            999 V2000
    0.0000    0.0000    0.0000 C   0  0
    0.0000    0.0000    0.0000 C   0  0
    0.0000    0.0000    0.0000 C   0  0
    0.0000    0.0000    0.0000 C   0  0
    0.0000    0.0000    0.0000 C   0  0
    0.0000    0.0000    0.0000 C   0  0
    0.0000    0.0000    0.0000 C   0  0
    0.0000    0.0000    0.0000 C   0  0
    0.0000    0.0000    0.0000 C   0  0
    0.0000    0.0000    0.0000 O   0  0
  1  2  1  0
  2  3  1  0
  3  4  2  3
  4  5  1  0
  5  6  1  0
  6  7  1  0
  7  8  2  3
  8  9  1  0
  9 10  1  0
M  END
> <Name>
Nonadienal

> <SMILES>
CCC=CCCC=CCO

> <Reference>
SAR and QSAR in Env Res (1994) 2:159

> <Id>
28069-72-9

> <Activity>
POS

> <Predicted Value>
0.998  POS

> <Used>
1

> <Status>
Sensitizer

> <isSensitizer>
1

$$$$
Monoethyl fumarate
  SciTegic06161615552D

 10  9  0  0  0  0            999 V2000
    0.0000    0.0000    0.0000 C   0  0
    0.0000    0.0000    0.0000 C   0  0
    0.0000    0.0000    0.0000 O   0  0
    0.0000    0.0000    0.0000 C   0  0
    0.0000    0.0000    0.0000 O   0  0
    0.0000    0.0000    0.0000 C   0  0
    0.0000    0.0000    0.0000 C   0  0
    0.0000    0.0000    0.0000 C   0  0
    0.0000    0.0000    0.0000 O   0  0
    0.0000    0.0000    0.0000 O   0  0
  1  2  1  0
  2  3  1  0
  3  4  1  0
  4  5  2  0
  4  6  1  0
  6  7  2  3
  7  8  1  0
  8  9  1  0
  8 10  2  0
M  END
> <Name>
Monoethyl fumarate

> <SMILES>
CCOC(=O)C=CC(O)=O

> <Reference>
Dermatology (1994) 188:126

> <Id>
2459-05-4

> <Activity>
POS

> <Predicted Value>
1      POS

> <Used>
1

> <Status>
Sensitizer

> <isSensitizer>
1

$$$$
Acrylic acid 2-[2-(2-acryloylperoxy-propoxy)-propoxy]-propyl ester
  SciTegic06161615552D

 22 21  0  0  0  0            999 V2000
    0.0000    0.0000    0.0000 C   0  0
    0.0000    0.0000    0.0000 C   0  0
    0.0000    0.0000    0.0000 C   0  0
    0.0000    0.0000    0.0000 O   0  0
    0.0000    0.0000    0.0000 C   0  0
    0.0000    0.0000    0.0000 C   0  0
    0.0000    0.0000    0.0000 C   0  0
    0.0000    0.0000    0.0000 O   0  0
    0.0000    0.0000    0.0000 C   0  0
    0.0000    0.0000    0.0000 O   0  0
    0.0000    0.0000    0.0000 C   0  0
    0.0000    0.0000    0.0000 C   0  0
    0.0000    0.0000    0.0000 O   0  0
    0.0000    0.0000    0.0000 C   0  0
    0.0000    0.0000    0.0000 C   0  0
    0.0000    0.0000    0.0000 C   0  0
    0.0000    0.0000    0.0000 O   0  0
    0.0000    0.0000    0.0000 O   0  0
    0.0000    0.0000    0.0000 C   0  0
    0.0000    0.0000    0.0000 O   0  0
    0.0000    0.0000    0.0000 C   0  0
    0.0000    0.0000    0.0000 C   0  0
  1  2  1  0
  2  3  1  0
  3  4  1  0
  4  5  1  0
  5  6  1  0
  5  7  1  0
  7  8  1  0
  8  9  1  0
  9 10  2  0
  9 11  1  0
 11 12  2  0
  2 13  1  0
 13 14  1  0
 14 15  1  0
 15 16  1  0
 15 17  1  0
 17 18  1  0
 18 19  1  0
 19 20  2  0
 19 21  1  0
 21 22  2  0
M  END
> <Name>
Acrylic acid 2-[2-(2-acryloylperoxy-propoxy)-propoxy]-propyl ester

> <SMILES>
CC(COC(C)COC(=O)C=C)OCC(C)OOC(=O)C=C

> <Id>
99999-12-0

> <Activity>
POS

> <Predicted Value>
1      POS

> <Used>
1

> <Status>
Sensitizer

> <isSensitizer>
1

$$$$
Tetraethylene glycol diacrylate
  SciTegic06161615552D

 21 20  0  0  0  0            999 V2000
    0.0000    0.0000    0.0000 C   0  0
    0.0000    0.0000    0.0000 C   0  0
    0.0000    0.0000    0.0000 C   0  0
    0.0000    0.0000    0.0000 O   0  0
    0.0000    0.0000    0.0000 O   0  0
    0.0000    0.0000    0.0000 C   0  0
    0.0000    0.0000    0.0000 C   0  0
    0.0000    0.0000    0.0000 O   0  0
    0.0000    0.0000    0.0000 C   0  0
    0.0000    0.0000    0.0000 C   0  0
    0.0000    0.0000    0.0000 O   0  0
    0.0000    0.0000    0.0000 C   0  0
    0.0000    0.0000    0.0000 C   0  0
    0.0000    0.0000    0.0000 O   0  0
    0.0000    0.0000    0.0000 C   0  0
    0.0000    0.0000    0.0000 C   0  0
    0.0000    0.0000    0.0000 O   0  0
    0.0000    0.0000    0.0000 C   0  0
    0.0000    0.0000    0.0000 O   0  0
    0.0000    0.0000    0.0000 C   0  0
    0.0000    0.0000    0.0000 C   0  0
  1  2  2  0
  2  3  1  0
  3  4  2  0
  3  5  1  0
  5  6  1  0
  6  7  1  0
  7  8  1  0
  8  9  1  0
  9 10  1  0
 10 11  1  0
 11 12  1  0
 12 13  1  0
 13 14  1  0
 14 15  1  0
 15 16  1  0
 16 17  1  0
 17 18  1  0
 18 19  2  0
 18 20  1  0
 20 21  2  0
M  END
> <Name>
Tetraethylene glycol diacrylate

> <SMILES>
C=CC(=O)OCCOCCOCCOCCOC(=O)C=C

> <Reference>
Contact Dermatitis (1984) 11:236

> <Id>
17831-71-9

> <Activity>
NEG

> <Predicted Value>
0      NEG

> <Used>
1

> <Status>
Non-Sensitizer

> <isSensitizer>
0

$$$$
2-Pentylcyclopenta-1;3-dione
  SciTegic06161615552D

 12 12  0  0  0  0            999 V2000
    0.0000    0.0000    0.0000 C   0  0
    0.0000    0.0000    0.0000 C   0  0
    0.0000    0.0000    0.0000 C   0  0
    0.0000    0.0000    0.0000 C   0  0
    0.0000    0.0000    0.0000 C   0  0
    0.0000    0.0000    0.0000 C   0  0
    0.0000    0.0000    0.0000 C   0  0
    0.0000    0.0000    0.0000 O   0  0
    0.0000    0.0000    0.0000 C   0  0
    0.0000    0.0000    0.0000 C   0  0
    0.0000    0.0000    0.0000 C   0  0
    0.0000    0.0000    0.0000 O   0  0
  1  2  1  0
  2  3  1  0
  3  4  1  0
  4  5  1  0
  5  6  1  0
  6  7  1  0
  7  8  2  0
  7  9  1  0
  9 10  1  0
 10 11  1  0
 11  6  1  0
 11 12  2  0
M  END
> <Name>
2-Pentylcyclopenta-1;3-dione

> <SMILES>
CCCCCC1C(=O)CCC1=O

> <Reference>
SAR and QSAR in Env Res (1994) 2:159

> <Id>
CRO-217

> <Activity>
POS

> <Predicted Value>
1      POS

> <Used>
1

> <Status>
Sensitizer

> <isSensitizer>
1

$$$$
1-Decanol
  SciTegic06161615552D

 11 10  0  0  0  0            999 V2000
    0.0000    0.0000    0.0000 C   0  0
    0.0000    0.0000    0.0000 C   0  0
    0.0000    0.0000    0.0000 C   0  0
    0.0000    0.0000    0.0000 C   0  0
    0.0000    0.0000    0.0000 C   0  0
    0.0000    0.0000    0.0000 C   0  0
    0.0000    0.0000    0.0000 C   0  0
    0.0000    0.0000    0.0000 C   0  0
    0.0000    0.0000    0.0000 C   0  0
    0.0000    0.0000    0.0000 C   0  0
    0.0000    0.0000    0.0000 O   0  0
  1  2  1  0
  2  3  1  0
  3  4  1  0
  4  5  1  0
  5  6  1  0
  6  7  1  0
  7  8  1  0
  8  9  1  0
  9 10  1  0
 10 11  1  0
M  END
> <Name>
1-Decanol

> <SMILES>
CCCCCCCCCCO

> <Reference>
SAR and QSAR in Env Res (1994) 2:159

> <Id>
112-30-1

> <Activity>
POS

> <Predicted Value>
0.996  POS

> <Used>
1

> <Status>
Sensitizer

> <isSensitizer>
1

$$$$
2-Hydroxypropylmethylacrylate
  SciTegic06161615552D

 10  9  0  0  0  0            999 V2000
    0.0000    0.0000    0.0000 C   0  0
    0.0000    0.0000    0.0000 C   0  0
    0.0000    0.0000    0.0000 O   0  0
    0.0000    0.0000    0.0000 C   0  0
    0.0000    0.0000    0.0000 O   0  0
    0.0000    0.0000    0.0000 C   0  0
    0.0000    0.0000    0.0000 O   0  0
    0.0000    0.0000    0.0000 C   0  0
    0.0000    0.0000    0.0000 C   0  0
    0.0000    0.0000    0.0000 C   0  0
  1  2  1  0
  2  3  1  0
  2  4  1  0
  4  5  1  0
  5  6  1  0
  6  7  2  0
  6  8  1  0
  8  9  1  0
  8 10  2  0
M  END
> <Name>
2-Hydroxypropylmethylacrylate

> <SMILES>
CC(O)COC(=O)C(C)=C

> <Reference>
SAR and QSAR in Env Res (1994) 2:159

> <Id>
CRO-63

> <Activity>
NEG

> <Predicted Value>
0.029  NEG

> <Used>
1

> <Status>
Non-Sensitizer

> <isSensitizer>
0

$$$$
Hexadecanoyl chloride
  SciTegic06161615552D

 18 17  0  0  0  0            999 V2000
    0.0000    0.0000    0.0000 C   0  0
    0.0000    0.0000    0.0000 C   0  0
    0.0000    0.0000    0.0000 C   0  0
    0.0000    0.0000    0.0000 C   0  0
    0.0000    0.0000    0.0000 C   0  0
    0.0000    0.0000    0.0000 C   0  0
    0.0000    0.0000    0.0000 C   0  0
    0.0000    0.0000    0.0000 C   0  0
    0.0000    0.0000    0.0000 C   0  0
    0.0000    0.0000    0.0000 C   0  0
    0.0000    0.0000    0.0000 C   0  0
    0.0000    0.0000    0.0000 C   0  0
    0.0000    0.0000    0.0000 C   0  0
    0.0000    0.0000    0.0000 C   0  0
    0.0000    0.0000    0.0000 C   0  0
    0.0000    0.0000    0.0000 C   0  0
    0.0000    0.0000    0.0000 Cl  0  0
    0.0000    0.0000    0.0000 O   0  0
  1  2  1  0
  2  3  1  0
  3  4  1  0
  4  5  1  0
  5  6  1  0
  6  7  1  0
  7  8  1  0
  8  9  1  0
  9 10  1  0
 10 11  1  0
 11 12  1  0
 12 13  1  0
 13 14  1  0
 14 15  1  0
 15 16  1  0
 16 17  1  0
 16 18  2  0
M  END
> <Name>
Hexadecanoyl chloride

> <SMILES>
CCCCCCCCCCCCCCCC(Cl)=O

> <Reference>
David A Basketter (priv comm)

> <Id>
99999-17-0

> <Activity>
POS

> <Predicted Value>
0.999  POS

> <Used>
1

> <Status>
Sensitizer

> <isSensitizer>
1

$$$$
Octadecanoyl chloride
  SciTegic06161615552D

 20 19  0  0  0  0            999 V2000
    0.0000    0.0000    0.0000 C   0  0
    0.0000    0.0000    0.0000 C   0  0
    0.0000    0.0000    0.0000 C   0  0
    0.0000    0.0000    0.0000 C   0  0
    0.0000    0.0000    0.0000 C   0  0
    0.0000    0.0000    0.0000 C   0  0
    0.0000    0.0000    0.0000 C   0  0
    0.0000    0.0000    0.0000 C   0  0
    0.0000    0.0000    0.0000 C   0  0
    0.0000    0.0000    0.0000 C   0  0
    0.0000    0.0000    0.0000 C   0  0
    0.0000    0.0000    0.0000 C   0  0
    0.0000    0.0000    0.0000 C   0  0
    0.0000    0.0000    0.0000 C   0  0
    0.0000    0.0000    0.0000 C   0  0
    0.0000    0.0000    0.0000 C   0  0
    0.0000    0.0000    0.0000 C   0  0
    0.0000    0.0000    0.0000 C   0  0
    0.0000    0.0000    0.0000 Cl  0  0
    0.0000    0.0000    0.0000 O   0  0
  1  2  1  0
  2  3  1  0
  3  4  1  0
  4  5  1  0
  5  6  1  0
  6  7  1  0
  7  8  1  0
  8  9  1  0
  9 10  1  0
 10 11  1  0
 11 12  1  0
 12 13  1  0
 13 14  1  0
 14 15  1  0
 15 16  1  0
 16 17  1  0
 17 18  1  0
 18 19  1  0
 18 20  2  0
M  END
> <Name>
Octadecanoyl chloride

> <SMILES>
CCCCCCCCCCCCCCCCCC(Cl)=O

> <Reference>
David A Basketter (priv comm)

> <Id>
72-AOO

> <Activity>
POS

> <Predicted Value>
0.997  POS

> <Used>
1

> <Status>
Sensitizer

> <isSensitizer>
1

$$$$
Methenamine
  SciTegic06161615552D

 10 12  0  0  0  0            999 V2000
    0.0000    0.0000    0.0000 C   0  0
    0.0000    0.0000    0.0000 N   0  0
    0.0000    0.0000    0.0000 C   0  0
    0.0000    0.0000    0.0000 N   0  0
    0.0000    0.0000    0.0000 C   0  0
    0.0000    0.0000    0.0000 N   0  0
    0.0000    0.0000    0.0000 C   0  0
    0.0000    0.0000    0.0000 N   0  0
    0.0000    0.0000    0.0000 C   0  0
    0.0000    0.0000    0.0000 C   0  0
  1  2  1  0
  2  3  1  0
  3  4  1  0
  4  5  1  0
  5  6  1  0
  6  1  1  0
  6  7  1  0
  7  8  1  0
  8  9  1  0
  9  2  1  0
  8 10  1  0
 10  4  1  0
M  END
> <Name>
Methenamine

> <SMILES>
C1N2CN3CN1CN(C2)C3

> <Reference>
J Am Coll Toxicol (1992) 11(4):531

> <Id>
100-97-0

> <Activity>
POS

> <Predicted Value>
0.999  POS

> <Used>
1

> <Status>
Sensitizer

> <isSensitizer>
1

$$$$
Oleyl alcohol sulfate
  SciTegic06161615552D

 19 18  0  0  0  0            999 V2000
    0.0000    0.0000    0.0000 C   0  0
    0.0000    0.0000    0.0000 C   0  0
    0.0000    0.0000    0.0000 C   0  0
    0.0000    0.0000    0.0000 C   0  0
    0.0000    0.0000    0.0000 C   0  0
    0.0000    0.0000    0.0000 C   0  0
    0.0000    0.0000    0.0000 C   0  0
    0.0000    0.0000    0.0000 C   0  0
    0.0000    0.0000    0.0000 C   0  0
    0.0000    0.0000    0.0000 C   0  0
    0.0000    0.0000    0.0000 C   0  0
    0.0000    0.0000    0.0000 C   0  0
    0.0000    0.0000    0.0000 C   0  0
    0.0000    0.0000    0.0000 C   0  0
    0.0000    0.0000    0.0000 C   0  0
    0.0000    0.0000    0.0000 C   0  0
    0.0000    0.0000    0.0000 C   0  0
    0.0000    0.0000    0.0000 C   0  0
    0.0000    0.0000    0.0000 O   0  0
  1  2  1  0
  2  3  1  0
  3  4  1  0
  4  5  1  0
  5  6  1  0
  6  7  1  0
  7  8  1  0
  8  9  1  0
  9 10  2  3
 10 11  1  0
 11 12  1  0
 12 13  1  0
 13 14  1  0
 14 15  1  0
 15 16  1  0
 16 17  1  0
 17 18  1  0
 18 19  1  0
M  END
> <Name>
Oleyl alcohol sulfate

> <SMILES>
CCCCCCCCC=CCCCCCCCCO

> <Reference>
SAR and QSAR in Env Res (1994) 2:159

> <Id>
143-28-2

> <Activity>
POS

> <Predicted Value>
0.81   POS

> <Used>
1

> <Status>
Sensitizer

> <isSensitizer>
1

$$$$
2-Piperidone
  SciTegic06161615552D

  7  7  0  0  0  0            999 V2000
    0.0000    0.0000    0.0000 O   0  0
    0.0000    0.0000    0.0000 C   0  0
    0.0000    0.0000    0.0000 C   0  0
    0.0000    0.0000    0.0000 C   0  0
    0.0000    0.0000    0.0000 C   0  0
    0.0000    0.0000    0.0000 C   0  0
    0.0000    0.0000    0.0000 N   0  0
  1  2  2  0
  2  3  1  0
  3  4  1  0
  4  5  1  0
  5  6  1  0
  6  7  1  0
  7  2  1  0
M  END
> <Name>
2-Piperidone

> <SMILES>
O=C1CCCCN1

> <Reference>
SAR and QSAR in Env Res (1994) 2:159

> <Id>
675-20-7

> <Activity>
NEG

> <Predicted Value>
0.007  NEG

> <Used>
1

> <Status>
Non-Sensitizer

> <isSensitizer>
0

$$$$
Ethanol
  SciTegic06161615552D

  3  2  0  0  0  0            999 V2000
    0.0000    0.0000    0.0000 C   0  0
    0.0000    0.0000    0.0000 C   0  0
    0.0000    0.0000    0.0000 O   0  0
  1  2  1  0
  2  3  1  0
M  END
> <Name>
Ethanol

> <SMILES>
CCO

> <Reference>
SAR and QSAR in Env Res (1994) 2:159

> <Id>
64-17-5

> <Activity>
POS

> <Predicted Value>
0.971  POS

> <Used>
1

> <Status>
Sensitizer

> <isSensitizer>
1

$$$$
Dibutylthiourea
  SciTegic06161615552D

 12 11  0  0  0  0            999 V2000
    0.0000    0.0000    0.0000 C   0  0
    0.0000    0.0000    0.0000 C   0  0
    0.0000    0.0000    0.0000 C   0  0
    0.0000    0.0000    0.0000 C   0  0
    0.0000    0.0000    0.0000 N   0  0
    0.0000    0.0000    0.0000 C   0  0
    0.0000    0.0000    0.0000 S   0  0
    0.0000    0.0000    0.0000 N   0  0
    0.0000    0.0000    0.0000 C   0  0
    0.0000    0.0000    0.0000 C   0  0
    0.0000    0.0000    0.0000 C   0  0
    0.0000    0.0000    0.0000 C   0  0
  1  2  1  0
  2  3  1  0
  3  4  1  0
  4  5  1  0
  5  6  1  0
  6  7  2  0
  6  8  1  0
  8  9  1  0
  9 10  1  0
 10 11  1  0
 11 12  1  0
M  END
> <Name>
Dibutylthiourea

> <SMILES>
CCCCNC(=S)NCCCC

> <Reference>
Contact Dermatitis (1994) 31:72

> <Id>
109-46-6

> <Activity>
POS

> <Predicted Value>
1      POS

> <Used>
1

> <Status>
Sensitizer

> <isSensitizer>
1

$$$$
6-Trimethyl ammonium hexanoic chloride
  SciTegic06161615552D

 12 11  0  0  0  0            999 V2000
    0.0000    0.0000    0.0000 C   0  0
    0.0000    0.0000    0.0000 N   0  3
    0.0000    0.0000    0.0000 C   0  0
    0.0000    0.0000    0.0000 C   0  0
    0.0000    0.0000    0.0000 C   0  0
    0.0000    0.0000    0.0000 C   0  0
    0.0000    0.0000    0.0000 C   0  0
    0.0000    0.0000    0.0000 C   0  0
    0.0000    0.0000    0.0000 C   0  0
    0.0000    0.0000    0.0000 C   0  0
    0.0000    0.0000    0.0000 O   0  0
    0.0000    0.0000    0.0000 O   0  0
  1  2  1  0
  2  3  1  0
  2  4  1  0
  2  5  1  0
  5  6  1  0
  6  7  1  0
  7  8  1  0
  8  9  1  0
  9 10  1  0
 10 11  1  0
 10 12  2  0
M  CHG  1   2   1
M  END
> <Name>
6-Trimethyl ammonium hexanoic chloride

> <SMILES>
C[N+](C)(C)CCCCCC(O)=O

> <Reference>
SAR and QSAR in Env Res (1994) 2:159

> <Id>
CRO-258

> <Activity>
NEG

> <Predicted Value>
0      NEG

> <Used>
1

> <Status>
Non-Sensitizer

> <isSensitizer>
0

$$$$
Cyclododecyl formate
  SciTegic06161615552D

 15 15  0  0  0  0            999 V2000
    0.0000    0.0000    0.0000 O   0  0
    0.0000    0.0000    0.0000 C   0  0
    0.0000    0.0000    0.0000 O   0  0
    0.0000    0.0000    0.0000 C   0  0
    0.0000    0.0000    0.0000 C   0  0
    0.0000    0.0000    0.0000 C   0  0
    0.0000    0.0000    0.0000 C   0  0
    0.0000    0.0000    0.0000 C   0  0
    0.0000    0.0000    0.0000 C   0  0
    0.0000    0.0000    0.0000 C   0  0
    0.0000    0.0000    0.0000 C   0  0
    0.0000    0.0000    0.0000 C   0  0
    0.0000    0.0000    0.0000 C   0  0
    0.0000    0.0000    0.0000 C   0  0
    0.0000    0.0000    0.0000 C   0  0
  1  2  2  0
  2  3  1  0
  3  4  1  0
  4  5  1  0
  5  6  1  0
  6  7  1  0
  7  8  1  0
  8  9  1  0
  9 10  1  0
 10 11  1  0
 11 12  1  0
 12 13  1  0
 13 14  1  0
 14 15  1  0
 15  4  1  0
M  END
> <Name>
Cyclododecyl formate

> <SMILES>
O=COC1CCCCCCCCCCC1

> <Reference>
SAR and QSAR in Env Res (1994) 2:159

> <Id>
CRO-285

> <Activity>
NEG

> <Predicted Value>
0      NEG

> <Used>
1

> <Status>
Non-Sensitizer

> <isSensitizer>
0

$$$$
Diethanolamine
  SciTegic06161615552D

  8  7  0  0  0  0            999 V2000
    0.0000    0.0000    0.0000 C   0  0
    0.0000    0.0000    0.0000 C   0  0
    0.0000    0.0000    0.0000 N   0  0
    0.0000    0.0000    0.0000 C   0  0
    0.0000    0.0000    0.0000 C   0  0
    0.0000    0.0000    0.0000 C   0  0
    0.0000    0.0000    0.0000 C   0  0
    0.0000    0.0000    0.0000 O   0  0
  1  2  1  0
  2  3  1  0
  3  4  1  0
  4  5  1  0
  3  6  1  0
  6  7  1  0
  7  8  1  0
M  END
> <Name>
Diethanolamine

> <SMILES>
CCN(CC)CCO

> <Reference>
Contact Dermatitis (1994) 31:72

> <Id>
100-37-8

> <Activity>
NEG

> <Predicted Value>
0.625  IND

> <Used>
1

> <Status>
Non-Sensitizer

> <isSensitizer>
0

$$$$
Diethylthiourea
  SciTegic06161615552D

  8  7  0  0  0  0            999 V2000
    0.0000    0.0000    0.0000 C   0  0
    0.0000    0.0000    0.0000 C   0  0
    0.0000    0.0000    0.0000 N   0  0
    0.0000    0.0000    0.0000 C   0  0
    0.0000    0.0000    0.0000 S   0  0
    0.0000    0.0000    0.0000 N   0  0
    0.0000    0.0000    0.0000 C   0  0
    0.0000    0.0000    0.0000 C   0  0
  1  2  1  0
  2  3  1  0
  3  4  1  0
  4  5  2  0
  4  6  1  0
  6  7  1  0
  7  8  1  0
M  END
> <Name>
Diethylthiourea

> <SMILES>
CCNC(=S)NCC

> <Reference>
Contact Dermatitis (1994) 31:72

> <Id>
105-55-5

> <Activity>
POS

> <Predicted Value>
1      POS

> <Used>
1

> <Status>
Sensitizer

> <isSensitizer>
1

$$$$
Acrylamide
  SciTegic06161615552D

  5  4  0  0  0  0            999 V2000
    0.0000    0.0000    0.0000 N   0  0
    0.0000    0.0000    0.0000 C   0  0
    0.0000    0.0000    0.0000 O   0  0
    0.0000    0.0000    0.0000 C   0  0
    0.0000    0.0000    0.0000 C   0  0
  1  2  1  0
  2  3  2  0
  2  4  1  0
  4  5  2  0
M  END
> <Name>
Acrylamide

> <SMILES>
NC(=O)C=C

> <Reference>
SAR and QSAR in Env Res (1994) 2:159

> <Id>
79-06-1

> <Activity>
POS

> <Predicted Value>
0.995  POS

> <Used>
1

> <Status>
Sensitizer

> <isSensitizer>
1

$$$$
Trioctyl citrate
  SciTegic06161615552D

 36 35  0  0  0  0            999 V2000
    0.0000    0.0000    0.0000 C   0  0
    0.0000    0.0000    0.0000 C   0  0
    0.0000    0.0000    0.0000 C   0  0
    0.0000    0.0000    0.0000 C   0  0
    0.0000    0.0000    0.0000 C   0  0
    0.0000    0.0000    0.0000 C   0  0
    0.0000    0.0000    0.0000 C   0  0
    0.0000    0.0000    0.0000 C   0  0
    0.0000    0.0000    0.0000 O   0  0
    0.0000    0.0000    0.0000 C   0  0
    0.0000    0.0000    0.0000 O   0  0
    0.0000    0.0000    0.0000 C   0  0
    0.0000    0.0000    0.0000 C   0  0
    0.0000    0.0000    0.0000 O   0  0
    0.0000    0.0000    0.0000 C   0  0
    0.0000    0.0000    0.0000 C   0  0
    0.0000    0.0000    0.0000 O   0  0
    0.0000    0.0000    0.0000 O   0  0
    0.0000    0.0000    0.0000 C   0  0
    0.0000    0.0000    0.0000 C   0  0
    0.0000    0.0000    0.0000 C   0  0
    0.0000    0.0000    0.0000 C   0  0
    0.0000    0.0000    0.0000 C   0  0
    0.0000    0.0000    0.0000 C   0  0
    0.0000    0.0000    0.0000 C   0  0
    0.0000    0.0000    0.0000 C   0  0
    0.0000    0.0000    0.0000 C   0  0
    0.0000    0.0000    0.0000 O   0  0
    0.0000    0.0000    0.0000 C   0  0
    0.0000    0.0000    0.0000 C   0  0
    0.0000    0.0000    0.0000 C   0  0
    0.0000    0.0000    0.0000 C   0  0
    0.0000    0.0000    0.0000 C   0  0
    0.0000    0.0000    0.0000 C   0  0
    0.0000    0.0000    0.0000 C   0  0
    0.0000    0.0000    0.0000 C   0  0
  1  2  1  0
  2  3  1  0
  3  4  1  0
  4  5  1  0
  5  6  1  0
  6  7  1  0
  5  8  1  0
  8  9  1  0
  9 10  1  0
 10 11  2  0
 10 12  1  0
 12 13  1  0
 13 14  1  0
 13 15  1  0
 15 16  1  0
 16 17  2  0
 16 18  1  0
 18 19  1  0
 19 20  1  0
 20 21  1  0
 21 22  1  0
 20 23  1  0
 23 24  1  0
 24 25  1  0
 25 26  1  0
 13 27  1  0
 27 28  2  0
 27 29  1  0
 29 30  1  0
 30 31  1  0
 31 32  1  0
 30 33  1  0
 33 34  1  0
 34 35  1  0
 35 36  1  0
M  END
> <Name>
Trioctyl citrate

> <SMILES>
CCCCC(CC)COC(=O)CC(O)(CC(=O)OCC(CC)CCCC)C(=O)CC(CC)CCCC

> <Reference>
Howard I Maibach (priv comm)

> <Id>
7147-34-4

> <Activity>
NEG

> <Predicted Value>
0      NEG

> <Used>
1

> <Status>
Non-Sensitizer

> <isSensitizer>
0

$$$$
Nonyl gallate
  SciTegic06161615552D

 12 11  0  0  0  0            999 V2000
    0.0000    0.0000    0.0000 C   0  0
    0.0000    0.0000    0.0000 C   0  0
    0.0000    0.0000    0.0000 O   0  0
    0.0000    0.0000    0.0000 C   0  0
    0.0000    0.0000    0.0000 O   0  0
    0.0000    0.0000    0.0000 C   0  0
    0.0000    0.0000    0.0000 C   0  0
    0.0000    0.0000    0.0000 C   0  0
    0.0000    0.0000    0.0000 N   0  0
    0.0000    0.0000    0.0000 C   0  0
    0.0000    0.0000    0.0000 O   0  0
    0.0000    0.0000    0.0000 O   0  0
  1  2  1  0
  2  3  1  0
  3  4  1  0
  4  5  2  0
  4  6  1  0
  6  7  1  0
  7  8  1  0
  8  9  1  0
  8 10  1  0
 10 11  1  0
 10 12  2  0
M  END
> <Name>
Nonyl gallate

> <SMILES>
CCOC(=O)CCC(N)C(O)=O

> <Reference>
Contact Dermatitis (1992) 26:253

> <Id>
1119-33-1

> <Activity>
POS

> <Predicted Value>
0.995  POS

> <Used>
1

> <Status>
Sensitizer

> <isSensitizer>
1

$$$$
Nonanoyl chloride
  SciTegic06161615552D

 10  9  0  0  0  0            999 V2000
    0.0000    0.0000    0.0000 C   0  0
    0.0000    0.0000    0.0000 C   0  0
    0.0000    0.0000    0.0000 C   0  0
    0.0000    0.0000    0.0000 C   0  0
    0.0000    0.0000    0.0000 C   0  0
    0.0000    0.0000    0.0000 C   0  0
    0.0000    0.0000    0.0000 C   0  0
    0.0000    0.0000    0.0000 C   0  0
    0.0000    0.0000    0.0000 Cl  0  0
    0.0000    0.0000    0.0000 O   0  0
  1  2  1  0
  2  3  1  0
  3  4  1  0
  4  5  1  0
  5  6  1  0
  6  7  1  0
  7  8  1  0
  8  9  1  0
  8 10  2  0
M  END
> <Name>
Nonanoyl chloride

> <SMILES>
CCCCCCCC(Cl)=O

> <Reference>
David A Basketter (priv comm)

> <Id>
35-AOO

> <Activity>
POS

> <Predicted Value>
1      POS

> <Used>
1

> <Status>
Sensitizer

> <isSensitizer>
1

$$$$
Methyl dihydrojasmonate
  SciTegic06161615552D

 16 16  0  0  0  0            999 V2000
    0.0000    0.0000    0.0000 C   0  0
    0.0000    0.0000    0.0000 C   0  0
    0.0000    0.0000    0.0000 C   0  0
    0.0000    0.0000    0.0000 C   0  0
    0.0000    0.0000    0.0000 C   0  0
    0.0000    0.0000    0.0000 C   0  0
    0.0000    0.0000    0.0000 C   0  0
    0.0000    0.0000    0.0000 C   0  0
    0.0000    0.0000    0.0000 C   0  0
    0.0000    0.0000    0.0000 C   0  0
    0.0000    0.0000    0.0000 O   0  0
    0.0000    0.0000    0.0000 C   0  0
    0.0000    0.0000    0.0000 C   0  0
    0.0000    0.0000    0.0000 O   0  0
    0.0000    0.0000    0.0000 O   0  0
    0.0000    0.0000    0.0000 C   0  0
  1  2  1  0
  2  3  1  0
  3  4  1  0
  4  5  1  0
  5  6  1  0
  6  7  1  0
  7  8  1  0
  8  9  1  0
  9 10  1  0
 10  6  1  0
 10 11  2  0
  7 12  1  0
 12 13  1  0
 13 14  2  0
 13 15  1  0
 15 16  1  0
M  END
> <Name>
Methyl dihydrojasmonate

> <SMILES>
CCCCCC1C(CCC1=O)CC(=O)OC

> <Reference>
SAR and QSAR in Env Res (1994) 2:159

> <Id>
24851-98-7

> <Activity>
POS

> <Predicted Value>
0.974  POS

> <Used>
1

> <Status>
Sensitizer

> <isSensitizer>
1

$$$$
Methyl methacrylate
  SciTegic06161615552D

  7  6  0  0  0  0            999 V2000
    0.0000    0.0000    0.0000 C   0  0
    0.0000    0.0000    0.0000 O   0  0
    0.0000    0.0000    0.0000 C   0  0
    0.0000    0.0000    0.0000 O   0  0
    0.0000    0.0000    0.0000 C   0  0
    0.0000    0.0000    0.0000 C   0  0
    0.0000    0.0000    0.0000 C   0  0
  1  2  1  0
  2  3  1  0
  3  4  2  0
  3  5  1  0
  5  6  1  0
  5  7  2  0
M  END
> <Name>
Methyl methacrylate

> <SMILES>
COC(=O)C(C)=C

> <Reference>
J Dentistry (1995) 23:295

> <Id>
80-62-6

> <Activity>
POS

> <Predicted Value>
1      POS

> <Used>
1

> <Status>
Sensitizer

> <isSensitizer>
1

$$$$
Malathion
  SciTegic06161615552D

 19 18  0  0  0  0            999 V2000
    0.0000    0.0000    0.0000 C   0  0
    0.0000    0.0000    0.0000 C   0  0
    0.0000    0.0000    0.0000 O   0  0
    0.0000    0.0000    0.0000 C   0  0
    0.0000    0.0000    0.0000 O   0  0
    0.0000    0.0000    0.0000 C   0  0
    0.0000    0.0000    0.0000 C   0  0
    0.0000    0.0000    0.0000 S   0  0
    0.0000    0.0000    0.0000 P   0  0
    0.0000    0.0000    0.0000 S   0  0
    0.0000    0.0000    0.0000 O   0  0
    0.0000    0.0000    0.0000 C   0  0
    0.0000    0.0000    0.0000 O   0  0
    0.0000    0.0000    0.0000 C   0  0
    0.0000    0.0000    0.0000 C   0  0
    0.0000    0.0000    0.0000 O   0  0
    0.0000    0.0000    0.0000 O   0  0
    0.0000    0.0000    0.0000 C   0  0
    0.0000    0.0000    0.0000 C   0  0
  1  2  1  0
  2  3  1  0
  3  4  1  0
  4  5  2  0
  4  6  1  0
  6  7  1  0
  7  8  1  0
  8  9  1  0
  9 10  2  0
  9 11  1  0
 11 12  1  0
  9 13  1  0
 13 14  1  0
  7 15  1  0
 15 16  2  0
 15 17  1  0
 17 18  1  0
 18 19  1  0
M  END
> <Name>
Malathion

> <SMILES>
CCOC(=O)CC(SP(=S)(OC)OC)C(=O)OCC

> <Reference>
Contact Dermatitis (1980) 6:46

> <Id>
121-75-5

> <Activity>
POS

> <Predicted Value>
1      POS

> <Used>
1

> <Status>
Sensitizer

> <isSensitizer>
1

$$$$
3;5;5-Trimethylhexanoic acid
  SciTegic06161615552D

 11 10  0  0  0  0            999 V2000
    0.0000    0.0000    0.0000 C   0  0
    0.0000    0.0000    0.0000 C   0  0
    0.0000    0.0000    0.0000 C   0  0
    0.0000    0.0000    0.0000 C   0  0
    0.0000    0.0000    0.0000 O   0  0
    0.0000    0.0000    0.0000 O   0  0
    0.0000    0.0000    0.0000 C   0  0
    0.0000    0.0000    0.0000 C   0  0
    0.0000    0.0000    0.0000 C   0  0
    0.0000    0.0000    0.0000 C   0  0
    0.0000    0.0000    0.0000 C   0  0
  1  2  1  0
  2  3  1  0
  3  4  1  0
  4  5  1  0
  4  6  2  0
  2  7  1  0
  7  8  1  0
  8  9  1  0
  8 10  1  0
  8 11  1  0
M  END
> <Name>
3;5;5-Trimethylhexanoic acid

> <SMILES>
CC(CC(O)=O)CC(C)(C)C

> <Reference>
SAR and QSAR in Env Res (1994) 2:159

> <Id>
CRO-170

> <Activity>
NEG

> <Predicted Value>
0.005  NEG

> <Used>
1

> <Status>
Non-Sensitizer

> <isSensitizer>
0

$$$$
Citronellal
  SciTegic06161615552D

 11 10  0  0  0  0            999 V2000
    0.0000    0.0000    0.0000 C   0  0
    0.0000    0.0000    0.0000 C   0  0
    0.0000    0.0000    0.0000 C   0  0
    0.0000    0.0000    0.0000 C   0  0
    0.0000    0.0000    0.0000 C   0  0
    0.0000    0.0000    0.0000 C   0  0
    0.0000    0.0000    0.0000 C   0  0
    0.0000    0.0000    0.0000 C   0  0
    0.0000    0.0000    0.0000 C   0  0
    0.0000    0.0000    0.0000 C   0  0
    0.0000    0.0000    0.0000 O   0  0
  1  2  1  0
  2  3  1  0
  3  4  1  0
  4  5  1  0
  5  6  2  3
  6  7  1  0
  6  8  1  0
  2  9  1  0
  9 10  1  0
 10 11  2  0
M  END
> <Name>
Citronellal

> <SMILES>
CC(CCC=C(C)C)CC=O

> <Reference>
Contact Dermatitis (1993) 28:235

> <Id>
106-23-0

> <Activity>
POS

> <Predicted Value>
0.763  POS

> <Used>
1

> <Status>
Sensitizer

> <isSensitizer>
1

$$$$
Stearamidopropyl dimethylamine
  SciTegic06161615552D

 26 25  0  0  0  0            999 V2000
    0.0000    0.0000    0.0000 C   0  0
    0.0000    0.0000    0.0000 C   0  0
    0.0000    0.0000    0.0000 C   0  0
    0.0000    0.0000    0.0000 C   0  0
    0.0000    0.0000    0.0000 C   0  0
    0.0000    0.0000    0.0000 C   0  0
    0.0000    0.0000    0.0000 C   0  0
    0.0000    0.0000    0.0000 C   0  0
    0.0000    0.0000    0.0000 C   0  0
    0.0000    0.0000    0.0000 C   0  0
    0.0000    0.0000    0.0000 C   0  0
    0.0000    0.0000    0.0000 C   0  0
    0.0000    0.0000    0.0000 C   0  0
    0.0000    0.0000    0.0000 C   0  0
    0.0000    0.0000    0.0000 C   0  0
    0.0000    0.0000    0.0000 C   0  0
    0.0000    0.0000    0.0000 C   0  0
    0.0000    0.0000    0.0000 C   0  0
    0.0000    0.0000    0.0000 O   0  0
    0.0000    0.0000    0.0000 N   0  0
    0.0000    0.0000    0.0000 C   0  0
    0.0000    0.0000    0.0000 C   0  0
    0.0000    0.0000    0.0000 C   0  0
    0.0000    0.0000    0.0000 C   0  0
    0.0000    0.0000    0.0000 C   0  0
    0.0000    0.0000    0.0000 C   0  0
  1  2  1  0
  2  3  1  0
  3  4  1  0
  4  5  1  0
  5  6  1  0
  6  7  1  0
  7  8  1  0
  8  9  1  0
  9 10  1  0
 10 11  1  0
 11 12  1  0
 12 13  1  0
 13 14  1  0
 14 15  1  0
 15 16  1  0
 16 17  1  0
 17 18  1  0
 18 19  2  0
 18 20  1  0
 20 21  1  0
 21 22  1  0
 22 23  1  0
 23 24  1  0
 24 25  1  0
 24 26  1  0
M  END
> <Name>
Stearamidopropyl dimethylamine

> <SMILES>
CCCCCCCCCCCCCCCCCC(=O)NCCCC(C)C

> <Reference>
Howard I Maibach (priv comm)

> <Id>
7651-02-7

> <Activity>
NEG

> <Predicted Value>
0      NEG

> <Used>
1

> <Status>
Non-Sensitizer

> <isSensitizer>
0

$$$$
Acetone
  SciTegic06161615552D

  4  3  0  0  0  0            999 V2000
    0.0000    0.0000    0.0000 C   0  0
    0.0000    0.0000    0.0000 C   0  0
    0.0000    0.0000    0.0000 C   0  0
    0.0000    0.0000    0.0000 O   0  0
  1  2  1  0
  2  3  1  0
  2  4  2  0
M  END
> <Name>
Acetone

> <SMILES>
CC(C)=O

> <Reference>
Contact Dermatitis (1994) 31:72

> <Id>
67-64-1

> <Activity>
NEG

> <Predicted Value>
0      NEG

> <Used>
1

> <Status>
Non-Sensitizer

> <isSensitizer>
0

$$$$
Ethylidene heptanoate acetate
  SciTegic06161615552D

 15 14  0  0  0  0            999 V2000
    0.0000    0.0000    0.0000 C   0  0
    0.0000    0.0000    0.0000 C   0  0
    0.0000    0.0000    0.0000 C   0  0
    0.0000    0.0000    0.0000 C   0  0
    0.0000    0.0000    0.0000 C   0  0
    0.0000    0.0000    0.0000 C   0  0
    0.0000    0.0000    0.0000 C   0  0
    0.0000    0.0000    0.0000 O   0  0
    0.0000    0.0000    0.0000 O   0  0
    0.0000    0.0000    0.0000 C   0  0
    0.0000    0.0000    0.0000 C   0  0
    0.0000    0.0000    0.0000 O   0  0
    0.0000    0.0000    0.0000 C   0  0
    0.0000    0.0000    0.0000 C   0  0
    0.0000    0.0000    0.0000 O   0  0
  1  2  1  0
  2  3  1  0
  3  4  1  0
  4  5  1  0
  5  6  1  0
  6  7  1  0
  7  8  2  0
  7  9  1  0
  9 10  1  0
 10 11  1  0
 10 12  1  0
 12 13  1  0
 13 14  1  0
 13 15  2  0
M  END
> <Name>
Ethylidene heptanoate acetate

> <SMILES>
CCCCCCC(=O)OC(C)OC(C)=O

> <Reference>
SAR and QSAR in Env Res (1994) 2:159

> <Id>
CRO-177

> <Activity>
POS

> <Predicted Value>
0.997  POS

> <Used>
1

> <Status>
Sensitizer

> <isSensitizer>
1

$$$$
Benzoquinone
  SciTegic06161615552D

  8  8  0  0  0  0            999 V2000
    0.0000    0.0000    0.0000 O   0  0
    0.0000    0.0000    0.0000 C   0  0
    0.0000    0.0000    0.0000 C   0  0
    0.0000    0.0000    0.0000 C   0  0
    0.0000    0.0000    0.0000 C   0  0
    0.0000    0.0000    0.0000 O   0  0
    0.0000    0.0000    0.0000 C   0  0
    0.0000    0.0000    0.0000 C   0  0
  1  2  2  0
  2  3  1  0
  3  4  2  3
  4  5  1  0
  5  6  2  0
  5  7  1  0
  7  8  2  3
  8  2  1  0
M  END
> <Name>
Benzoquinone

> <SMILES>
O=C1C=CC(=O)C=C1

> <Reference>
SAR and QSAR in Env Res (1994) 2:159

> <Id>
CRO-19

> <Activity>
POS

> <Predicted Value>
0.986  POS

> <Used>
1

> <Status>
Sensitizer

> <isSensitizer>
1

$$$$
Ethylene diamine
  SciTegic06161615552D

  4  3  0  0  0  0            999 V2000
    0.0000    0.0000    0.0000 N   0  0
    0.0000    0.0000    0.0000 C   0  0
    0.0000    0.0000    0.0000 C   0  0
    0.0000    0.0000    0.0000 N   0  0
  1  2  1  0
  2  3  1  0
  3  4  1  0
M  END
> <Name>
Ethylene diamine

> <SMILES>
NCCN

> <Reference>
Contact Dermatitis (1981) 7:248

> <Id>
107-15-3

> <Activity>
POS

> <Predicted Value>
0.975  POS

> <Used>
1

> <Status>
Sensitizer

> <isSensitizer>
1

$$$$
2;4-Dimethyl-cyclohexene-3-carbaldehyde
  SciTegic06161615552D

 10 10  0  0  0  0            999 V2000
    0.0000    0.0000    0.0000 C   0  0
    0.0000    0.0000    0.0000 C   0  0
    0.0000    0.0000    0.0000 C   0  0
    0.0000    0.0000    0.0000 C   0  0
    0.0000    0.0000    0.0000 C   0  0
    0.0000    0.0000    0.0000 C   0  0
    0.0000    0.0000    0.0000 C   0  0
    0.0000    0.0000    0.0000 C   0  0
    0.0000    0.0000    0.0000 C   0  0
    0.0000    0.0000    0.0000 O   0  0
  1  2  1  0
  2  3  1  0
  3  4  1  0
  4  5  1  0
  5  6  2  3
  6  7  1  0
  6  8  1  0
  8  2  1  0
  8  9  1  0
  9 10  2  0
M  END
> <Name>
2;4-Dimethyl-cyclohexene-3-carbaldehyde

> <SMILES>
CC1CCC=C(C)C1C=O

> <Reference>
SAR and QSAR in Env Res (1994) 2:159

> <Id>
CRO-198

> <Activity>
POS

> <Predicted Value>
1      POS

> <Used>
1

> <Status>
Sensitizer

> <isSensitizer>
1

$$$$
Sorbic acid
  SciTegic06161615552D

  8  7  0  0  0  0            999 V2000
    0.0000    0.0000    0.0000 C   0  0
    0.0000    0.0000    0.0000 C   0  0
    0.0000    0.0000    0.0000 C   0  0
    0.0000    0.0000    0.0000 C   0  0
    0.0000    0.0000    0.0000 C   0  0
    0.0000    0.0000    0.0000 C   0  0
    0.0000    0.0000    0.0000 O   0  0
    0.0000    0.0000    0.0000 O   0  0
  1  2  1  0
  2  3  2  3
  3  4  1  0
  4  5  2  3
  5  6  1  0
  6  7  1  0
  6  8  2  0
M  END
> <Name>
Sorbic acid

> <SMILES>
CC=CC=CC(O)=O

> <Reference>
J Am Coll Toxicol (1988) 7(6):837

> <Id>
110-44-1

> <Activity>
POS

> <Predicted Value>
1      POS

> <Used>
1

> <Status>
Sensitizer

> <isSensitizer>
1

$$$$
Triethyl aconitate
  SciTegic06161615552D

 18 17  0  0  0  0            999 V2000
    0.0000    0.0000    0.0000 C   0  0
    0.0000    0.0000    0.0000 C   0  0
    0.0000    0.0000    0.0000 O   0  0
    0.0000    0.0000    0.0000 C   0  0
    0.0000    0.0000    0.0000 O   0  0
    0.0000    0.0000    0.0000 C   0  0
    0.0000    0.0000    0.0000 C   0  0
    0.0000    0.0000    0.0000 C   0  0
    0.0000    0.0000    0.0000 C   0  0
    0.0000    0.0000    0.0000 O   0  0
    0.0000    0.0000    0.0000 O   0  0
    0.0000    0.0000    0.0000 C   0  0
    0.0000    0.0000    0.0000 C   0  0
    0.0000    0.0000    0.0000 C   0  0
    0.0000    0.0000    0.0000 O   0  0
    0.0000    0.0000    0.0000 O   0  0
    0.0000    0.0000    0.0000 C   0  0
    0.0000    0.0000    0.0000 C   0  0
  1  2  1  0
  2  3  1  0
  3  4  1  0
  4  5  2  0
  4  6  1  0
  6  7  1  0
  7  8  2  3
  8  9  1  0
  9 10  2  0
  9 11  1  0
 11 12  1  0
 12 13  1  0
  7 14  1  0
 14 15  2  0
 14 16  1  0
 16 17  1  0
 17 18  1  0
M  END
> <Name>
Triethyl aconitate

> <SMILES>
CCOC(=O)CC(=CC(=O)OCC)C(=O)OCC

> <Reference>
SAR and QSAR in Env Res (1994) 2:159

> <Id>
CRO-116

> <Activity>
POS

> <Predicted Value>
1      POS

> <Used>
1

> <Status>
Sensitizer

> <isSensitizer>
1

$$$$
Isooctanol
  SciTegic06161615552D

  9  8  0  0  0  0            999 V2000
    0.0000    0.0000    0.0000 C   0  0
    0.0000    0.0000    0.0000 C   0  0
    0.0000    0.0000    0.0000 C   0  0
    0.0000    0.0000    0.0000 C   0  0
    0.0000    0.0000    0.0000 C   0  0
    0.0000    0.0000    0.0000 C   0  0
    0.0000    0.0000    0.0000 C   0  0
    0.0000    0.0000    0.0000 C   0  0
    0.0000    0.0000    0.0000 O   0  0
  1  2  1  0
  2  3  1  0
  2  4  1  0
  4  5  1  0
  5  6  1  0
  6  7  1  0
  7  8  1  0
  8  9  1  0
M  END
> <Name>
Isooctanol

> <SMILES>
CC(C)CCCCCO

> <Reference>
SAR and QSAR in Env Res (1994) 2:159

> <Id>
26952-21-6

> <Activity>
POS

> <Predicted Value>
0.981  POS

> <Used>
1

> <Status>
Sensitizer

> <isSensitizer>
1

$$$$
2;4-Dimethyl-3-cyclohexene-1-carbaldehyde
  SciTegic06161615552D

 10 10  0  0  0  0            999 V2000
    0.0000    0.0000    0.0000 C   0  0
    0.0000    0.0000    0.0000 C   0  0
    0.0000    0.0000    0.0000 C   0  0
    0.0000    0.0000    0.0000 C   0  0
    0.0000    0.0000    0.0000 C   0  0
    0.0000    0.0000    0.0000 C   0  0
    0.0000    0.0000    0.0000 C   0  0
    0.0000    0.0000    0.0000 C   0  0
    0.0000    0.0000    0.0000 C   0  0
    0.0000    0.0000    0.0000 O   0  0
  1  2  1  0
  2  3  1  0
  3  4  2  3
  4  5  1  0
  4  6  1  0
  6  7  1  0
  7  8  1  0
  8  2  1  0
  8  9  1  0
  9 10  2  0
M  END
> <Name>
2;4-Dimethyl-3-cyclohexene-1-carbaldehyde

> <SMILES>
CC1C=C(C)CCC1C=O

> <Reference>
SAR and QSAR in Env Res (1994) 2:159

> <Id>
CRO-199

> <Activity>
POS

> <Predicted Value>
1      POS

> <Used>
1

> <Status>
Sensitizer

> <isSensitizer>
1

$$$$
3-Oxo-hexadecane sulfonate; sodium salt
  SciTegic06161615552D

 21 20  0  0  0  0            999 V2000
    0.0000    0.0000    0.0000 C   0  0
    0.0000    0.0000    0.0000 C   0  0
    0.0000    0.0000    0.0000 C   0  0
    0.0000    0.0000    0.0000 C   0  0
    0.0000    0.0000    0.0000 C   0  0
    0.0000    0.0000    0.0000 C   0  0
    0.0000    0.0000    0.0000 C   0  0
    0.0000    0.0000    0.0000 C   0  0
    0.0000    0.0000    0.0000 C   0  0
    0.0000    0.0000    0.0000 C   0  0
    0.0000    0.0000    0.0000 C   0  0
    0.0000    0.0000    0.0000 C   0  0
    0.0000    0.0000    0.0000 C   0  0
    0.0000    0.0000    0.0000 C   0  0
    0.0000    0.0000    0.0000 O   0  0
    0.0000    0.0000    0.0000 C   0  0
    0.0000    0.0000    0.0000 C   0  0
    0.0000    0.0000    0.0000 S   0  0
    0.0000    0.0000    0.0000 O   0  5
    0.0000    0.0000    0.0000 O   0  0
    0.0000    0.0000    0.0000 O   0  0
  1  2  1  0
  2  3  1  0
  3  4  1  0
  4  5  1  0
  5  6  1  0
  6  7  1  0
  7  8  1  0
  8  9  1  0
  9 10  1  0
 10 11  1  0
 11 12  1  0
 12 13  1  0
 13 14  1  0
 14 15  2  0
 14 16  1  0
 16 17  1  0
 17 18  1  0
 18 19  1  0
 18 20  2  0
 18 21  2  0
M  CHG  1  19  -1
M  END
> <Name>
3-Oxo-hexadecane sulfonate; sodium salt

> <SMILES>
CCCCCCCCCCCCCC(=O)CCS([O-])(=O)=O

> <Reference>
SAR and QSAR in Env Res (1994) 2:159

> <Id>
CRO-289

> <Activity>
NEG

> <Predicted Value>
0.001  NEG

> <Used>
1

> <Status>
Non-Sensitizer

> <isSensitizer>
0

$$$$
3;5;5-Trimethylhexanoyl chloride
  SciTegic06161615552D

 11 10  0  0  0  0            999 V2000
    0.0000    0.0000    0.0000 C   0  0
    0.0000    0.0000    0.0000 C   0  0
    0.0000    0.0000    0.0000 C   0  0
    0.0000    0.0000    0.0000 C   0  0
    0.0000    0.0000    0.0000 C   0  0
    0.0000    0.0000    0.0000 C   0  0
    0.0000    0.0000    0.0000 C   0  0
    0.0000    0.0000    0.0000 C   0  0
    0.0000    0.0000    0.0000 C   0  0
    0.0000    0.0000    0.0000 Cl  0  0
    0.0000    0.0000    0.0000 O   0  0
  1  2  1  0
  2  3  1  0
  3  4  1  0
  3  5  1  0
  5  6  1  0
  6  7  1  0
  6  8  1  0
  6  9  1  0
  9 10  1  0
  9 11  2  0
M  END
> <Name>
3;5;5-Trimethylhexanoyl chloride

> <SMILES>
CCC(C)CC(C)(C)C(Cl)=O

> <Reference>
SAR and QSAR in Env Res (1994) 2:159

> <Id>
CRO-87

> <Activity>
POS

> <Predicted Value>
1      POS

> <Used>
1

> <Status>
Sensitizer

> <isSensitizer>
1

$$$$
Methylene distearamide
  SciTegic06161615552D

 41 40  0  0  0  0            999 V2000
    0.0000    0.0000    0.0000 C   0  0
    0.0000    0.0000    0.0000 C   0  0
    0.0000    0.0000    0.0000 C   0  0
    0.0000    0.0000    0.0000 C   0  0
    0.0000    0.0000    0.0000 C   0  0
    0.0000    0.0000    0.0000 C   0  0
    0.0000    0.0000    0.0000 C   0  0
    0.0000    0.0000    0.0000 C   0  0
    0.0000    0.0000    0.0000 C   0  0
    0.0000    0.0000    0.0000 C   0  0
    0.0000    0.0000    0.0000 C   0  0
    0.0000    0.0000    0.0000 C   0  0
    0.0000    0.0000    0.0000 C   0  0
    0.0000    0.0000    0.0000 C   0  0
    0.0000    0.0000    0.0000 C   0  0
    0.0000    0.0000    0.0000 C   0  0
    0.0000    0.0000    0.0000 C   0  0
    0.0000    0.0000    0.0000 C   0  0
    0.0000    0.0000    0.0000 O   0  0
    0.0000    0.0000    0.0000 N   0  0
    0.0000    0.0000    0.0000 C   0  0
    0.0000    0.0000    0.0000 N   0  0
    0.0000    0.0000    0.0000 C   0  0
    0.0000    0.0000    0.0000 O   0  0
    0.0000    0.0000    0.0000 C   0  0
    0.0000    0.0000    0.0000 C   0  0
    0.0000    0.0000    0.0000 C   0  0
    0.0000    0.0000    0.0000 C   0  0
    0.0000    0.0000    0.0000 C   0  0
    0.0000    0.0000    0.0000 C   0  0
    0.0000    0.0000    0.0000 C   0  0
    0.0000    0.0000    0.0000 C   0  0
    0.0000    0.0000    0.0000 C   0  0
    0.0000    0.0000    0.0000 C   0  0
    0.0000    0.0000    0.0000 C   0  0
    0.0000    0.0000    0.0000 C   0  0
    0.0000    0.0000    0.0000 C   0  0
    0.0000    0.0000    0.0000 C   0  0
    0.0000    0.0000    0.0000 C   0  0
    0.0000    0.0000    0.0000 C   0  0
    0.0000    0.0000    0.0000 C   0  0
  1  2  1  0
  2  3  1  0
  3  4  1  0
  4  5  1  0
  5  6  1  0
  6  7  1  0
  7  8  1  0
  8  9  1  0
  9 10  1  0
 10 11  1  0
 11 12  1  0
 12 13  1  0
 13 14  1  0
 14 15  1  0
 15 16  1  0
 16 17  1  0
 17 18  1  0
 18 19  2  0
 18 20  1  0
 20 21  1  0
 21 22  1  0
 22 23  1  0
 23 24  2  0
 23 25  1  0
 25 26  1  0
 26 27  1  0
 27 28  1  0
 28 29  1  0
 29 30  1  0
 30 31  1  0
 31 32  1  0
 32 33  1  0
 33 34  1  0
 34 35  1  0
 35 36  1  0
 36 37  1  0
 37 38  1  0
 38 39  1  0
 39 40  1  0
 40 41  1  0
M  END
> <Name>
Methylene distearamide

> <SMILES>
CCCCCCCCCCCCCCCCCC(=O)NCNC(=O)CCCCCCCCCCCCCCCCC

> <Reference>
SAR and QSAR in Env Res (1994) 2:159

> <Id>
CRO-286

> <Activity>
NEG

> <Predicted Value>
0      NEG

> <Used>
1

> <Status>
Non-Sensitizer

> <isSensitizer>
0

$$$$
Ethohexadiol
  SciTegic06161615552D

 10  9  0  0  0  0            999 V2000
    0.0000    0.0000    0.0000 C   0  0
    0.0000    0.0000    0.0000 C   0  0
    0.0000    0.0000    0.0000 C   0  0
    0.0000    0.0000    0.0000 C   0  0
    0.0000    0.0000    0.0000 O   0  0
    0.0000    0.0000    0.0000 C   0  0
    0.0000    0.0000    0.0000 C   0  0
    0.0000    0.0000    0.0000 C   0  0
    0.0000    0.0000    0.0000 C   0  0
    0.0000    0.0000    0.0000 O   0  0
  1  2  1  0
  2  3  1  0
  3  4  1  0
  4  5  1  0
  4  6  1  0
  6  7  1  0
  7  8  1  0
  6  9  1  0
  9 10  1  0
M  END
> <Name>
Ethohexadiol

> <SMILES>
CCCC(O)C(CC)CO

> <Reference>
Howard I Maibach (priv comm)

> <Id>
94-96-2

> <Activity>
NEG

> <Predicted Value>
0.001  NEG

> <Used>
1

> <Status>
Non-Sensitizer

> <isSensitizer>
0

$$$$
Diisostearyl maleate
  SciTegic06161615552D

 44 43  0  0  0  0            999 V2000
    0.0000    0.0000    0.0000 C   0  0
    0.0000    0.0000    0.0000 C   0  0
    0.0000    0.0000    0.0000 C   0  0
    0.0000    0.0000    0.0000 C   0  0
    0.0000    0.0000    0.0000 C   0  0
    0.0000    0.0000    0.0000 C   0  0
    0.0000    0.0000    0.0000 C   0  0
    0.0000    0.0000    0.0000 C   0  0
    0.0000    0.0000    0.0000 C   0  0
    0.0000    0.0000    0.0000 C   0  0
    0.0000    0.0000    0.0000 C   0  0
    0.0000    0.0000    0.0000 C   0  0
    0.0000    0.0000    0.0000 C   0  0
    0.0000    0.0000    0.0000 C   0  0
    0.0000    0.0000    0.0000 C   0  0
    0.0000    0.0000    0.0000 C   0  0
    0.0000    0.0000    0.0000 C   0  0
    0.0000    0.0000    0.0000 C   0  0
    0.0000    0.0000    0.0000 O   0  0
    0.0000    0.0000    0.0000 C   0  0
    0.0000    0.0000    0.0000 O   0  0
    0.0000    0.0000    0.0000 C   0  0
    0.0000    0.0000    0.0000 C   0  0
    0.0000    0.0000    0.0000 C   0  0
    0.0000    0.0000    0.0000 O   0  0
    0.0000    0.0000    0.0000 O   0  0
    0.0000    0.0000    0.0000 C   0  0
    0.0000    0.0000    0.0000 C   0  0
    0.0000    0.0000    0.0000 C   0  0
    0.0000    0.0000    0.0000 C   0  0
    0.0000    0.0000    0.0000 C   0  0
    0.0000    0.0000    0.0000 C   0  0
    0.0000    0.0000    0.0000 C   0  0
    0.0000    0.0000    0.0000 C   0  0
    0.0000    0.0000    0.0000 C   0  0
    0.0000    0.0000    0.0000 C   0  0
    0.0000    0.0000    0.0000 C   0  0
    0.0000    0.0000    0.0000 C   0  0
    0.0000    0.0000    0.0000 C   0  0
    0.0000    0.0000    0.0000 C   0  0
    0.0000    0.0000    0.0000 C   0  0
    0.0000    0.0000    0.0000 C   0  0
    0.0000    0.0000    0.0000 C   0  0
    0.0000    0.0000    0.0000 C   0  0
  1  2  1  0
  2  3  1  0
  2  4  1  0
  4  5  1  0
  5  6  1  0
  6  7  1  0
  7  8  1  0
  8  9  1  0
  9 10  1  0
 10 11  1  0
 11 12  1  0
 12 13  1  0
 13 14  1  0
 14 15  1  0
 15 16  1  0
 16 17  1  0
 17 18  1  0
 18 19  1  0
 19 20  1  0
 20 21  2  0
 20 22  1  0
 22 23  2  3
 23 24  1  0
 24 25  2  0
 24 26  1  0
 26 27  1  0
 27 28  1  0
 28 29  1  0
 29 30  1  0
 30 31  1  0
 31 32  1  0
 32 33  1  0
 33 34  1  0
 34 35  1  0
 35 36  1  0
 36 37  1  0
 37 38  1  0
 38 39  1  0
 39 40  1  0
 40 41  1  0
 41 42  1  0
 42 43  1  0
 42 44  1  0
M  END
> <Name>
Diisostearyl maleate

> <SMILES>
CC(C)CCCCCCCCCCCCCCCOC(=O)C=CC(=O)OCCCCCCCCCCCCCCCC(C)C

> <Reference>
Howard I Maibach (priv comm)

> <Id>
67763-18-2

> <Activity>
NEG

> <Predicted Value>
0.007  NEG

> <Used>
1

> <Status>
Non-Sensitizer

> <isSensitizer>
0

$$$$
3;5-Dimethyl-cyclohex-3-en-1-yl carboxaldehyde
  SciTegic06161615552D

 10 10  0  0  0  0            999 V2000
    0.0000    0.0000    0.0000 C   0  0
    0.0000    0.0000    0.0000 C   0  0
    0.0000    0.0000    0.0000 C   0  0
    0.0000    0.0000    0.0000 C   0  0
    0.0000    0.0000    0.0000 C   0  0
    0.0000    0.0000    0.0000 C   0  0
    0.0000    0.0000    0.0000 C   0  0
    0.0000    0.0000    0.0000 C   0  0
    0.0000    0.0000    0.0000 C   0  0
    0.0000    0.0000    0.0000 O   0  0
  1  2  1  0
  2  3  1  0
  3  4  1  0
  4  5  1  0
  5  6  1  0
  6  7  2  3
  7  2  1  0
  6  8  1  0
  4  9  1  0
  9 10  2  0
M  END
> <Name>
3;5-Dimethyl-cyclohex-3-en-1-yl carboxaldehyde

> <SMILES>
CC1CC(CC(=C1)C)C=O

> <Reference>
SAR and QSAR in Env Res (1994) 2:159

> <Id>
CRO-192

> <Activity>
POS

> <Predicted Value>
1      POS

> <Used>
1

> <Status>
Sensitizer

> <isSensitizer>
1

$$$$
3;5;5-Trimethylhexanoyl chloride
  SciTegic06161615552D

 11 10  0  0  0  0            999 V2000
    0.0000    0.0000    0.0000 C   0  0
    0.0000    0.0000    0.0000 C   0  0
    0.0000    0.0000    0.0000 C   0  0
    0.0000    0.0000    0.0000 C   0  0
    0.0000    0.0000    0.0000 Cl  0  0
    0.0000    0.0000    0.0000 O   0  0
    0.0000    0.0000    0.0000 C   0  0
    0.0000    0.0000    0.0000 C   0  0
    0.0000    0.0000    0.0000 C   0  0
    0.0000    0.0000    0.0000 C   0  0
    0.0000    0.0000    0.0000 C   0  0
  1  2  1  0
  2  3  1  0
  3  4  1  0
  4  5  1  0
  4  6  2  0
  2  7  1  0
  7  8  1  0
  8  9  1  0
  8 10  1  0
  8 11  1  0
M  END
> <Name>
3;5;5-Trimethylhexanoyl chloride

> <SMILES>
CC(CC(Cl)=O)CC(C)(C)C

> <Reference>
David A Basketter (priv comm)

> <Id>
25-AOO

> <Activity>
POS

> <Predicted Value>
0.994  POS

> <Used>
1

> <Status>
Sensitizer

> <isSensitizer>
1

$$$$
N-2;3-Trimethyl-2-isopropylbutanamide
  SciTegic06161615552D

 12 11  0  0  0  0            999 V2000
    0.0000    0.0000    0.0000 C   0  0
    0.0000    0.0000    0.0000 N   0  0
    0.0000    0.0000    0.0000 C   0  0
    0.0000    0.0000    0.0000 O   0  0
    0.0000    0.0000    0.0000 C   0  0
    0.0000    0.0000    0.0000 C   0  0
    0.0000    0.0000    0.0000 C   0  0
    0.0000    0.0000    0.0000 C   0  0
    0.0000    0.0000    0.0000 C   0  0
    0.0000    0.0000    0.0000 C   0  0
    0.0000    0.0000    0.0000 C   0  0
    0.0000    0.0000    0.0000 C   0  0
  1  2  1  0
  2  3  1  0
  3  4  2  0
  3  5  1  0
  5  6  1  0
  5  7  1  0
  7  8  1  0
  7  9  1  0
  5 10  1  0
 10 11  1  0
 10 12  1  0
M  END
> <Name>
N-2;3-Trimethyl-2-isopropylbutanamide

> <SMILES>
CNC(=O)C(C)(C(C)C)C(C)C

> <Reference>
SAR and QSAR in Env Res (1994) 2:159

> <Id>
CRO-313

> <Activity>
NEG

> <Predicted Value>
0.01   NEG

> <Used>
1

> <Status>
Non-Sensitizer

> <isSensitizer>
0

$$$$
Citral
  SciTegic06161615552D

 11 10  0  0  0  0            999 V2000
    0.0000    0.0000    0.0000 C   0  0
    0.0000    0.0000    0.0000 C   0  0
    0.0000    0.0000    0.0000 C   0  0
    0.0000    0.0000    0.0000 C   0  0
    0.0000    0.0000    0.0000 C   0  0
    0.0000    0.0000    0.0000 C   0  0
    0.0000    0.0000    0.0000 C   0  0
    0.0000    0.0000    0.0000 C   0  0
    0.0000    0.0000    0.0000 C   0  0
    0.0000    0.0000    0.0000 C   0  0
    0.0000    0.0000    0.0000 O   0  0
  1  2  1  0
  2  3  1  0
  2  4  2  3
  4  5  1  0
  5  6  1  0
  6  7  1  0
  7  8  1  0
  7  9  2  3
  9 10  1  0
 10 11  2  0
M  END
> <Name>
Citral

> <SMILES>
CC(C)=CCCC(C)=CC=O

> <Reference>
Contact Dermatitis (1991) 25:160

> <Id>
5392-40-5

> <Activity>
POS

> <Predicted Value>
1      POS

> <Used>
1

> <Status>
Sensitizer

> <isSensitizer>
1

$$$$
Ethyl lactyl pyrrolidone carboxylic acid
  SciTegic06161615552D

 16 16  0  0  0  0            999 V2000
    0.0000    0.0000    0.0000 C   0  0
    0.0000    0.0000    0.0000 C   0  0
    0.0000    0.0000    0.0000 O   0  0
    0.0000    0.0000    0.0000 C   0  0
    0.0000    0.0000    0.0000 O   0  0
    0.0000    0.0000    0.0000 C   0  0
    0.0000    0.0000    0.0000 C   0  0
    0.0000    0.0000    0.0000 O   0  0
    0.0000    0.0000    0.0000 C   0  0
    0.0000    0.0000    0.0000 O   0  0
    0.0000    0.0000    0.0000 C   0  0
    0.0000    0.0000    0.0000 C   0  0
    0.0000    0.0000    0.0000 C   0  0
    0.0000    0.0000    0.0000 C   0  0
    0.0000    0.0000    0.0000 O   0  0
    0.0000    0.0000    0.0000 N   0  0
  1  2  1  0
  2  3  1  0
  3  4  1  0
  4  5  2  0
  4  6  1  0
  6  7  1  0
  6  8  1  0
  8  9  1  0
  9 10  2  0
  9 11  1  0
 11 12  1  0
 12 13  1  0
 13 14  1  0
 14 15  2  0
 14 16  1  0
 16 11  1  0
M  END
> <Name>
Ethyl lactyl pyrrolidone carboxylic acid

> <SMILES>
CCOC(=O)C(C)OC(=O)C1CCC(=O)N1

> <Reference>
SAR and QSAR in Env Res (1994) 2:159

> <Id>
CRO-138

> <Activity>
POS

> <Predicted Value>
1      POS

> <Used>
1

> <Status>
Sensitizer

> <isSensitizer>
1

$$$$
Methacrylic acid
  SciTegic06161615552D

  6  5  0  0  0  0            999 V2000
    0.0000    0.0000    0.0000 C   0  0
    0.0000    0.0000    0.0000 C   0  0
    0.0000    0.0000    0.0000 C   0  0
    0.0000    0.0000    0.0000 C   0  0
    0.0000    0.0000    0.0000 O   0  0
    0.0000    0.0000    0.0000 O   0  0
  1  2  1  0
  2  3  2  0
  2  4  1  0
  4  5  1  0
  4  6  2  0
M  END
> <Name>
Methacrylic acid

> <SMILES>
CC(=C)C(O)=O

> <Reference>
J Dentistry (1995) 23:295

> <Id>
79-41-4

> <Activity>
POS

> <Predicted Value>
0.998  POS

> <Used>
1

> <Status>
Sensitizer

> <isSensitizer>
1

$$$$
Acetyl tributyl citrate
  SciTegic06161615552D

 28 27  0  0  0  0            999 V2000
    0.0000    0.0000    0.0000 C   0  0
    0.0000    0.0000    0.0000 C   0  0
    0.0000    0.0000    0.0000 C   0  0
    0.0000    0.0000    0.0000 C   0  0
    0.0000    0.0000    0.0000 O   0  0
    0.0000    0.0000    0.0000 C   0  0
    0.0000    0.0000    0.0000 O   0  0
    0.0000    0.0000    0.0000 C   0  0
    0.0000    0.0000    0.0000 C   0  0
    0.0000    0.0000    0.0000 C   0  0
    0.0000    0.0000    0.0000 C   0  0
    0.0000    0.0000    0.0000 O   0  0
    0.0000    0.0000    0.0000 O   0  0
    0.0000    0.0000    0.0000 C   0  0
    0.0000    0.0000    0.0000 C   0  0
    0.0000    0.0000    0.0000 C   0  0
    0.0000    0.0000    0.0000 C   0  0
    0.0000    0.0000    0.0000 O   0  0
    0.0000    0.0000    0.0000 C   0  0
    0.0000    0.0000    0.0000 C   0  0
    0.0000    0.0000    0.0000 O   0  0
    0.0000    0.0000    0.0000 C   0  0
    0.0000    0.0000    0.0000 O   0  0
    0.0000    0.0000    0.0000 O   0  0
    0.0000    0.0000    0.0000 C   0  0
    0.0000    0.0000    0.0000 C   0  0
    0.0000    0.0000    0.0000 C   0  0
    0.0000    0.0000    0.0000 C   0  0
  1  2  1  0
  2  3  1  0
  3  4  1  0
  4  5  1  0
  5  6  1  0
  6  7  2  0
  6  8  1  0
  8  9  1  0
  9 10  1  0
 10 11  1  0
 11 12  2  0
 11 13  1  0
 13 14  1  0
 14 15  1  0
 15 16  1  0
 16 17  1  0
  9 18  1  0
 18 19  1  0
 19 20  1  0
 19 21  2  0
  9 22  1  0
 22 23  2  0
 22 24  1  0
 24 25  1  0
 25 26  1  0
 26 27  1  0
 27 28  1  0
M  END
> <Name>
Acetyl tributyl citrate

> <SMILES>
CCCCOC(=O)CC(CC(=O)OCCCC)(OC(C)=O)C(=O)OCCCC

> <Reference>
SAR and QSAR in Env Res (1994) 2:159

> <Id>
77-90-7

> <Activity>
NEG

> <Predicted Value>
0      NEG

> <Used>
1

> <Status>
Non-Sensitizer

> <isSensitizer>
0

$$$$
4-Trimethyl ammonium butanoyl pyrrolidine bromide
  SciTegic06161615552D

 15 15  0  0  0  0            999 V2000
    0.0000    0.0000    0.0000 C   0  0
    0.0000    0.0000    0.0000 N   0  3
    0.0000    0.0000    0.0000 C   0  0
    0.0000    0.0000    0.0000 C   0  0
    0.0000    0.0000    0.0000 C   0  0
    0.0000    0.0000    0.0000 C   0  0
    0.0000    0.0000    0.0000 C   0  0
    0.0000    0.0000    0.0000 C   0  0
    0.0000    0.0000    0.0000 O   0  0
    0.0000    0.0000    0.0000 N   0  0
    0.0000    0.0000    0.0000 C   0  0
    0.0000    0.0000    0.0000 C   0  0
    0.0000    0.0000    0.0000 C   0  0
    0.0000    0.0000    0.0000 C   0  0
    0.0000    0.0000    0.0000 O   0  0
  1  2  1  0
  2  3  1  0
  2  4  1  0
  2  5  1  0
  5  6  1  0
  6  7  1  0
  7  8  1  0
  8  9  2  0
  8 10  1  0
 10 11  1  0
 11 12  1  0
 12 13  1  0
 13 14  1  0
 14 10  1  0
 14 15  2  0
M  CHG  1   2   1
M  END
> <Name>
4-Trimethyl ammonium butanoyl pyrrolidine bromide

> <SMILES>
C[N+](C)(C)CCCC(=O)N1CCCC1=O

> <Reference>
SAR and QSAR in Env Res (1994) 2:159

> <Id>
CRO-256

> <Activity>
NEG

> <Predicted Value>
0      NEG

> <Used>
1

> <Status>
Non-Sensitizer

> <isSensitizer>
0

$$$$
Geraniol
  SciTegic06161615552D

 11 10  0  0  0  0            999 V2000
    0.0000    0.0000    0.0000 C   0  0
    0.0000    0.0000    0.0000 C   0  0
    0.0000    0.0000    0.0000 C   0  0
    0.0000    0.0000    0.0000 C   0  0
    0.0000    0.0000    0.0000 C   0  0
    0.0000    0.0000    0.0000 C   0  0
    0.0000    0.0000    0.0000 C   0  0
    0.0000    0.0000    0.0000 C   0  0
    0.0000    0.0000    0.0000 C   0  0
    0.0000    0.0000    0.0000 C   0  0
    0.0000    0.0000    0.0000 O   0  0
  1  2  1  0
  2  3  1  0
  2  4  2  3
  4  5  1  0
  5  6  1  0
  6  7  1  0
  7  8  1  0
  7  9  2  3
  9 10  1  0
 10 11  1  0
M  END
> <Name>
Geraniol

> <SMILES>
CC(C)=CCCC(C)=CCO

> <Reference>
SAR and QSAR in Env Res (1994) 2:159

> <Id>
106-24-1

> <Activity>
NEG

> <Predicted Value>
0.004  NEG

> <Used>
1

> <Status>
Non-Sensitizer

> <isSensitizer>
0

$$$$
Diperoxydodecanoic acid
  SciTegic06161615552D

 18 17  0  0  0  0            999 V2000
    0.0000    0.0000    0.0000 O   0  0
    0.0000    0.0000    0.0000 O   0  0
    0.0000    0.0000    0.0000 C   0  0
    0.0000    0.0000    0.0000 O   0  0
    0.0000    0.0000    0.0000 C   0  0
    0.0000    0.0000    0.0000 C   0  0
    0.0000    0.0000    0.0000 C   0  0
    0.0000    0.0000    0.0000 C   0  0
    0.0000    0.0000    0.0000 C   0  0
    0.0000    0.0000    0.0000 C   0  0
    0.0000    0.0000    0.0000 C   0  0
    0.0000    0.0000    0.0000 C   0  0
    0.0000    0.0000    0.0000 C   0  0
    0.0000    0.0000    0.0000 C   0  0
    0.0000    0.0000    0.0000 C   0  0
    0.0000    0.0000    0.0000 O   0  0
    0.0000    0.0000    0.0000 O   0  0
    0.0000    0.0000    0.0000 O   0  0
  1  2  1  0
  2  3  1  0
  3  4  2  0
  3  5  1  0
  5  6  1  0
  6  7  1  0
  7  8  1  0
  8  9  1  0
  9 10  1  0
 10 11  1  0
 11 12  1  0
 12 13  1  0
 13 14  1  0
 14 15  1  0
 15 16  2  0
 15 17  1  0
 17 18  1  0
M  END
> <Name>
Diperoxydodecanoic acid

> <SMILES>
OOC(=O)CCCCCCCCCCC(=O)OO

> <Reference>
SAR and QSAR in Env Res (1994) 2:159

> <Id>
CRO-178

> <Activity>
POS

> <Predicted Value>
0.036  NEG

> <Used>
1

> <Status>
Sensitizer

> <isSensitizer>
1

$$$$
2-Hydroxyethylacrylate
  SciTegic06161615552D

  8  7  0  0  0  0            999 V2000
    0.0000    0.0000    0.0000 O   0  0
    0.0000    0.0000    0.0000 C   0  0
    0.0000    0.0000    0.0000 C   0  0
    0.0000    0.0000    0.0000 O   0  0
    0.0000    0.0000    0.0000 C   0  0
    0.0000    0.0000    0.0000 O   0  0
    0.0000    0.0000    0.0000 C   0  0
    0.0000    0.0000    0.0000 C   0  0
  1  2  1  0
  2  3  1  0
  3  4  1  0
  4  5  1  0
  5  6  2  0
  5  7  1  0
  7  8  2  0
M  END
> <Name>
2-Hydroxyethylacrylate

> <SMILES>
OCCOC(=O)C=C

> <Reference>
SAR and QSAR in Env Res (1994) 2:159

> <Id>
CRO-62

> <Activity>
POS

> <Predicted Value>
1      POS

> <Used>
1

> <Status>
Sensitizer

> <isSensitizer>
1

$$$$
1-(2;2;2-Trimethyl-3-cyclohexen-1-yl)-2-buten-1-one
  SciTegic06161615552D

 14 14  0  0  0  0            999 V2000
    0.0000    0.0000    0.0000 C   0  0
    0.0000    0.0000    0.0000 C   0  0
    0.0000    0.0000    0.0000 C   0  0
    0.0000    0.0000    0.0000 C   0  0
    0.0000    0.0000    0.0000 O   0  0
    0.0000    0.0000    0.0000 C   0  0
    0.0000    0.0000    0.0000 C   0  0
    0.0000    0.0000    0.0000 C   0  0
    0.0000    0.0000    0.0000 C   0  0
    0.0000    0.0000    0.0000 C   0  0
    0.0000    0.0000    0.0000 C   0  0
    0.0000    0.0000    0.0000 C   0  0
    0.0000    0.0000    0.0000 C   0  0
    0.0000    0.0000    0.0000 C   0  0
  1  2  1  0
  2  3  2  3
  3  4  1  0
  4  5  2  0
  4  6  1  0
  6  7  1  0
  7  8  1  0
  7  9  1  0
  9 10  2  3
 10 11  1  0
 11 12  1  0
 12  6  1  0
 12 13  1  0
 12 14  1  0
M  END
> <Name>
1-(2;2;2-Trimethyl-3-cyclohexen-1-yl)-2-buten-1-one

> <SMILES>
CC=CC(=O)C1C(C)C=CCC1(C)C

> <Reference>
SAR and QSAR in Env Res (1994) 2:159

> <Id>
CRO-193

> <Activity>
POS

> <Predicted Value>
1      POS

> <Used>
1

> <Status>
Sensitizer

> <isSensitizer>
1

$$$$
Glyceryl methacrylate
  SciTegic06161615552D

 12 11  0  0  0  0            999 V2000
    0.0000    0.0000    0.0000 C   0  0
    0.0000    0.0000    0.0000 C   0  0
    0.0000    0.0000    0.0000 C   0  0
    0.0000    0.0000    0.0000 C   0  0
    0.0000    0.0000    0.0000 O   0  0
    0.0000    0.0000    0.0000 O   0  0
    0.0000    0.0000    0.0000 C   0  0
    0.0000    0.0000    0.0000 C   0  0
    0.0000    0.0000    0.0000 C   0  0
    0.0000    0.0000    0.0000 O   0  0
    0.0000    0.0000    0.0000 C   0  0
    0.0000    0.0000    0.0000 O   0  0
  1  2  1  0
  2  3  2  0
  2  4  1  0
  4  5  2  0
  4  6  1  0
  6  7  1  0
  7  8  1  0
  8  9  1  0
  9 10  2  0
  9 11  1  0
 11 12  1  0
M  END
> <Name>
Glyceryl methacrylate

> <SMILES>
CC(=C)C(=O)OCCC(=O)CO

> <Reference>
J Dentistry (1995) 23:295

> <Id>
5919-74-4

> <Activity>
POS

> <Predicted Value>
0.833  POS

> <Used>
1

> <Status>
Sensitizer

> <isSensitizer>
1

$$$$
Diiso-stearyl maleate
  SciTegic06161615552D

 43 42  0  0  0  0            999 V2000
    0.0000    0.0000    0.0000 C   0  0
    0.0000    0.0000    0.0000 C   0  0
    0.0000    0.0000    0.0000 C   0  0
    0.0000    0.0000    0.0000 C   0  0
    0.0000    0.0000    0.0000 C   0  0
    0.0000    0.0000    0.0000 C   0  0
    0.0000    0.0000    0.0000 C   0  0
    0.0000    0.0000    0.0000 C   0  0
    0.0000    0.0000    0.0000 C   0  0
    0.0000    0.0000    0.0000 C   0  0
    0.0000    0.0000    0.0000 C   0  0
    0.0000    0.0000    0.0000 C   0  0
    0.0000    0.0000    0.0000 C   0  0
    0.0000    0.0000    0.0000 C   0  0
    0.0000    0.0000    0.0000 C   0  0
    0.0000    0.0000    0.0000 C   0  0
    0.0000    0.0000    0.0000 C   0  0
    0.0000    0.0000    0.0000 O   0  0
    0.0000    0.0000    0.0000 C   0  0
    0.0000    0.0000    0.0000 O   0  0
    0.0000    0.0000    0.0000 C   0  0
    0.0000    0.0000    0.0000 C   0  0
    0.0000    0.0000    0.0000 O   0  0
    0.0000    0.0000    0.0000 C   0  0
    0.0000    0.0000    0.0000 O   0  0
    0.0000    0.0000    0.0000 O   0  0
    0.0000    0.0000    0.0000 C   0  0
    0.0000    0.0000    0.0000 C   0  0
    0.0000    0.0000    0.0000 C   0  0
    0.0000    0.0000    0.0000 C   0  0
    0.0000    0.0000    0.0000 C   0  0
    0.0000    0.0000    0.0000 C   0  0
    0.0000    0.0000    0.0000 C   0  0
    0.0000    0.0000    0.0000 C   0  0
    0.0000    0.0000    0.0000 C   0  0
    0.0000    0.0000    0.0000 C   0  0
    0.0000    0.0000    0.0000 C   0  0
    0.0000    0.0000    0.0000 C   0  0
    0.0000    0.0000    0.0000 C   0  0
    0.0000    0.0000    0.0000 C   0  0
    0.0000    0.0000    0.0000 C   0  0
    0.0000    0.0000    0.0000 C   0  0
    0.0000    0.0000    0.0000 C   0  0
  1  2  1  0
  2  3  1  0
  3  4  1  0
  4  5  1  0
  5  6  1  0
  6  7  1  0
  7  8  1  0
  8  9  1  0
  9 10  1  0
 10 11  1  0
 11 12  1  0
 12 13  1  0
 13 14  1  0
 14 15  1  0
 15 16  1  0
 16 17  1  0
 16 18  1  0
 18 19  1  0
 19 20  2  0
 19 21  1  0
 21 22  1  0
 22 23  1  0
 22 24  1  0
 24 25  2  0
 24 26  1  0
 26 27  1  0
 27 28  1  0
 27 29  1  0
 29 30  1  0
 30 31  1  0
 31 32  1  0
 32 33  1  0
 33 34  1  0
 34 35  1  0
 35 36  1  0
 36 37  1  0
 37 38  1  0
 38 39  1  0
 39 40  1  0
 40 41  1  0
 41 42  1  0
 42 43  1  0
M  END
> <Name>
Diiso-stearyl maleate

> <SMILES>
CCCCCCCCCCCCCCCC(C)OC(=O)CC(O)C(=O)OC(C)CCCCCCCCCCCCCCC

> <Reference>
SAR and QSAR in Env Res (1994) 2:159

> <Id>
CRO-309

> <Activity>
NEG

> <Predicted Value>
0.002  NEG

> <Used>
1

> <Status>
Non-Sensitizer

> <isSensitizer>
0

$$$$
Methylene-bis-acrylamide
  SciTegic06161615552D

 11 10  0  0  0  0            999 V2000
    0.0000    0.0000    0.0000 C   0  0
    0.0000    0.0000    0.0000 C   0  0
    0.0000    0.0000    0.0000 C   0  0
    0.0000    0.0000    0.0000 O   0  0
    0.0000    0.0000    0.0000 N   0  0
    0.0000    0.0000    0.0000 C   0  0
    0.0000    0.0000    0.0000 N   0  0
    0.0000    0.0000    0.0000 C   0  0
    0.0000    0.0000    0.0000 O   0  0
    0.0000    0.0000    0.0000 C   0  0
    0.0000    0.0000    0.0000 C   0  0
  1  2  2  0
  2  3  1  0
  3  4  2  0
  3  5  1  0
  5  6  1  0
  6  7  1  0
  7  8  1  0
  8  9  2  0
  8 10  1  0
 10 11  2  0
M  END
> <Name>
Methylene-bis-acrylamide

> <SMILES>
C=CC(=O)NCNC(=O)C=C

> <Reference>
SAR and QSAR in Env Res (1994) 2:159

> <Id>
CRO-75

> <Activity>
POS

> <Predicted Value>
1      POS

> <Used>
1

> <Status>
Sensitizer

> <isSensitizer>
1

$$$$
Methyl cedryl ketone
  SciTegic06161615552D

 19 21  0  0  0  0            999 V2000
    0.0000    0.0000    0.0000 C   0  0
    0.0000    0.0000    0.0000 C   0  0
    0.0000    0.0000    0.0000 C   0  0
    0.0000    0.0000    0.0000 C   0  0
    0.0000    0.0000    0.0000 C   0  0
    0.0000    0.0000    0.0000 C   0  0
    0.0000    0.0000    0.0000 C   0  0
    0.0000    0.0000    0.0000 C   0  0
    0.0000    0.0000    0.0000 C   0  0
    0.0000    0.0000    0.0000 C   0  0
    0.0000    0.0000    0.0000 C   0  0
    0.0000    0.0000    0.0000 C   0  0
    0.0000    0.0000    0.0000 C   0  0
    0.0000    0.0000    0.0000 C   0  0
    0.0000    0.0000    0.0000 C   0  0
    0.0000    0.0000    0.0000 O   0  0
    0.0000    0.0000    0.0000 C   0  0
    0.0000    0.0000    0.0000 C   0  0
    0.0000    0.0000    0.0000 O   0  0
  1  2  1  0
  2  3  1  0
  3  4  1  0
  4  5  1  0
  5  6  1  0
  6  7  1  0
  6  8  1  0
  6  9  1  0
  9 10  1  0
 10 11  1  0
 11  2  1  0
 11  5  1  0
 11 12  1  0
 12 13  1  0
 13 14  1  0
 14  9  1  0
 14 15  1  0
 14 16  1  0
 16 17  1  0
 17 18  1  0
 17 19  2  0
M  END
> <Name>
Methyl cedryl ketone

> <SMILES>
CC1CCC2C(C)(C)C3CC12CCC3(C)OC(C)=O

> <Reference>
SAR and QSAR in Env Res (1994) 2:159

> <Id>
CRO-310

> <Activity>
NEG

> <Predicted Value>
0.041  NEG

> <Used>
1

> <Status>
Non-Sensitizer

> <isSensitizer>
0

$$$$
2-Ethyl-4-(2;2;3-trimethyl-3-enyl)but-2-en-1-ol
  SciTegic06161615552D

 15 15  0  0  0  0            999 V2000
    0.0000    0.0000    0.0000 C   0  0
    0.0000    0.0000    0.0000 C   0  0
    0.0000    0.0000    0.0000 C   0  0
    0.0000    0.0000    0.0000 C   0  0
    0.0000    0.0000    0.0000 O   0  0
    0.0000    0.0000    0.0000 C   0  0
    0.0000    0.0000    0.0000 C   0  0
    0.0000    0.0000    0.0000 C   0  0
    0.0000    0.0000    0.0000 C   0  0
    0.0000    0.0000    0.0000 C   0  0
    0.0000    0.0000    0.0000 C   0  0
    0.0000    0.0000    0.0000 C   0  0
    0.0000    0.0000    0.0000 C   0  0
    0.0000    0.0000    0.0000 C   0  0
    0.0000    0.0000    0.0000 C   0  0
  1  2  1  0
  2  3  1  0
  3  4  1  0
  4  5  1  0
  3  6  2  3
  6  7  1  0
  7  8  1  0
  8  9  1  0
  9 10  1  0
 10 11  2  3
 11 12  1  0
 11 13  1  0
 13  8  1  0
 13 14  1  0
 13 15  1  0
M  END
> <Name>
2-Ethyl-4-(2;2;3-trimethyl-3-enyl)but-2-en-1-ol

> <SMILES>
CCC(CO)=CCC1CC=C(C)C1(C)C

> <Reference>
SAR and QSAR in Env Res (1994) 2:159

> <Id>
CRO-127

> <Activity>
POS

> <Predicted Value>
1      POS

> <Used>
1

> <Status>
Sensitizer

> <isSensitizer>
1

$$$$
2-Hydroxy ethyl methacrylate
  SciTegic06161615552D

  9  8  0  0  0  0            999 V2000
    0.0000    0.0000    0.0000 O   0  0
    0.0000    0.0000    0.0000 C   0  0
    0.0000    0.0000    0.0000 C   0  0
    0.0000    0.0000    0.0000 O   0  0
    0.0000    0.0000    0.0000 C   0  0
    0.0000    0.0000    0.0000 C   0  0
    0.0000    0.0000    0.0000 O   0  0
    0.0000    0.0000    0.0000 C   0  0
    0.0000    0.0000    0.0000 C   0  0
  1  2  1  0
  2  3  1  0
  3  4  1  0
  4  5  1  0
  5  6  1  0
  6  7  2  0
  6  8  1  0
  8  9  2  0
M  END
> <Name>
2-Hydroxy ethyl methacrylate

> <SMILES>
OCCOCC(=O)C=C

> <Reference>
J Dentistry (1995) 23:295

> <Id>
868-77-9

> <Activity>
POS

> <Predicted Value>
1      POS

> <Used>
1

> <Status>
Sensitizer

> <isSensitizer>
1

$$$$
1-(2;6;6-Trimethyl-1;3-cyclohexadiene-1-yl)-2-buten-1-one
  SciTegic06161615552D

 14 14  0  0  0  0            999 V2000
    0.0000    0.0000    0.0000 C   0  0
    0.0000    0.0000    0.0000 C   0  0
    0.0000    0.0000    0.0000 C   0  0
    0.0000    0.0000    0.0000 C   0  0
    0.0000    0.0000    0.0000 O   0  0
    0.0000    0.0000    0.0000 C   0  0
    0.0000    0.0000    0.0000 C   0  0
    0.0000    0.0000    0.0000 C   0  0
    0.0000    0.0000    0.0000 C   0  0
    0.0000    0.0000    0.0000 C   0  0
    0.0000    0.0000    0.0000 C   0  0
    0.0000    0.0000    0.0000 C   0  0
    0.0000    0.0000    0.0000 C   0  0
    0.0000    0.0000    0.0000 C   0  0
  1  2  1  0
  2  3  2  3
  3  4  1  0
  4  5  2  0
  4  6  1  0
  6  7  2  3
  7  8  1  0
  7  9  1  0
  9 10  2  3
 10 11  1  0
 11 12  1  0
 12  6  1  0
 12 13  1  0
 12 14  1  0
M  END
> <Name>
1-(2;6;6-Trimethyl-1;3-cyclohexadiene-1-yl)-2-buten-1-one

> <SMILES>
CC=CC(=O)C1=C(C)C=CCC1(C)C

> <Reference>
SAR and QSAR in Env Res (1994) 2:159

> <Id>
CRO-249

> <Activity>
POS

> <Predicted Value>
1      POS

> <Used>
1

> <Status>
Sensitizer

> <isSensitizer>
1

$$$$
5;5-Dimethyl-3-methylenedihydro-2(3H)-furanone
  SciTegic06161615552D

  9  9  0  0  0  0            999 V2000
    0.0000    0.0000    0.0000 C   0  0
    0.0000    0.0000    0.0000 C   0  0
    0.0000    0.0000    0.0000 C   0  0
    0.0000    0.0000    0.0000 C   0  0
    0.0000    0.0000    0.0000 C   0  0
    0.0000    0.0000    0.0000 C   0  0
    0.0000    0.0000    0.0000 C   0  0
    0.0000    0.0000    0.0000 O   0  0
    0.0000    0.0000    0.0000 O   0  0
  1  2  1  0
  2  3  1  0
  2  4  1  0
  4  5  1  0
  5  6  2  0
  5  7  1  0
  7  8  2  0
  7  9  1  0
  9  2  1  0
M  END
> <Name>
5;5-Dimethyl-3-methylenedihydro-2(3H)-furanone

> <SMILES>
CC1(C)CC(=C)C(=O)O1

> <Reference>
David A Basketter (priv comm)

> <Id>
1-AOO

> <Activity>
POS

> <Predicted Value>
1      POS

> <Used>
1

> <Status>
Sensitizer

> <isSensitizer>
1

$$$$
Triethyl citrate
  SciTegic06161615552D

 19 18  0  0  0  0            999 V2000
    0.0000    0.0000    0.0000 C   0  0
    0.0000    0.0000    0.0000 C   0  0
    0.0000    0.0000    0.0000 O   0  0
    0.0000    0.0000    0.0000 C   0  0
    0.0000    0.0000    0.0000 O   0  0
    0.0000    0.0000    0.0000 C   0  0
    0.0000    0.0000    0.0000 C   0  0
    0.0000    0.0000    0.0000 O   0  0
    0.0000    0.0000    0.0000 C   0  0
    0.0000    0.0000    0.0000 C   0  0
    0.0000    0.0000    0.0000 O   0  0
    0.0000    0.0000    0.0000 O   0  0
    0.0000    0.0000    0.0000 C   0  0
    0.0000    0.0000    0.0000 C   0  0
    0.0000    0.0000    0.0000 C   0  0
    0.0000    0.0000    0.0000 O   0  0
    0.0000    0.0000    0.0000 O   0  0
    0.0000    0.0000    0.0000 C   0  0
    0.0000    0.0000    0.0000 C   0  0
  1  2  1  0
  2  3  1  0
  3  4  1  0
  4  5  2  0
  4  6  1  0
  6  7  1  0
  7  8  1  0
  7  9  1  0
  9 10  1  0
 10 11  2  0
 10 12  1  0
 12 13  1  0
 13 14  1  0
  7 15  1  0
 15 16  2  0
 15 17  1  0
 17 18  1  0
 18 19  1  0
M  END
> <Name>
Triethyl citrate

> <SMILES>
CCOC(=O)CC(O)(CC(=O)OCC)C(=O)OCC

> <Reference>
SAR and QSAR in Env Res (1994) 2:159

> <Id>
CRO-117

> <Activity>
NEG

> <Predicted Value>
0      NEG

> <Used>
1

> <Status>
Non-Sensitizer

> <isSensitizer>
0

$$$$
Acetyl-1;4-dimethyl cyclohexane
  SciTegic06161615552D

 11 11  0  0  0  0            999 V2000
    0.0000    0.0000    0.0000 C   0  0
    0.0000    0.0000    0.0000 C   0  0
    0.0000    0.0000    0.0000 C   0  0
    0.0000    0.0000    0.0000 C   0  0
    0.0000    0.0000    0.0000 C   0  0
    0.0000    0.0000    0.0000 C   0  0
    0.0000    0.0000    0.0000 C   0  0
    0.0000    0.0000    0.0000 C   0  0
    0.0000    0.0000    0.0000 C   0  0
    0.0000    0.0000    0.0000 C   0  0
    0.0000    0.0000    0.0000 O   0  0
  1  2  1  0
  2  3  1  0
  3  4  1  0
  4  5  1  0
  5  6  1  0
  5  7  1  0
  7  8  1  0
  8  2  1  0
  5  9  1  0
  9 10  1  0
  9 11  2  0
M  END
> <Name>
Acetyl-1;4-dimethyl cyclohexane

> <SMILES>
CC1CCC(C)(CC1)C(C)=O

> <Reference>
SAR and QSAR in Env Res (1994) 2:159

> <Id>
CRO-307

> <Activity>
NEG

> <Predicted Value>
0      NEG

> <Used>
1

> <Status>
Non-Sensitizer

> <isSensitizer>
0

$$$$
Dimethyl fumarate
  SciTegic06161615552D

 10  9  0  0  0  0            999 V2000
    0.0000    0.0000    0.0000 C   0  0
    0.0000    0.0000    0.0000 O   0  0
    0.0000    0.0000    0.0000 C   0  0
    0.0000    0.0000    0.0000 O   0  0
    0.0000    0.0000    0.0000 C   0  0
    0.0000    0.0000    0.0000 C   0  0
    0.0000    0.0000    0.0000 C   0  0
    0.0000    0.0000    0.0000 O   0  0
    0.0000    0.0000    0.0000 O   0  0
    0.0000    0.0000    0.0000 C   0  0
  1  2  1  0
  2  3  1  0
  3  4  2  0
  3  5  1  0
  5  6  2  3
  6  7  1  0
  7  8  2  0
  7  9  1  0
  9 10  1  0
M  END
> <Name>
Dimethyl fumarate

> <SMILES>
COC(=O)C=CC(=O)OC

> <Reference>
Dermatology (1994) 188:126

> <Id>
624-49-7

> <Activity>
POS

> <Predicted Value>
1      POS

> <Used>
1

> <Status>
Sensitizer

> <isSensitizer>
1

$$$$
.alpha.-Hydroxycaprylic acid
  SciTegic06161615552D

 11 10  0  0  0  0            999 V2000
    0.0000    0.0000    0.0000 C   0  0
    0.0000    0.0000    0.0000 C   0  0
    0.0000    0.0000    0.0000 C   0  0
    0.0000    0.0000    0.0000 C   0  0
    0.0000    0.0000    0.0000 C   0  0
    0.0000    0.0000    0.0000 C   0  0
    0.0000    0.0000    0.0000 C   0  0
    0.0000    0.0000    0.0000 O   0  0
    0.0000    0.0000    0.0000 C   0  0
    0.0000    0.0000    0.0000 O   0  0
    0.0000    0.0000    0.0000 O   0  0
  1  2  1  0
  2  3  1  0
  3  4  1  0
  4  5  1  0
  5  6  1  0
  6  7  1  0
  7  8  1  0
  7  9  1  0
  9 10  1  0
  9 11  2  0
M  END
> <Name>
.alpha.-Hydroxycaprylic acid

> <SMILES>
CCCCCCC(O)C(O)=O

> <Reference>
SAR and QSAR in Env Res (1994) 2:159

> <Id>
CRO-216

> <Activity>
POS

> <Predicted Value>
0.016  NEG

> <Used>
1

> <Status>
Sensitizer

> <isSensitizer>
1

$$$$
1-Carvone
  SciTegic06161615552D

 11 11  0  0  0  0            999 V2000
    0.0000    0.0000    0.0000 C   0  0
    0.0000    0.0000    0.0000 C   0  0
    0.0000    0.0000    0.0000 C   0  0
    0.0000    0.0000    0.0000 C   0  0
    0.0000    0.0000    0.0000 C   0  0
    0.0000    0.0000    0.0000 C   0  0
    0.0000    0.0000    0.0000 C   0  0
    0.0000    0.0000    0.0000 C   0  0
    0.0000    0.0000    0.0000 C   0  0
    0.0000    0.0000    0.0000 O   0  0
    0.0000    0.0000    0.0000 C   0  0
  1  2  1  0
  2  3  2  0
  2  4  1  0
  4  5  1  0
  5  6  1  0
  6  7  2  3
  7  8  1  0
  7  9  1  0
  9 10  2  0
  9 11  1  0
 11  4  1  0
M  END
> <Name>
1-Carvone

> <SMILES>
CC(=C)C1CC=C(C)C(=O)C1

> <Reference>
SAR and QSAR in Env Res (1994) 2:159

> <Id>
99-49-0

> <Activity>
POS

> <Predicted Value>
1      POS

> <Used>
1

> <Status>
Sensitizer

> <isSensitizer>
1

$$$$
Acetamide
  SciTegic06161615552D

  4  3  0  0  0  0            999 V2000
    0.0000    0.0000    0.0000 C   0  0
    0.0000    0.0000    0.0000 C   0  0
    0.0000    0.0000    0.0000 N   0  0
    0.0000    0.0000    0.0000 O   0  0
  1  2  1  0
  2  3  1  0
  2  4  2  0
M  END
> <Name>
Acetamide

> <SMILES>
CC(N)=O

> <Reference>
SAR and QSAR in Env Res (1994) 2:159

> <Id>
60-35-5

> <Activity>
NEG

> <Predicted Value>
0      NEG

> <Used>
1

> <Status>
Non-Sensitizer

> <isSensitizer>
0

$$$$
Dodecanedioic acid
  SciTegic06161615552D

 16 15  0  0  0  0            999 V2000
    0.0000    0.0000    0.0000 O   0  0
    0.0000    0.0000    0.0000 C   0  0
    0.0000    0.0000    0.0000 O   0  0
    0.0000    0.0000    0.0000 C   0  0
    0.0000    0.0000    0.0000 C   0  0
    0.0000    0.0000    0.0000 C   0  0
    0.0000    0.0000    0.0000 C   0  0
    0.0000    0.0000    0.0000 C   0  0
    0.0000    0.0000    0.0000 C   0  0
    0.0000    0.0000    0.0000 C   0  0
    0.0000    0.0000    0.0000 C   0  0
    0.0000    0.0000    0.0000 C   0  0
    0.0000    0.0000    0.0000 C   0  0
    0.0000    0.0000    0.0000 C   0  0
    0.0000    0.0000    0.0000 O   0  0
    0.0000    0.0000    0.0000 O   0  0
  1  2  1  0
  2  3  2  0
  2  4  1  0
  4  5  1  0
  5  6  1  0
  6  7  1  0
  7  8  1  0
  8  9  1  0
  9 10  1  0
 10 11  1  0
 11 12  1  0
 12 13  1  0
 13 14  1  0
 14 15  1  0
 14 16  2  0
M  END
> <Name>
Dodecanedioic acid

> <SMILES>
OC(=O)CCCCCCCCCCC(O)=O

> <Reference>
SAR and QSAR in Env Res (1994) 2:159

> <Id>
CRO-179

> <Activity>
NEG

> <Predicted Value>
0.003  NEG

> <Used>
1

> <Status>
Non-Sensitizer

> <isSensitizer>
0

$$$$
1-(2;6;6-Trimethyl-2-cyclohexen-1-yl)-2-buten-1-one
  SciTegic06161615552D

 14 14  0  0  0  0            999 V2000
    0.0000    0.0000    0.0000 C   0  0
    0.0000    0.0000    0.0000 C   0  0
    0.0000    0.0000    0.0000 C   0  0
    0.0000    0.0000    0.0000 C   0  0
    0.0000    0.0000    0.0000 O   0  0
    0.0000    0.0000    0.0000 C   0  0
    0.0000    0.0000    0.0000 C   0  0
    0.0000    0.0000    0.0000 C   0  0
    0.0000    0.0000    0.0000 C   0  0
    0.0000    0.0000    0.0000 C   0  0
    0.0000    0.0000    0.0000 C   0  0
    0.0000    0.0000    0.0000 C   0  0
    0.0000    0.0000    0.0000 C   0  0
    0.0000    0.0000    0.0000 C   0  0
  1  2  1  0
  2  3  2  3
  3  4  1  0
  4  5  2  0
  4  6  1  0
  6  7  1  0
  7  8  2  3
  8  9  1  0
  9 10  1  0
 10 11  1  0
 11  6  1  0
 11 12  1  0
 11 13  1  0
  7 14  1  0
M  END
> <Name>
1-(2;6;6-Trimethyl-2-cyclohexen-1-yl)-2-buten-1-one

> <SMILES>
CC=CC(=O)C1C(=CCCC1(C)C)C

> <Reference>
SAR and QSAR in Env Res (1994) 2:159

> <Id>
CRO-248

> <Activity>
POS

> <Predicted Value>
1      POS

> <Used>
1

> <Status>
Sensitizer

> <isSensitizer>
1

$$$$
Limonene
  SciTegic06161615552D

 10 10  0  0  0  0            999 V2000
    0.0000    0.0000    0.0000 C   0  0
    0.0000    0.0000    0.0000 C   0  0
    0.0000    0.0000    0.0000 C   0  0
    0.0000    0.0000    0.0000 C   0  0
    0.0000    0.0000    0.0000 C   0  0
    0.0000    0.0000    0.0000 C   0  0
    0.0000    0.0000    0.0000 C   0  0
    0.0000    0.0000    0.0000 C   0  0
    0.0000    0.0000    0.0000 C   0  0
    0.0000    0.0000    0.0000 C   0  0
  1  2  1  0
  2  3  2  3
  3  4  1  0
  4  5  1  0
  5  6  1  0
  6  7  1  0
  7  2  1  0
  5  8  1  0
  8  9  1  0
  8 10  2  0
M  END
> <Name>
Limonene

> <SMILES>
CC1=CCC(CC1)C(C)=C

> <Reference>
Contact Dermatitis (1991) 25:160

> <Id>
138-86-3

> <Activity>
NEG

> <Predicted Value>
0      NEG

> <Used>
1

> <Status>
Non-Sensitizer

> <isSensitizer>
0

$$$$
Monoethanolamine
  SciTegic06161615552D

  4  3  0  0  0  0            999 V2000
    0.0000    0.0000    0.0000 N   0  0
    0.0000    0.0000    0.0000 C   0  0
    0.0000    0.0000    0.0000 C   0  0
    0.0000    0.0000    0.0000 O   0  0
  1  2  1  0
  2  3  1  0
  3  4  1  0
M  END
> <Name>
Monoethanolamine

> <SMILES>
NCCO

> <Reference>
Dermatosen (1996) 44:222

> <Id>
141-43-5

> <Activity>
NEG

> <Predicted Value>
0.037  NEG

> <Used>
1

> <Status>
Non-Sensitizer

> <isSensitizer>
0

$$$$
Methacrolein diacetate
  SciTegic06161615552D

 12 11  0  0  0  0            999 V2000
    0.0000    0.0000    0.0000 C   0  0
    0.0000    0.0000    0.0000 C   0  0
    0.0000    0.0000    0.0000 O   0  0
    0.0000    0.0000    0.0000 O   0  0
    0.0000    0.0000    0.0000 C   0  0
    0.0000    0.0000    0.0000 O   0  0
    0.0000    0.0000    0.0000 C   0  0
    0.0000    0.0000    0.0000 C   0  0
    0.0000    0.0000    0.0000 O   0  0
    0.0000    0.0000    0.0000 C   0  0
    0.0000    0.0000    0.0000 C   0  0
    0.0000    0.0000    0.0000 C   0  0
  1  2  1  0
  2  3  2  0
  2  4  1  0
  4  5  1  0
  5  6  1  0
  6  7  1  0
  7  8  1  0
  7  9  2  0
  5 10  1  0
 10 11  1  0
 10 12  2  0
M  END
> <Name>
Methacrolein diacetate

> <SMILES>
CC(=O)OC(OC(C)=O)C(C)=C

> <Reference>
SAR and QSAR in Env Res (1994) 2:159

> <Id>
CRO-69

> <Activity>
POS

> <Predicted Value>
1      POS

> <Used>
1

> <Status>
Sensitizer

> <isSensitizer>
1

$$$$
Acetyl caprolactam
  SciTegic06161615552D

 11 11  0  0  0  0            999 V2000
    0.0000    0.0000    0.0000 C   0  0
    0.0000    0.0000    0.0000 C   0  0
    0.0000    0.0000    0.0000 O   0  0
    0.0000    0.0000    0.0000 N   0  0
    0.0000    0.0000    0.0000 C   0  0
    0.0000    0.0000    0.0000 C   0  0
    0.0000    0.0000    0.0000 C   0  0
    0.0000    0.0000    0.0000 C   0  0
    0.0000    0.0000    0.0000 C   0  0
    0.0000    0.0000    0.0000 C   0  0
    0.0000    0.0000    0.0000 O   0  0
  1  2  1  0
  2  3  2  0
  2  4  1  0
  4  5  1  0
  5  6  1  0
  6  7  1  0
  7  8  1  0
  8  9  1  0
  9 10  1  0
 10  4  1  0
 10 11  2  0
M  END
> <Name>
Acetyl caprolactam

> <SMILES>
CC(=O)N1CCCCCC1=O

> <Reference>
SAR and QSAR in Env Res (1994) 2:159

> <Id>
1888-91-1

> <Activity>
NEG

> <Predicted Value>
0      NEG

> <Used>
1

> <Status>
Non-Sensitizer

> <isSensitizer>
0

$$$$
Dimethyl-2-(2-pentylcyclopentan-1-one)malonate
  SciTegic06161615552D

 20 20  0  0  0  0            999 V2000
    0.0000    0.0000    0.0000 C   0  0
    0.0000    0.0000    0.0000 C   0  0
    0.0000    0.0000    0.0000 C   0  0
    0.0000    0.0000    0.0000 C   0  0
    0.0000    0.0000    0.0000 C   0  0
    0.0000    0.0000    0.0000 C   0  0
    0.0000    0.0000    0.0000 C   0  0
    0.0000    0.0000    0.0000 C   0  0
    0.0000    0.0000    0.0000 C   0  0
    0.0000    0.0000    0.0000 C   0  0
    0.0000    0.0000    0.0000 O   0  0
    0.0000    0.0000    0.0000 C   0  0
    0.0000    0.0000    0.0000 C   0  0
    0.0000    0.0000    0.0000 O   0  0
    0.0000    0.0000    0.0000 O   0  0
    0.0000    0.0000    0.0000 C   0  0
    0.0000    0.0000    0.0000 C   0  0
    0.0000    0.0000    0.0000 O   0  0
    0.0000    0.0000    0.0000 O   0  0
    0.0000    0.0000    0.0000 C   0  0
  1  2  1  0
  2  3  1  0
  3  4  1  0
  4  5  1  0
  5  6  1  0
  6  7  1  0
  7  8  1  0
  8  9  1  0
  9 10  1  0
 10  6  1  0
 10 11  2  0
  6 12  1  0
 12 13  1  0
 13 14  2  0
 13 15  1  0
 15 16  1  0
 12 17  1  0
 17 18  2  0
 17 19  1  0
 19 20  1  0
M  END
> <Name>
Dimethyl-2-(2-pentylcyclopentan-1-one)malonate

> <SMILES>
CCCCCC1(CCCC1=O)C(C(=O)OC)C(=O)OC

> <Reference>
SAR and QSAR in Env Res (1994) 2:159

> <Id>
CRO-282

> <Activity>
POS

> <Predicted Value>
0.999  POS

> <Used>
1

> <Status>
Sensitizer

> <isSensitizer>
1

$$$$
.alpha.-Sulfolauramide
  SciTegic06161615552D

 18 17  0  0  0  0            999 V2000
    0.0000    0.0000    0.0000 C   0  0
    0.0000    0.0000    0.0000 C   0  0
    0.0000    0.0000    0.0000 C   0  0
    0.0000    0.0000    0.0000 C   0  0
    0.0000    0.0000    0.0000 C   0  0
    0.0000    0.0000    0.0000 C   0  0
    0.0000    0.0000    0.0000 C   0  0
    0.0000    0.0000    0.0000 C   0  0
    0.0000    0.0000    0.0000 C   0  0
    0.0000    0.0000    0.0000 C   0  0
    0.0000    0.0000    0.0000 C   0  0
    0.0000    0.0000    0.0000 C   0  0
    0.0000    0.0000    0.0000 N   0  0
    0.0000    0.0000    0.0000 O   0  0
    0.0000    0.0000    0.0000 S   0  0
    0.0000    0.0000    0.0000 O   0  0
    0.0000    0.0000    0.0000 O   0  0
    0.0000    0.0000    0.0000 O   0  0
  1  2  1  0
  2  3  1  0
  3  4  1  0
  4  5  1  0
  5  6  1  0
  6  7  1  0
  7  8  1  0
  8  9  1  0
  9 10  1  0
 10 11  1  0
 11 12  1  0
 12 13  1  0
 12 14  2  0
 11 15  1  0
 15 16  1  0
 15 17  2  0
 15 18  2  0
M  END
> <Name>
.alpha.-Sulfolauramide

> <SMILES>
CCCCCCCCCCC(C(N)=O)S(O)(=O)=O

> <Reference>
SAR and QSAR in Env Res (1994) 2:159

> <Id>
CRO-290

> <Activity>
POS

> <Predicted Value>
1      POS

> <Used>
1

> <Status>
Sensitizer

> <isSensitizer>
1

$$$$
Propylene glycol
  SciTegic06161615552D

  5  4  0  0  0  0            999 V2000
    0.0000    0.0000    0.0000 C   0  0
    0.0000    0.0000    0.0000 C   0  0
    0.0000    0.0000    0.0000 O   0  0
    0.0000    0.0000    0.0000 C   0  0
    0.0000    0.0000    0.0000 O   0  0
  1  2  1  0
  2  3  1  0
  2  4  1  0
  4  5  1  0
M  END
> <Name>
Propylene glycol

> <SMILES>
CC(O)CO

> <Reference>
Contact Dermatitis (1994) 31:72

> <Id>
57-55-6

> <Activity>
NEG

> <Predicted Value>
0      NEG

> <Used>
1

> <Status>
Non-Sensitizer

> <isSensitizer>
0

$$$$
Octahydrocoumarin
  SciTegic06161615552D

 11 12  0  0  0  0            999 V2000
    0.0000    0.0000    0.0000 O   0  0
    0.0000    0.0000    0.0000 C   0  0
    0.0000    0.0000    0.0000 C   0  0
    0.0000    0.0000    0.0000 C   0  0
    0.0000    0.0000    0.0000 C   0  0
    0.0000    0.0000    0.0000 C   0  0
    0.0000    0.0000    0.0000 C   0  0
    0.0000    0.0000    0.0000 C   0  0
    0.0000    0.0000    0.0000 C   0  0
    0.0000    0.0000    0.0000 C   0  0
    0.0000    0.0000    0.0000 O   0  0
  1  2  2  0
  2  3  1  0
  3  4  1  0
  4  5  1  0
  5  6  1  0
  6  7  1  0
  7  8  1  0
  8  9  1  0
  9 10  1  0
 10  5  1  0
 10 11  1  0
 11  2  1  0
M  END
> <Name>
Octahydrocoumarin

> <SMILES>
O=C2CCC1CCCCC1O2

> <Reference>
SAR and QSAR in Env Res (1994) 2:159

> <Id>
4430-31-3

> <Activity>
NEG

> <Predicted Value>
0      NEG

> <Used>
1

> <Status>
Non-Sensitizer

> <isSensitizer>
0

$$$$
Monooctyl citrate
  SciTegic06161615552D

 21 20  0  0  0  0            999 V2000
    0.0000    0.0000    0.0000 C   0  0
    0.0000    0.0000    0.0000 C   0  0
    0.0000    0.0000    0.0000 C   0  0
    0.0000    0.0000    0.0000 C   0  0
    0.0000    0.0000    0.0000 C   0  0
    0.0000    0.0000    0.0000 C   0  0
    0.0000    0.0000    0.0000 C   0  0
    0.0000    0.0000    0.0000 C   0  0
    0.0000    0.0000    0.0000 O   0  0
    0.0000    0.0000    0.0000 C   0  0
    0.0000    0.0000    0.0000 O   0  0
    0.0000    0.0000    0.0000 C   0  0
    0.0000    0.0000    0.0000 C   0  0
    0.0000    0.0000    0.0000 O   0  0
    0.0000    0.0000    0.0000 C   0  0
    0.0000    0.0000    0.0000 C   0  0
    0.0000    0.0000    0.0000 O   0  0
    0.0000    0.0000    0.0000 O   0  0
    0.0000    0.0000    0.0000 C   0  0
    0.0000    0.0000    0.0000 O   0  0
    0.0000    0.0000    0.0000 O   0  0
  1  2  1  0
  2  3  1  0
  3  4  1  0
  4  5  1  0
  5  6  1  0
  6  7  1  0
  7  8  1  0
  8  9  1  0
  9 10  1  0
 10 11  2  0
 10 12  1  0
 12 13  1  0
 13 14  1  0
 13 15  1  0
 15 16  1  0
 16 17  1  0
 16 18  2  0
 13 19  1  0
 19 20  1  0
 19 21  2  0
M  END
> <Name>
Monooctyl citrate

> <SMILES>
CCCCCCCCOC(=O)CC(O)(CC(O)=O)C(O)=O

> <Reference>
SAR and QSAR in Env Res (1994) 2:159

> <Id>
CRO-305

> <Activity>
NEG

> <Predicted Value>
0      NEG

> <Used>
1

> <Status>
Non-Sensitizer

> <isSensitizer>
0

$$$$
Diperoxyazelaic acid
  SciTegic06161615552D

 15 14  0  0  0  0            999 V2000
    0.0000    0.0000    0.0000 O   0  0
    0.0000    0.0000    0.0000 O   0  0
    0.0000    0.0000    0.0000 C   0  0
    0.0000    0.0000    0.0000 O   0  0
    0.0000    0.0000    0.0000 C   0  0
    0.0000    0.0000    0.0000 C   0  0
    0.0000    0.0000    0.0000 C   0  0
    0.0000    0.0000    0.0000 C   0  0
    0.0000    0.0000    0.0000 C   0  0
    0.0000    0.0000    0.0000 C   0  0
    0.0000    0.0000    0.0000 C   0  0
    0.0000    0.0000    0.0000 C   0  0
    0.0000    0.0000    0.0000 O   0  0
    0.0000    0.0000    0.0000 O   0  0
    0.0000    0.0000    0.0000 O   0  0
  1  2  1  0
  2  3  1  0
  3  4  2  0
  3  5  1  0
  5  6  1  0
  6  7  1  0
  7  8  1  0
  8  9  1  0
  9 10  1  0
 10 11  1  0
 11 12  1  0
 12 13  2  0
 12 14  1  0
 14 15  1  0
M  END
> <Name>
Diperoxyazelaic acid

> <SMILES>
OOC(=O)CCCCCCCC(=O)OO

> <Reference>
SAR and QSAR in Env Res (1994) 2:159

> <Id>
CRO-174

> <Activity>
NEG

> <Predicted Value>
0.029  NEG

> <Used>
1

> <Status>
Non-Sensitizer

> <isSensitizer>
0

$$$$
Acrylic acid 2;2-bis-acryloyloxymethyl-3-hydroxy-propyl ester
  SciTegic06161615552D

 21 20  0  0  0  0            999 V2000
    0.0000    0.0000    0.0000 O   0  0
    0.0000    0.0000    0.0000 C   0  0
    0.0000    0.0000    0.0000 C   0  0
    0.0000    0.0000    0.0000 C   0  0
    0.0000    0.0000    0.0000 O   0  0
    0.0000    0.0000    0.0000 C   0  0
    0.0000    0.0000    0.0000 O   0  0
    0.0000    0.0000    0.0000 C   0  0
    0.0000    0.0000    0.0000 C   0  0
    0.0000    0.0000    0.0000 C   0  0
    0.0000    0.0000    0.0000 O   0  0
    0.0000    0.0000    0.0000 C   0  0
    0.0000    0.0000    0.0000 O   0  0
    0.0000    0.0000    0.0000 C   0  0
    0.0000    0.0000    0.0000 C   0  0
    0.0000    0.0000    0.0000 C   0  0
    0.0000    0.0000    0.0000 O   0  0
    0.0000    0.0000    0.0000 C   0  0
    0.0000    0.0000    0.0000 O   0  0
    0.0000    0.0000    0.0000 C   0  0
    0.0000    0.0000    0.0000 C   0  0
  1  2  1  0
  2  3  1  0
  3  4  1  0
  4  5  1  0
  5  6  1  0
  6  7  2  0
  6  8  1  0
  8  9  2  0
  3 10  1  0
 10 11  1  0
 11 12  1  0
 12 13  2  0
 12 14  1  0
 14 15  2  0
  3 16  1  0
 16 17  1  0
 17 18  1  0
 18 19  2  0
 18 20  1  0
 20 21  2  0
M  END
> <Name>
Acrylic acid 2;2-bis-acryloyloxymethyl-3-hydroxy-propyl ester

> <SMILES>
OCC(COC(=O)C=C)(COC(=O)C=C)COC(=O)C=C

> <Id>
99999-11-0

> <Activity>
POS

> <Predicted Value>
1      POS

> <Used>
1

> <Status>
Sensitizer

> <isSensitizer>
1

$$$$
Acetamide MEA
  SciTegic06161615552D

  7  6  0  0  0  0            999 V2000
    0.0000    0.0000    0.0000 C   0  0
    0.0000    0.0000    0.0000 C   0  0
    0.0000    0.0000    0.0000 O   0  0
    0.0000    0.0000    0.0000 N   0  0
    0.0000    0.0000    0.0000 C   0  0
    0.0000    0.0000    0.0000 C   0  0
    0.0000    0.0000    0.0000 O   0  0
  1  2  1  0
  2  3  2  0
  2  4  1  0
  4  5  1  0
  5  6  1  0
  6  7  1  0
M  END
> <Name>
Acetamide MEA

> <SMILES>
CC(=O)NCCO

> <Reference>
J Am Coll Toxicol (1993) 12(3):225

> <Id>
142-26-7

> <Activity>
NEG

> <Predicted Value>
0      NEG

> <Used>
1

> <Status>
Non-Sensitizer

> <isSensitizer>
0

$$$$
Methyl glyoxylate
  SciTegic06161615552D

  6  5  0  0  0  0            999 V2000
    0.0000    0.0000    0.0000 C   0  0
    0.0000    0.0000    0.0000 O   0  0
    0.0000    0.0000    0.0000 C   0  0
    0.0000    0.0000    0.0000 O   0  0
    0.0000    0.0000    0.0000 C   0  0
    0.0000    0.0000    0.0000 O   0  0
  1  2  1  0
  2  3  1  0
  3  4  2  0
  3  5  1  0
  5  6  2  0
M  END
> <Name>
Methyl glyoxylate

> <SMILES>
COC(=O)C=O

> <Reference>
SAR and QSAR in Env Res (1994) 2:159

> <Id>
922-68-9

> <Activity>
POS

> <Predicted Value>
0.912  POS

> <Used>
1

> <Status>
Sensitizer

> <isSensitizer>
1

$$$$
Methyl abietate
  SciTegic06161615552D

 23 25  0  0  0  0            999 V2000
    0.0000    0.0000    0.0000 C   0  0
    0.0000    0.0000    0.0000 O   0  0
    0.0000    0.0000    0.0000 C   0  0
    0.0000    0.0000    0.0000 O   0  0
    0.0000    0.0000    0.0000 C   0  0
    0.0000    0.0000    0.0000 C   0  0
    0.0000    0.0000    0.0000 C   0  0
    0.0000    0.0000    0.0000 C   0  0
    0.0000    0.0000    0.0000 C   0  0
    0.0000    0.0000    0.0000 C   0  0
    0.0000    0.0000    0.0000 C   0  0
    0.0000    0.0000    0.0000 C   0  0
    0.0000    0.0000    0.0000 C   0  0
    0.0000    0.0000    0.0000 C   0  0
    0.0000    0.0000    0.0000 C   0  0
    0.0000    0.0000    0.0000 C   0  0
    0.0000    0.0000    0.0000 C   0  0
    0.0000    0.0000    0.0000 C   0  0
    0.0000    0.0000    0.0000 C   0  0
    0.0000    0.0000    0.0000 C   0  0
    0.0000    0.0000    0.0000 C   0  0
    0.0000    0.0000    0.0000 C   0  0
    0.0000    0.0000    0.0000 C   0  0
  1  2  1  0
  2  3  1  0
  3  4  2  0
  3  5  1  0
  5  6  1  0
  5  7  1  0
  7  8  1  0
  8  9  1  0
  9 10  1  0
 10 11  1  0
 10 12  1  0
 12 13  1  0
 13 14  1  0
 14 15  1  0
 15 16  2  3
 16 17  1  0
 17 12  1  0
 17 18  2  3
 18 19  1  0
 19 20  1  0
 20  5  1  0
 20 10  1  0
 15 21  1  0
 21 22  1  0
 21 23  1  0
M  END
> <Name>
Methyl abietate

> <SMILES>
COC(=O)C2(C)CCCC3(C)C1CCC(=CC1=CCC23)C(C)C

> <Reference>
Contact Dermatitis (1989) 20:41

> <Id>
127-25-3

> <Activity>
POS

> <Predicted Value>
0.986  POS

> <Used>
1

> <Status>
Sensitizer

> <isSensitizer>
1

$$$$
Diethanolamine
  SciTegic06161615552D

  7  6  0  0  0  0            999 V2000
    0.0000    0.0000    0.0000 O   0  0
    0.0000    0.0000    0.0000 C   0  0
    0.0000    0.0000    0.0000 C   0  0
    0.0000    0.0000    0.0000 N   0  0
    0.0000    0.0000    0.0000 C   0  0
    0.0000    0.0000    0.0000 C   0  0
    0.0000    0.0000    0.0000 O   0  0
  1  2  1  0
  2  3  1  0
  3  4  1  0
  4  5  1  0
  5  6  1  0
  6  7  1  0
M  END
> <Name>
Diethanolamine

> <SMILES>
OCCNCCO

> <Reference>
Dermatosen (1996) 44:222

> <Id>
111-42-2

> <Activity>
NEG

> <Predicted Value>
0.932  POS

> <Used>
1

> <Status>
Non-Sensitizer

> <isSensitizer>
0

$$$$
.alpha.-Hydroxycaproic acid
  SciTegic06161615552D

  9  8  0  0  0  0            999 V2000
    0.0000    0.0000    0.0000 C   0  0
    0.0000    0.0000    0.0000 C   0  0
    0.0000    0.0000    0.0000 C   0  0
    0.0000    0.0000    0.0000 C   0  0
    0.0000    0.0000    0.0000 C   0  0
    0.0000    0.0000    0.0000 O   0  0
    0.0000    0.0000    0.0000 C   0  0
    0.0000    0.0000    0.0000 O   0  0
    0.0000    0.0000    0.0000 O   0  0
  1  2  1  0
  2  3  1  0
  3  4  1  0
  4  5  1  0
  5  6  1  0
  5  7  1  0
  7  8  1  0
  7  9  2  0
M  END
> <Name>
.alpha.-Hydroxycaproic acid

> <SMILES>
CCCCC(O)C(O)=O

> <Reference>
SAR and QSAR in Env Res (1994) 2:159

> <Id>
CRO-60

> <Activity>
NEG

> <Predicted Value>
0.004  NEG

> <Used>
1

> <Status>
Non-Sensitizer

> <isSensitizer>
0

$$$$
Pimaric acid
  SciTegic06161615552D

 22 24  0  0  0  0            999 V2000
    0.0000    0.0000    0.0000 C   0  0
    0.0000    0.0000    0.0000 C   0  0
    0.0000    0.0000    0.0000 C   0  0
    0.0000    0.0000    0.0000 C   0  0
    0.0000    0.0000    0.0000 C   0  0
    0.0000    0.0000    0.0000 C   0  0
    0.0000    0.0000    0.0000 C   0  0
    0.0000    0.0000    0.0000 C   0  0
    0.0000    0.0000    0.0000 C   0  0
    0.0000    0.0000    0.0000 C   0  0
    0.0000    0.0000    0.0000 C   0  0
    0.0000    0.0000    0.0000 C   0  0
    0.0000    0.0000    0.0000 C   0  0
    0.0000    0.0000    0.0000 C   0  0
    0.0000    0.0000    0.0000 C   0  0
    0.0000    0.0000    0.0000 C   0  0
    0.0000    0.0000    0.0000 C   0  0
    0.0000    0.0000    0.0000 C   0  0
    0.0000    0.0000    0.0000 O   0  0
    0.0000    0.0000    0.0000 O   0  0
    0.0000    0.0000    0.0000 C   0  0
    0.0000    0.0000    0.0000 C   0  0
  1  2  1  0
  2  3  1  0
  3  4  1  0
  4  5  1  0
  5  6  1  0
  6  7  2  3
  7  2  1  0
  6  8  1  0
  8  9  1  0
  9 10  1  0
 10 11  1  0
 11  5  1  0
 11 12  1  0
 11 13  1  0
 13 14  1  0
 14 15  1  0
 15 16  1  0
 16 10  1  0
 16 17  1  0
 16 18  1  0
 18 19  1  0
 18 20  2  0
  2 21  1  0
 21 22  2  0
M  END
> <Name>
Pimaric acid

> <SMILES>
CC1(CCC2C(=C1)CCC3C2(C)CCCC3(C)C(O)=O)C=C

> <Reference>
Contact Dermatitis (1990) 23:90

> <Id>
127-27-5

> <Activity>
POS

> <Predicted Value>
1      POS

> <Used>
1

> <Status>
Sensitizer

> <isSensitizer>
1

$$$$
Budesonide
  SciTegic06161615552D

 31 35  0  0  0  0            999 V2000
    0.0000    0.0000    0.0000 C   0  0
    0.0000    0.0000    0.0000 C   0  0
    0.0000    0.0000    0.0000 C   0  0
    0.0000    0.0000    0.0000 C   0  0
    0.0000    0.0000    0.0000 O   0  0
    0.0000    0.0000    0.0000 C   0  0
    0.0000    0.0000    0.0000 C   0  0
    0.0000    0.0000    0.0000 C   0  0
    0.0000    0.0000    0.0000 C   0  0
    0.0000    0.0000    0.0000 C   0  0
    0.0000    0.0000    0.0000 C   0  0
    0.0000    0.0000    0.0000 C   0  0
    0.0000    0.0000    0.0000 C   0  0
    0.0000    0.0000    0.0000 C   0  0
    0.0000    0.0000    0.0000 O   0  0
    0.0000    0.0000    0.0000 C   0  0
    0.0000    0.0000    0.0000 C   0  0
    0.0000    0.0000    0.0000 C   0  0
    0.0000    0.0000    0.0000 C   0  0
    0.0000    0.0000    0.0000 C   0  0
    0.0000    0.0000    0.0000 C   0  0
    0.0000    0.0000    0.0000 O   0  0
    0.0000    0.0000    0.0000 C   0  0
    0.0000    0.0000    0.0000 C   0  0
    0.0000    0.0000    0.0000 C   0  0
    0.0000    0.0000    0.0000 C   0  0
    0.0000    0.0000    0.0000 O   0  0
    0.0000    0.0000    0.0000 C   0  0
    0.0000    0.0000    0.0000 O   0  0
    0.0000    0.0000    0.0000 C   0  0
    0.0000    0.0000    0.0000 O   0  0
  1  2  1  0
  2  3  1  0
  3  4  1  0
  4  5  1  0
  5  6  1  0
  6  7  1  0
  7  8  1  0
  8  9  1  0
  9 10  1  0
 10 11  1  0
 11 12  1  0
 12 13  2  3
 13 14  1  0
 14 15  2  0
 14 16  1  0
 16 17  2  3
 17 18  1  0
 18 12  1  0
 18 19  1  0
 18 20  1  0
 20  9  1  0
 20 21  1  0
 21 22  1  0
 21 23  1  0
 23 24  1  0
 24  8  1  0
 24 25  1  0
 24 26  1  0
 26  6  1  0
 26 27  1  0
 27  4  1  0
 26 28  1  0
 28 29  2  0
 28 30  1  0
 30 31  1  0
M  END
> <Name>
Budesonide

> <SMILES>
CCCC5OC4CC3C2CCC1=CC(=O)C=CC1(C)C2C(O)CC3(C)C4(O5)C(=O)CO

> <Reference>
Contact Dermatitis (1996) 34:161

> <Id>
51333-22-3

> <Activity>
POS

> <Predicted Value>
1      POS

> <Used>
1

> <Status>
Sensitizer

> <isSensitizer>
1

$$$$
Isoalantolactone
  SciTegic06161615552D

 17 19  0  0  0  0            999 V2000
    0.0000    0.0000    0.0000 C   0  0
    0.0000    0.0000    0.0000 C   0  0
    0.0000    0.0000    0.0000 C   0  0
    0.0000    0.0000    0.0000 C   0  0
    0.0000    0.0000    0.0000 C   0  0
    0.0000    0.0000    0.0000 C   0  0
    0.0000    0.0000    0.0000 C   0  0
    0.0000    0.0000    0.0000 C   0  0
    0.0000    0.0000    0.0000 C   0  0
    0.0000    0.0000    0.0000 C   0  0
    0.0000    0.0000    0.0000 C   0  0
    0.0000    0.0000    0.0000 C   0  0
    0.0000    0.0000    0.0000 O   0  0
    0.0000    0.0000    0.0000 C   0  0
    0.0000    0.0000    0.0000 O   0  0
    0.0000    0.0000    0.0000 C   0  0
    0.0000    0.0000    0.0000 C   0  0
  1  2  1  0
  2  3  1  0
  3  4  1  0
  4  5  1  0
  5  6  1  0
  6  7  2  0
  6  8  1  0
  8  2  1  0
  8  9  1  0
  9 10  1  0
 10 11  1  0
 11 12  1  0
 12  2  1  0
 11 13  1  0
 13 14  1  0
 14 15  2  0
 14 16  1  0
 16 10  1  0
 16 17  2  0
M  END
> <Name>
Isoalantolactone

> <SMILES>
CC12CCCC(=C)C1CC3C(C2)OC(=O)C3=C

> <Reference>
Contact Dermatitis (1982) 8:18

> <Id>
470-17-7

> <Activity>
POS

> <Predicted Value>
1      POS

> <Used>
1

> <Status>
Sensitizer

> <isSensitizer>
1

$$$$
Dichlorvos
  SciTegic06161615552D

 11 10  0  0  0  0            999 V2000
    0.0000    0.0000    0.0000 C   0  0
    0.0000    0.0000    0.0000 O   0  0
    0.0000    0.0000    0.0000 P   0  0
    0.0000    0.0000    0.0000 O   0  0
    0.0000    0.0000    0.0000 O   0  0
    0.0000    0.0000    0.0000 C   0  0
    0.0000    0.0000    0.0000 O   0  0
    0.0000    0.0000    0.0000 C   0  0
    0.0000    0.0000    0.0000 C   0  0
    0.0000    0.0000    0.0000 Cl  0  0
    0.0000    0.0000    0.0000 Cl  0  0
  1  2  1  0
  2  3  1  0
  3  4  2  0
  3  5  1  0
  5  6  1  0
  3  7  1  0
  7  8  1  0
  8  9  2  3
  9 10  1  0
  9 11  1  0
M  END
> <Name>
Dichlorvos

> <SMILES>
COP(=O)(OC)OC=C(Cl)Cl

> <Reference>
Contact Dermatitis (1994) 31:140

> <Id>
62-73-7

> <Activity>
POS

> <Predicted Value>
1      POS

> <Used>
1

> <Status>
Sensitizer

> <isSensitizer>
1

$$$$
Alantolactone
  SciTegic06161615552D

 17 19  0  0  0  0            999 V2000
    0.0000    0.0000    0.0000 C   0  0
    0.0000    0.0000    0.0000 C   0  0
    0.0000    0.0000    0.0000 C   0  0
    0.0000    0.0000    0.0000 C   0  0
    0.0000    0.0000    0.0000 C   0  0
    0.0000    0.0000    0.0000 C   0  0
    0.0000    0.0000    0.0000 C   0  0
    0.0000    0.0000    0.0000 C   0  0
    0.0000    0.0000    0.0000 C   0  0
    0.0000    0.0000    0.0000 O   0  0
    0.0000    0.0000    0.0000 C   0  0
    0.0000    0.0000    0.0000 O   0  0
    0.0000    0.0000    0.0000 C   0  0
    0.0000    0.0000    0.0000 C   0  0
    0.0000    0.0000    0.0000 C   0  0
    0.0000    0.0000    0.0000 C   0  0
    0.0000    0.0000    0.0000 C   0  0
  1  2  1  0
  2  3  1  0
  3  4  1  0
  4  5  1  0
  5  6  1  0
  6  7  1  0
  6  8  1  0
  8  9  1  0
  9 10  1  0
 10 11  1  0
 11 12  2  0
 11 13  1  0
 13 14  2  0
 13 15  1  0
 15  9  1  0
 15 16  1  0
 16 17  2  3
 17  2  1  0
 17  6  1  0
M  END
> <Name>
Alantolactone

> <SMILES>
CC2CCCC3(C)CC1OC(=O)C(=C)C1C=C23

> <Reference>
Contact Dermatitis (1982) 8:18

> <Id>
546-43-0

> <Activity>
POS

> <Predicted Value>
0.996  POS

> <Used>
1

> <Status>
Sensitizer

> <isSensitizer>
1

$$$$
Glyoxal
  SciTegic06161615552D

  4  3  0  0  0  0            999 V2000
    0.0000    0.0000    0.0000 O   0  0
    0.0000    0.0000    0.0000 C   0  0
    0.0000    0.0000    0.0000 C   0  0
    0.0000    0.0000    0.0000 O   0  0
  1  2  2  0
  2  3  1  0
  3  4  2  0
M  END
> <Name>
Glyoxal

> <SMILES>
O=CC=O

> <Reference>
Howard I Maibach (priv comm)

> <Id>
107-22-2

> <Activity>
POS

> <Predicted Value>
1      POS

> <Used>
1

> <Status>
Sensitizer

> <isSensitizer>
1

$$$$
3-[2;12-Dihodroxy-12-[5'-(1-hydroxy-undecyl)-octahydro-[2;2']bifuranyl-5-yl]-5-methyl-5H-furan-2-one
  SciTegic06161615552D

 43 45  0  0  0  0            999 V2000
    0.0000    0.0000    0.0000 C   0  0
    0.0000    0.0000    0.0000 C   0  0
    0.0000    0.0000    0.0000 C   0  0
    0.0000    0.0000    0.0000 C   0  0
    0.0000    0.0000    0.0000 C   0  0
    0.0000    0.0000    0.0000 C   0  0
    0.0000    0.0000    0.0000 C   0  0
    0.0000    0.0000    0.0000 C   0  0
    0.0000    0.0000    0.0000 C   0  0
    0.0000    0.0000    0.0000 C   0  0
    0.0000    0.0000    0.0000 C   0  0
    0.0000    0.0000    0.0000 O   0  0
    0.0000    0.0000    0.0000 C   0  0
    0.0000    0.0000    0.0000 C   0  0
    0.0000    0.0000    0.0000 C   0  0
    0.0000    0.0000    0.0000 C   0  0
    0.0000    0.0000    0.0000 O   0  0
    0.0000    0.0000    0.0000 C   0  0
    0.0000    0.0000    0.0000 C   0  0
    0.0000    0.0000    0.0000 C   0  0
    0.0000    0.0000    0.0000 C   0  0
    0.0000    0.0000    0.0000 O   0  0
    0.0000    0.0000    0.0000 C   0  0
    0.0000    0.0000    0.0000 O   0  0
    0.0000    0.0000    0.0000 C   0  0
    0.0000    0.0000    0.0000 C   0  0
    0.0000    0.0000    0.0000 C   0  0
    0.0000    0.0000    0.0000 C   0  0
    0.0000    0.0000    0.0000 C   0  0
    0.0000    0.0000    0.0000 C   0  0
    0.0000    0.0000    0.0000 C   0  0
    0.0000    0.0000    0.0000 C   0  0
    0.0000    0.0000    0.0000 C   0  0
    0.0000    0.0000    0.0000 C   0  0
    0.0000    0.0000    0.0000 O   0  0
    0.0000    0.0000    0.0000 C   0  0
    0.0000    0.0000    0.0000 C   0  0
    0.0000    0.0000    0.0000 C   0  0
    0.0000    0.0000    0.0000 C   0  0
    0.0000    0.0000    0.0000 C   0  0
    0.0000    0.0000    0.0000 O   0  0
    0.0000    0.0000    0.0000 C   0  0
    0.0000    0.0000    0.0000 O   0  0
  1  2  1  0
  2  3  1  0
  3  4  1  0
  4  5  1  0
  5  6  1  0
  6  7  1  0
  7  8  1  0
  8  9  1  0
  9 10  1  0
 10 11  1  0
 11 12  1  0
 11 13  1  0
 13 14  1  0
 14 15  1  0
 15 16  1  0
 16 17  1  0
 17 13  1  0
 16 18  1  0
 18 19  1  0
 19 20  1  0
 20 21  1  0
 21 22  1  0
 22 18  1  0
 21 23  1  0
 23 24  1  0
 23 25  1  0
 25 26  1  0
 26 27  1  0
 27 28  1  0
 28 29  1  0
 29 30  1  0
 30 31  1  0
 31 32  1  0
 32 33  1  0
 33 34  1  0
 34 35  1  0
 34 36  1  0
 36 37  1  0
 37 38  2  3
 38 39  1  0
 39 40  1  0
 39 41  1  0
 41 42  1  0
 42 37  1  0
 42 43  2  0
M  END
> <Name>
3-[2;12-Dihodroxy-12-[5'-(1-hydroxy-undecyl)-octahydro-[2;2']bifuranyl-5-yl]-5-methyl-5H-furan-2-one

> <SMILES>
CCCCCCCCCCC(O)C1CCC(O1)C2CCC(O2)C(O)CCCCCCCCCC(O)CC3=CC(C)OC3=O

> <Id>
99999-01-0

> <Activity>
POS

> <Predicted Value>
1      POS

> <Used>
1

> <Status>
Sensitizer

> <isSensitizer>
1

$$$$
Abietic acid
  SciTegic06161615552D

 22 24  0  0  0  0            999 V2000
    0.0000    0.0000    0.0000 C   0  0
    0.0000    0.0000    0.0000 C   0  0
    0.0000    0.0000    0.0000 C   0  0
    0.0000    0.0000    0.0000 C   0  0
    0.0000    0.0000    0.0000 C   0  0
    0.0000    0.0000    0.0000 C   0  0
    0.0000    0.0000    0.0000 C   0  0
    0.0000    0.0000    0.0000 C   0  0
    0.0000    0.0000    0.0000 C   0  0
    0.0000    0.0000    0.0000 C   0  0
    0.0000    0.0000    0.0000 C   0  0
    0.0000    0.0000    0.0000 C   0  0
    0.0000    0.0000    0.0000 C   0  0
    0.0000    0.0000    0.0000 C   0  0
    0.0000    0.0000    0.0000 C   0  0
    0.0000    0.0000    0.0000 C   0  0
    0.0000    0.0000    0.0000 C   0  0
    0.0000    0.0000    0.0000 O   0  0
    0.0000    0.0000    0.0000 O   0  0
    0.0000    0.0000    0.0000 C   0  0
    0.0000    0.0000    0.0000 C   0  0
    0.0000    0.0000    0.0000 C   0  0
  1  2  1  0
  2  3  1  0
  2  4  1  0
  4  5  2  3
  5  6  1  0
  6  7  2  3
  7  8  1  0
  8  9  1  0
  9 10  1  0
 10 11  1  0
 10 12  1  0
 12 13  1  0
 13 14  1  0
 14 15  1  0
 15  9  1  0
 15 16  1  0
 15 17  1  0
 17 18  1  0
 17 19  2  0
 10 20  1  0
 20  6  1  0
 20 21  1  0
 21 22  1  0
 22  4  1  0
M  END
> <Name>
Abietic acid

> <SMILES>
CC(C)C3=CC2=CCC1C(C)(CCCC1(C)C(O)=O)C2CC3

> <Reference>
Contact Dermatitis (1989) 20:41

> <Id>
514-10-3

> <Activity>
POS

> <Predicted Value>
1      POS

> <Used>
1

> <Status>
Sensitizer

> <isSensitizer>
1

$$$$
Asiatic Acid
  SciTegic06161615552D

 35 39  0  0  0  0            999 V2000
    0.0000    0.0000    0.0000 C   0  0
    0.0000    0.0000    0.0000 C   0  0
    0.0000    0.0000    0.0000 C   0  0
    0.0000    0.0000    0.0000 C   0  0
    0.0000    0.0000    0.0000 C   0  0
    0.0000    0.0000    0.0000 C   0  0
    0.0000    0.0000    0.0000 C   0  0
    0.0000    0.0000    0.0000 C   0  0
    0.0000    0.0000    0.0000 C   0  0
    0.0000    0.0000    0.0000 C   0  0
    0.0000    0.0000    0.0000 C   0  0
    0.0000    0.0000    0.0000 C   0  0
    0.0000    0.0000    0.0000 C   0  0
    0.0000    0.0000    0.0000 C   0  0
    0.0000    0.0000    0.0000 C   0  0
    0.0000    0.0000    0.0000 C   0  0
    0.0000    0.0000    0.0000 C   0  0
    0.0000    0.0000    0.0000 O   0  0
    0.0000    0.0000    0.0000 C   0  0
    0.0000    0.0000    0.0000 O   0  0
    0.0000    0.0000    0.0000 C   0  0
    0.0000    0.0000    0.0000 C   0  0
    0.0000    0.0000    0.0000 C   0  0
    0.0000    0.0000    0.0000 O   0  0
    0.0000    0.0000    0.0000 C   0  0
    0.0000    0.0000    0.0000 C   0  0
    0.0000    0.0000    0.0000 C   0  0
    0.0000    0.0000    0.0000 C   0  0
    0.0000    0.0000    0.0000 C   0  0
    0.0000    0.0000    0.0000 C   0  0
    0.0000    0.0000    0.0000 C   0  0
    0.0000    0.0000    0.0000 C   0  0
    0.0000    0.0000    0.0000 C   0  0
    0.0000    0.0000    0.0000 O   0  0
    0.0000    0.0000    0.0000 O   0  0
  1  2  1  0
  2  3  1  0
  3  4  1  0
  4  5  1  0
  5  6  1  0
  6  7  1  0
  7  8  1  0
  8  9  1  0
  8 10  1  0
 10 11  2  3
 11 12  1  0
 12 13  1  0
 13 14  1  0
 14 15  1  0
 14 16  1  0
 16 17  1  0
 17 18  1  0
 17 19  1  0
 19 20  1  0
 19 21  1  0
 21 22  1  0
 21 23  1  0
 23 24  1  0
 21 25  1  0
 25 14  1  0
 25 26  1  0
 26 27  1  0
 27 28  1  0
 28  8  1  0
 28 13  1  0
 28 29  1  0
 10 30  1  0
 30  5  1  0
 30 31  1  0
 31  2  1  0
 31 32  1  0
  5 33  1  0
 33 34  1  0
 33 35  2  0
M  END
> <Name>
Asiatic Acid

> <SMILES>
CC5CCC4(CCC2(C)C(=CCC3C1(C)CC(O)C(O)C(C)(CO)C1CCC23C)C4C5C)C(O)=O

> <Reference>
Contact Dermatitis (1993) 29:175

> <Id>
464-92-6

> <Activity>
POS

> <Predicted Value>
1      POS

> <Used>
1

> <Status>
Sensitizer

> <isSensitizer>
1

$$$$
Palustric acid
  SciTegic06161615552D

 22 24  0  0  0  0            999 V2000
    0.0000    0.0000    0.0000 C   0  0
    0.0000    0.0000    0.0000 C   0  0
    0.0000    0.0000    0.0000 C   0  0
    0.0000    0.0000    0.0000 C   0  0
    0.0000    0.0000    0.0000 C   0  0
    0.0000    0.0000    0.0000 C   0  0
    0.0000    0.0000    0.0000 C   0  0
    0.0000    0.0000    0.0000 C   0  0
    0.0000    0.0000    0.0000 C   0  0
    0.0000    0.0000    0.0000 C   0  0
    0.0000    0.0000    0.0000 C   0  0
    0.0000    0.0000    0.0000 C   0  0
    0.0000    0.0000    0.0000 C   0  0
    0.0000    0.0000    0.0000 C   0  0
    0.0000    0.0000    0.0000 C   0  0
    0.0000    0.0000    0.0000 C   0  0
    0.0000    0.0000    0.0000 C   0  0
    0.0000    0.0000    0.0000 C   0  0
    0.0000    0.0000    0.0000 C   0  0
    0.0000    0.0000    0.0000 C   0  0
    0.0000    0.0000    0.0000 O   0  0
    0.0000    0.0000    0.0000 O   0  0
  1  2  1  0
  2  3  1  0
  2  4  1  0
  4  5  2  3
  5  6  1  0
  6  7  2  3
  7  8  1  0
  8  9  1  0
  9  4  1  0
  7 10  1  0
 10 11  1  0
 10 12  1  0
 12 13  1  0
 13 14  1  0
 14 15  1  0
 15 16  1  0
 15 17  1  0
 17 10  1  0
 17 18  1  0
 18 19  1  0
 19  6  1  0
 15 20  1  0
 20 21  1  0
 20 22  2  0
M  END
> <Name>
Palustric acid

> <SMILES>
CC(C)C1=CC3=C(CC1)C2(C)CCCC(C)(C2CC3)C(O)=O

> <Reference>
Contact Dermatitis (1990) 23:90

> <Id>
1945-53-5

> <Activity>
POS

> <Predicted Value>
1      POS

> <Used>
1

> <Status>
Sensitizer

> <isSensitizer>
1

$$$$
Madecassic Acid
  SciTegic06161615552D

 36 40  0  0  0  0            999 V2000
    0.0000    0.0000    0.0000 C   0  0
    0.0000    0.0000    0.0000 C   0  0
    0.0000    0.0000    0.0000 C   0  0
    0.0000    0.0000    0.0000 C   0  0
    0.0000    0.0000    0.0000 C   0  0
    0.0000    0.0000    0.0000 C   0  0
    0.0000    0.0000    0.0000 C   0  0
    0.0000    0.0000    0.0000 C   0  0
    0.0000    0.0000    0.0000 C   0  0
    0.0000    0.0000    0.0000 C   0  0
    0.0000    0.0000    0.0000 C   0  0
    0.0000    0.0000    0.0000 C   0  0
    0.0000    0.0000    0.0000 C   0  0
    0.0000    0.0000    0.0000 C   0  0
    0.0000    0.0000    0.0000 C   0  0
    0.0000    0.0000    0.0000 C   0  0
    0.0000    0.0000    0.0000 C   0  0
    0.0000    0.0000    0.0000 O   0  0
    0.0000    0.0000    0.0000 C   0  0
    0.0000    0.0000    0.0000 O   0  0
    0.0000    0.0000    0.0000 C   0  0
    0.0000    0.0000    0.0000 C   0  0
    0.0000    0.0000    0.0000 C   0  0
    0.0000    0.0000    0.0000 O   0  0
    0.0000    0.0000    0.0000 C   0  0
    0.0000    0.0000    0.0000 C   0  0
    0.0000    0.0000    0.0000 O   0  0
    0.0000    0.0000    0.0000 C   0  0
    0.0000    0.0000    0.0000 C   0  0
    0.0000    0.0000    0.0000 C   0  0
    0.0000    0.0000    0.0000 C   0  0
    0.0000    0.0000    0.0000 C   0  0
    0.0000    0.0000    0.0000 C   0  0
    0.0000    0.0000    0.0000 C   0  0
    0.0000    0.0000    0.0000 O   0  0
    0.0000    0.0000    0.0000 O   0  0
  1  2  1  0
  2  3  1  0
  3  4  1  0
  4  5  1  0
  5  6  1  0
  6  7  1  0
  7  8  1  0
  8  9  1  0
  8 10  1  0
 10 11  2  3
 11 12  1  0
 12 13  1  0
 13 14  1  0
 14 15  1  0
 14 16  1  0
 16 17  1  0
 17 18  1  0
 17 19  1  0
 19 20  1  0
 19 21  1  0
 21 22  1  0
 21 23  1  0
 23 24  1  0
 21 25  1  0
 25 14  1  0
 25 26  1  0
 26 27  1  0
 26 28  1  0
 28 29  1  0
 29  8  1  0
 29 13  1  0
 29 30  1  0
 10 31  1  0
 31  5  1  0
 31 32  1  0
 32  2  1  0
 32 33  1  0
  5 34  1  0
 34 35  1  0
 34 36  2  0
M  END
> <Name>
Madecassic Acid

> <SMILES>
CC5CCC4(CCC2(C)C(=CCC3C1(C)CC(O)C(O)C(C)(CO)C1C(O)CC23C)C4C5C)C(O)=O

> <Reference>
Contact Dermatitis (1993) 29:175

> <Id>
18449-41-7

> <Activity>
POS

> <Predicted Value>
1      POS

> <Used>
1

> <Status>
Sensitizer

> <isSensitizer>
1

$$$$
Triethanolamine
  SciTegic06161615552D

 10  9  0  0  0  0            999 V2000
    0.0000    0.0000    0.0000 O   0  0
    0.0000    0.0000    0.0000 C   0  0
    0.0000    0.0000    0.0000 C   0  0
    0.0000    0.0000    0.0000 N   0  0
    0.0000    0.0000    0.0000 C   0  0
    0.0000    0.0000    0.0000 C   0  0
    0.0000    0.0000    0.0000 O   0  0
    0.0000    0.0000    0.0000 C   0  0
    0.0000    0.0000    0.0000 C   0  0
    0.0000    0.0000    0.0000 O   0  0
  1  2  1  0
  2  3  1  0
  3  4  1  0
  4  5  1  0
  5  6  1  0
  6  7  1  0
  4  8  1  0
  8  9  1  0
  9 10  1  0
M  END
> <Name>
Triethanolamine

> <SMILES>
OCCN(CCO)CCO

> <Reference>
SAR and QSAR in Env Res (1994) 2:159

> <Id>
102-71-6

> <Activity>
POS

> <Predicted Value>
0.996  POS

> <Used>
1

> <Status>
Sensitizer

> <isSensitizer>
1

$$$$
10-Hydroxy-7-isopropyl-tetradecahydro-phenanthrene-1-carboxylic acid
  SciTegic06161615552D

 21 23  0  0  0  0            999 V2000
    0.0000    0.0000    0.0000 C   0  0
    0.0000    0.0000    0.0000 C   0  0
    0.0000    0.0000    0.0000 C   0  0
    0.0000    0.0000    0.0000 C   0  0
    0.0000    0.0000    0.0000 C   0  0
    0.0000    0.0000    0.0000 C   0  0
    0.0000    0.0000    0.0000 C   0  0
    0.0000    0.0000    0.0000 C   0  0
    0.0000    0.0000    0.0000 C   0  0
    0.0000    0.0000    0.0000 C   0  0
    0.0000    0.0000    0.0000 O   0  0
    0.0000    0.0000    0.0000 C   0  0
    0.0000    0.0000    0.0000 C   0  0
    0.0000    0.0000    0.0000 C   0  0
    0.0000    0.0000    0.0000 C   0  0
    0.0000    0.0000    0.0000 C   0  0
    0.0000    0.0000    0.0000 C   0  0
    0.0000    0.0000    0.0000 C   0  0
    0.0000    0.0000    0.0000 O   0  0
    0.0000    0.0000    0.0000 O   0  0
    0.0000    0.0000    0.0000 C   0  0
  1  2  1  0
  2  3  1  0
  2  4  1  0
  4  5  1  0
  5  6  1  0
  6  7  1  0
  7  8  1  0
  8  9  1  0
  9 10  1  0
 10 11  1  0
 10 12  1  0
 12 13  1  0
 13  7  1  0
 13 14  1  0
 14 15  1  0
 15 16  1  0
 16 17  1  0
 17 12  1  0
 17 18  1  0
 18 19  1  0
 18 20  2  0
  8 21  1  0
 21  4  1  0
M  END
> <Name>
10-Hydroxy-7-isopropyl-tetradecahydro-phenanthrene-1-carboxylic acid

> <SMILES>
CC(C)C3CCC1C(CC(O)C2C1CCCC2C(O)=O)C3

> <Id>
99999-02-0

> <Activity>
POS

> <Predicted Value>
0.991  POS

> <Used>
1

> <Status>
Sensitizer

> <isSensitizer>
1

$$$$
Panethol
  SciTegic06161615552D

 14 13  0  0  0  0            999 V2000
    0.0000    0.0000    0.0000 C   0  0
    0.0000    0.0000    0.0000 C   0  0
    0.0000    0.0000    0.0000 C   0  0
    0.0000    0.0000    0.0000 C   0  0
    0.0000    0.0000    0.0000 O   0  0
    0.0000    0.0000    0.0000 C   0  0
    0.0000    0.0000    0.0000 O   0  0
    0.0000    0.0000    0.0000 C   0  0
    0.0000    0.0000    0.0000 O   0  0
    0.0000    0.0000    0.0000 N   0  0
    0.0000    0.0000    0.0000 C   0  0
    0.0000    0.0000    0.0000 C   0  0
    0.0000    0.0000    0.0000 C   0  0
    0.0000    0.0000    0.0000 O   0  0
  1  2  1  0
  2  3  1  0
  2  4  1  0
  4  5  1  0
  2  6  1  0
  6  7  1  0
  6  8  1  0
  8  9  2  0
  8 10  1  0
 10 11  1  0
 11 12  1  0
 12 13  1  0
 13 14  1  0
M  END
> <Name>
Panethol

> <SMILES>
CC(C)(CO)C(O)C(=O)NCCCO

> <Reference>
SAR and QSAR in Env Res (1994) 2:159

> <Id>
CRO-253

> <Activity>
NEG

> <Predicted Value>
0      NEG

> <Used>
1

> <Status>
Non-Sensitizer

> <isSensitizer>
0

$$$$
Dimethylol-5;5-dimethylhydantoin
  SciTegic06161615552D

 13 13  0  0  0  0            999 V2000
    0.0000    0.0000    0.0000 C   0  0
    0.0000    0.0000    0.0000 C   0  0
    0.0000    0.0000    0.0000 C   0  0
    0.0000    0.0000    0.0000 N   0  0
    0.0000    0.0000    0.0000 C   0  0
    0.0000    0.0000    0.0000 O   0  0
    0.0000    0.0000    0.0000 C   0  0
    0.0000    0.0000    0.0000 O   0  0
    0.0000    0.0000    0.0000 N   0  0
    0.0000    0.0000    0.0000 C   0  0
    0.0000    0.0000    0.0000 O   0  0
    0.0000    0.0000    0.0000 C   0  0
    0.0000    0.0000    0.0000 O   0  0
  1  2  1  0
  2  3  1  0
  2  4  1  0
  4  5  1  0
  5  6  1  0
  4  7  1  0
  7  8  2  0
  7  9  1  0
  9 10  1  0
 10 11  1  0
  9 12  1  0
 12  2  1  0
 12 13  2  0
M  END
> <Name>
Dimethylol-5;5-dimethylhydantoin

> <SMILES>
CC1(C)N(CO)C(=O)N(CO)C1=O

> <Reference>
SAR and QSAR in Env Res (1994) 2:159

> <Id>
6440-58-0

> <Activity>
POS

> <Predicted Value>
1      POS

> <Used>
1

> <Status>
Sensitizer

> <isSensitizer>
1

$$$$
Diacetyldiperoxyadipic acid
  SciTegic06161615552D

 18 17  0  0  0  0            999 V2000
    0.0000    0.0000    0.0000 C   0  0
    0.0000    0.0000    0.0000 C   0  0
    0.0000    0.0000    0.0000 O   0  0
    0.0000    0.0000    0.0000 O   0  0
    0.0000    0.0000    0.0000 O   0  0
    0.0000    0.0000    0.0000 C   0  0
    0.0000    0.0000    0.0000 O   0  0
    0.0000    0.0000    0.0000 C   0  0
    0.0000    0.0000    0.0000 C   0  0
    0.0000    0.0000    0.0000 C   0  0
    0.0000    0.0000    0.0000 C   0  0
    0.0000    0.0000    0.0000 C   0  0
    0.0000    0.0000    0.0000 O   0  0
    0.0000    0.0000    0.0000 O   0  0
    0.0000    0.0000    0.0000 O   0  0
    0.0000    0.0000    0.0000 C   0  0
    0.0000    0.0000    0.0000 C   0  0
    0.0000    0.0000    0.0000 O   0  0
  1  2  1  0
  2  3  2  0
  2  4  1  0
  4  5  1  0
  5  6  1  0
  6  7  2  0
  6  8  1  0
  8  9  1  0
  9 10  1  0
 10 11  1  0
 11 12  1  0
 12 13  2  0
 12 14  1  0
 14 15  1  0
 15 16  1  0
 16 17  1  0
 16 18  2  0
M  END
> <Name>
Diacetyldiperoxyadipic acid

> <SMILES>
CC(=O)OOC(=O)CCCCC(=O)OOC(C)=O

> <Reference>
SAR and QSAR in Env Res (1994) 2:159

> <Id>
CRO-167

> <Activity>
POS

> <Predicted Value>
0.999  POS

> <Used>
1

> <Status>
Sensitizer

> <isSensitizer>
1

$$$$
5-Bromo-5-nitro-1;3-dioxam
  SciTegic06161615552D

 10 10  0  0  0  0            999 V2000
    0.0000    0.0000    0.0000 Br  0  0
    0.0000    0.0000    0.0000 C   0  0
    0.0000    0.0000    0.0000 C   0  0
    0.0000    0.0000    0.0000 O   0  0
    0.0000    0.0000    0.0000 C   0  0
    0.0000    0.0000    0.0000 O   0  0
    0.0000    0.0000    0.0000 C   0  0
    0.0000    0.0000    0.0000 N   0  0
    0.0000    0.0000    0.0000 O   0  0
    0.0000    0.0000    0.0000 O   0  0
  1  2  1  0
  2  3  1  0
  3  4  1  0
  4  5  1  0
  5  6  1  0
  6  7  1  0
  7  2  1  0
  2  8  1  0
  8  9  2  0
  8 10  2  0
M  END
> <Name>
5-Bromo-5-nitro-1;3-dioxam

> <SMILES>
BrC1(COCOC1)N(=O)=O

> <Reference>
SAR and QSAR in Env Res (1994) 2:159

> <Id>
30007-47-7

> <Activity>
POS

> <Predicted Value>
1      POS

> <Used>
1

> <Status>
Sensitizer

> <isSensitizer>
1

$$$$
Tetraacetylethylene diamine
  SciTegic06161615552D

 16 15  0  0  0  0            999 V2000
    0.0000    0.0000    0.0000 C   0  0
    0.0000    0.0000    0.0000 C   0  0
    0.0000    0.0000    0.0000 O   0  0
    0.0000    0.0000    0.0000 N   0  0
    0.0000    0.0000    0.0000 C   0  0
    0.0000    0.0000    0.0000 C   0  0
    0.0000    0.0000    0.0000 N   0  0
    0.0000    0.0000    0.0000 C   0  0
    0.0000    0.0000    0.0000 C   0  0
    0.0000    0.0000    0.0000 O   0  0
    0.0000    0.0000    0.0000 C   0  0
    0.0000    0.0000    0.0000 C   0  0
    0.0000    0.0000    0.0000 O   0  0
    0.0000    0.0000    0.0000 C   0  0
    0.0000    0.0000    0.0000 C   0  0
    0.0000    0.0000    0.0000 O   0  0
  1  2  1  0
  2  3  2  0
  2  4  1  0
  4  5  1  0
  5  6  1  0
  6  7  1  0
  7  8  1  0
  8  9  1  0
  8 10  2  0
  7 11  1  0
 11 12  1  0
 11 13  2  0
  4 14  1  0
 14 15  1  0
 14 16  2  0
M  END
> <Name>
Tetraacetylethylene diamine

> <SMILES>
CC(=O)N(CCN(C(C)=O)C(C)=O)C(C)=O

> <Reference>
SAR and QSAR in Env Res (1994) 2:159

> <Id>
CRO-201

> <Activity>
NEG

> <Predicted Value>
0      NEG

> <Used>
1

> <Status>
Non-Sensitizer

> <isSensitizer>
0

$$$$
Tixocortol pivalate
  SciTegic06161615552D

 32 35  0  0  0  0            999 V2000
    0.0000    0.0000    0.0000 C   0  0
    0.0000    0.0000    0.0000 C   0  0
    0.0000    0.0000    0.0000 C   0  0
    0.0000    0.0000    0.0000 C   0  0
    0.0000    0.0000    0.0000 C   0  0
    0.0000    0.0000    0.0000 O   0  0
    0.0000    0.0000    0.0000 S   0  0
    0.0000    0.0000    0.0000 C   0  0
    0.0000    0.0000    0.0000 C   0  0
    0.0000    0.0000    0.0000 O   0  0
    0.0000    0.0000    0.0000 C   0  0
    0.0000    0.0000    0.0000 O   0  0
    0.0000    0.0000    0.0000 C   0  0
    0.0000    0.0000    0.0000 C   0  0
    0.0000    0.0000    0.0000 C   0  0
    0.0000    0.0000    0.0000 C   0  0
    0.0000    0.0000    0.0000 C   0  0
    0.0000    0.0000    0.0000 C   0  0
    0.0000    0.0000    0.0000 C   0  0
    0.0000    0.0000    0.0000 C   0  0
    0.0000    0.0000    0.0000 C   0  0
    0.0000    0.0000    0.0000 O   0  0
    0.0000    0.0000    0.0000 C   0  0
    0.0000    0.0000    0.0000 C   0  0
    0.0000    0.0000    0.0000 C   0  0
    0.0000    0.0000    0.0000 C   0  0
    0.0000    0.0000    0.0000 C   0  0
    0.0000    0.0000    0.0000 C   0  0
    0.0000    0.0000    0.0000 O   0  0
    0.0000    0.0000    0.0000 C   0  0
    0.0000    0.0000    0.0000 C   0  0
    0.0000    0.0000    0.0000 C   0  0
  1  2  1  0
  2  3  1  0
  2  4  1  0
  2  5  1  0
  5  6  2  0
  5  7  1  0
  7  8  1  0
  8  9  1  0
  9 10  2  0
  9 11  1  0
 11 12  1  0
 11 13  1  0
 13 14  1  0
 14 15  1  0
 15 16  1  0
 16 17  1  0
 17 18  1  0
 18 19  1  0
 19 20  2  3
 20 21  1  0
 21 22  2  0
 21 23  1  0
 23 24  1  0
 24 25  1  0
 25 19  1  0
 25 26  1  0
 25 27  1  0
 27 16  1  0
 27 28  1  0
 28 29  1  0
 28 30  1  0
 30 31  1  0
 31 11  1  0
 31 15  1  0
 31 32  1  0
M  END
> <Name>
Tixocortol pivalate

> <SMILES>
CC(C)(C)C(=O)SCC(=O)C3(O)CCC4C2CCC1=CC(=O)CCC1(C)C2C(O)CC34C

> <Reference>
Contact Dermatitis (1996) 34:161

> <Id>
55560-96-8

> <Activity>
POS

> <Predicted Value>
1      POS

> <Used>
1

> <Status>
Sensitizer

> <isSensitizer>
1

$$$$
Sodium dihyrodoacetate
  SciTegic06161615552D

 12 12  0  0  0  0            999 V2000
    0.0000    0.0000    0.0000 C   0  0
    0.0000    0.0000    0.0000 C   0  0
    0.0000    0.0000    0.0000 C   0  0
    0.0000    0.0000    0.0000 C   0  0
    0.0000    0.0000    0.0000 O   0  0
    0.0000    0.0000    0.0000 C   0  0
    0.0000    0.0000    0.0000 C   0  0
    0.0000    0.0000    0.0000 C   0  0
    0.0000    0.0000    0.0000 O   0  0
    0.0000    0.0000    0.0000 C   0  0
    0.0000    0.0000    0.0000 O   0  0
    0.0000    0.0000    0.0000 O   0  0
  1  2  1  0
  2  3  2  3
  3  4  1  0
  4  5  2  0
  4  6  1  0
  6  7  1  0
  7  8  1  0
  7  9  2  0
  6 10  1  0
 10 11  2  0
 10 12  1  0
 12  2  1  0
M  END
> <Name>
Sodium dihyrodoacetate

> <SMILES>
CC1=CC(=O)C(C(C)=O)C(=O)O1

> <Reference>
SAR and QSAR in Env Res (1994) 2:159

> <Id>
4418-26-2

> <Activity>
POS

> <Predicted Value>
1      POS

> <Used>
1

> <Status>
Sensitizer

> <isSensitizer>
1

$$$$
1;2-Dibromo-2;4-dicyanobutane
  SciTegic06161615552D

 10  9  0  0  0  0            999 V2000
    0.0000    0.0000    0.0000 Br  0  0
    0.0000    0.0000    0.0000 C   0  0
    0.0000    0.0000    0.0000 C   0  0
    0.0000    0.0000    0.0000 Br  0  0
    0.0000    0.0000    0.0000 C   0  0
    0.0000    0.0000    0.0000 C   0  0
    0.0000    0.0000    0.0000 C   0  0
    0.0000    0.0000    0.0000 N   0  0
    0.0000    0.0000    0.0000 C   0  0
    0.0000    0.0000    0.0000 N   0  0
  1  2  1  0
  2  3  1  0
  3  4  1  0
  3  5  1  0
  5  6  1  0
  6  7  1  0
  7  8  3  0
  3  9  1  0
  9 10  3  0
M  END
> <Name>
1;2-Dibromo-2;4-dicyanobutane

> <SMILES>
BrCC(Br)(CCC#N)C#N

> <Reference>
Contact Dermatitis (1993) 28:149

> <Id>
35691-65-7

> <Activity>
POS

> <Predicted Value>
1      POS

> <Used>
1

> <Status>
Sensitizer

> <isSensitizer>
1

$$$$
Dihydroxyacetone
  SciTegic06161615552D

  6  5  0  0  0  0            999 V2000
    0.0000    0.0000    0.0000 O   0  0
    0.0000    0.0000    0.0000 C   0  0
    0.0000    0.0000    0.0000 C   0  0
    0.0000    0.0000    0.0000 O   0  0
    0.0000    0.0000    0.0000 C   0  0
    0.0000    0.0000    0.0000 O   0  0
  1  2  1  0
  2  3  1  0
  3  4  2  0
  3  5  1  0
  5  6  1  0
M  END
> <Name>
Dihydroxyacetone

> <SMILES>
OCC(=O)CO

> <Reference>
Howard I Maibach (priv comm)

> <Id>
96-24-1

> <Activity>
NEG

> <Predicted Value>
0      NEG

> <Used>
1

> <Status>
Non-Sensitizer

> <isSensitizer>
0

$$$$
N;N-Diacetyltaurine; sodium salt
  SciTegic06161615552D

 13 12  0  0  0  0            999 V2000
    0.0000    0.0000    0.0000 C   0  0
    0.0000    0.0000    0.0000 C   0  0
    0.0000    0.0000    0.0000 O   0  0
    0.0000    0.0000    0.0000 N   0  0
    0.0000    0.0000    0.0000 C   0  0
    0.0000    0.0000    0.0000 C   0  0
    0.0000    0.0000    0.0000 S   0  0
    0.0000    0.0000    0.0000 O   0  5
    0.0000    0.0000    0.0000 O   0  0
    0.0000    0.0000    0.0000 O   0  0
    0.0000    0.0000    0.0000 C   0  0
    0.0000    0.0000    0.0000 C   0  0
    0.0000    0.0000    0.0000 O   0  0
  1  2  1  0
  2  3  2  0
  2  4  1  0
  4  5  1  0
  5  6  1  0
  6  7  1  0
  7  8  1  0
  7  9  2  0
  7 10  2  0
  4 11  1  0
 11 12  1  0
 11 13  2  0
M  CHG  1   8  -1
M  END
> <Name>
N;N-Diacetyltaurine; sodium salt

> <SMILES>
CC(=O)N(CCS([O-])(=O)=O)C(C)=O

> <Reference>
SAR and QSAR in Env Res (1994) 2:159

> <Id>
CRO-206

> <Activity>
NEG

> <Predicted Value>
0      NEG

> <Used>
1

> <Status>
Non-Sensitizer

> <isSensitizer>
0

$$$$
Asiaticoside
  SciTegic06161615552D

 67 74  0  0  0  0            999 V2000
    0.0000    0.0000    0.0000 C   0  0
    0.0000    0.0000    0.0000 C   0  0
    0.0000    0.0000    0.0000 C   0  0
    0.0000    0.0000    0.0000 C   0  0
    0.0000    0.0000    0.0000 C   0  0
    0.0000    0.0000    0.0000 C   0  0
    0.0000    0.0000    0.0000 C   0  0
    0.0000    0.0000    0.0000 C   0  0
    0.0000    0.0000    0.0000 C   0  0
    0.0000    0.0000    0.0000 C   0  0
    0.0000    0.0000    0.0000 C   0  0
    0.0000    0.0000    0.0000 C   0  0
    0.0000    0.0000    0.0000 C   0  0
    0.0000    0.0000    0.0000 C   0  0
    0.0000    0.0000    0.0000 C   0  0
    0.0000    0.0000    0.0000 C   0  0
    0.0000    0.0000    0.0000 C   0  0
    0.0000    0.0000    0.0000 O   0  0
    0.0000    0.0000    0.0000 C   0  0
    0.0000    0.0000    0.0000 O   0  0
    0.0000    0.0000    0.0000 C   0  0
    0.0000    0.0000    0.0000 C   0  0
    0.0000    0.0000    0.0000 C   0  0
    0.0000    0.0000    0.0000 O   0  0
    0.0000    0.0000    0.0000 C   0  0
    0.0000    0.0000    0.0000 C   0  0
    0.0000    0.0000    0.0000 C   0  0
    0.0000    0.0000    0.0000 C   0  0
    0.0000    0.0000    0.0000 C   0  0
    0.0000    0.0000    0.0000 C   0  0
    0.0000    0.0000    0.0000 C   0  0
    0.0000    0.0000    0.0000 C   0  0
    0.0000    0.0000    0.0000 C   0  0
    0.0000    0.0000    0.0000 O   0  0
    0.0000    0.0000    0.0000 O   0  0
    0.0000    0.0000    0.0000 C   0  0
    0.0000    0.0000    0.0000 O   0  0
    0.0000    0.0000    0.0000 C   0  0
    0.0000    0.0000    0.0000 C   0  0
    0.0000    0.0000    0.0000 O   0  0
    0.0000    0.0000    0.0000 C   0  0
    0.0000    0.0000    0.0000 O   0  0
    0.0000    0.0000    0.0000 C   0  0
    0.0000    0.0000    0.0000 C   0  0
    0.0000    0.0000    0.0000 O   0  0
    0.0000    0.0000    0.0000 C   0  0
    0.0000    0.0000    0.0000 O   0  0
    0.0000    0.0000    0.0000 C   0  0
    0.0000    0.0000    0.0000 O   0  0
    0.0000    0.0000    0.0000 C   0  0
    0.0000    0.0000    0.0000 C   0  0
    0.0000    0.0000    0.0000 C   0  0
    0.0000    0.0000    0.0000 O   0  0
    0.0000    0.0000    0.0000 C   0  0
    0.0000    0.0000    0.0000 O   0  0
    0.0000    0.0000    0.0000 C   0  0
    0.0000    0.0000    0.0000 O   0  0
    0.0000    0.0000    0.0000 C   0  0
    0.0000    0.0000    0.0000 O   0  0
    0.0000    0.0000    0.0000 C   0  0
    0.0000    0.0000    0.0000 O   0  0
    0.0000    0.0000    0.0000 C   0  0
    0.0000    0.0000    0.0000 O   0  0
    0.0000    0.0000    0.0000 C   0  0
    0.0000    0.0000    0.0000 O   0  0
    0.0000    0.0000    0.0000 C   0  0
    0.0000    0.0000    0.0000 O   0  0
  1  2  1  0
  2  3  1  0
  3  4  1  0
  4  5  1  0
  5  6  1  0
  6  7  1  0
  7  8  1  0
  8  9  1  0
  8 10  1  0
 10 11  2  3
 11 12  1  0
 12 13  1  0
 13 14  1  0
 14 15  1  0
 14 16  1  0
 16 17  1  0
 17 18  1  0
 17 19  1  0
 19 20  1  0
 19 21  1  0
 21 22  1  0
 21 23  1  0
 23 24  1  0
 21 25  1  0
 25 14  1  0
 25 26  1  0
 26 27  1  0
 27 28  1  0
 28  8  1  0
 28 13  1  0
 28 29  1  0
 10 30  1  0
 30  5  1  0
 30 31  1  0
 31  2  1  0
 31 32  1  0
  5 33  1  0
 33 34  2  0
 33 35  1  0
 35 36  1  0
 36 37  1  0
 37 38  1  0
 38 39  1  0
 39 40  1  0
 40 41  1  0
 41 42  1  0
 42 43  1  0
 43 44  1  0
 44 45  1  0
 43 46  1  0
 46 47  1  0
 47 48  1  0
 48 49  1  0
 49 50  1  0
 50 51  1  0
 50 52  1  0
 52 53  1  0
 52 54  1  0
 54 55  1  0
 54 56  1  0
 56 48  1  0
 56 57  1  0
 46 58  1  0
 58 59  1  0
 58 60  1  0
 60 41  1  0
 60 61  1  0
 38 62  1  0
 62 63  1  0
 62 64  1  0
 64 65  1  0
 64 66  1  0
 66 36  1  0
 66 67  1  0
M  END
> <Name>
Asiaticoside

> <SMILES>
CC5CCC4(CCC2(C)C(=CCC3C1(C)CC(O)C(O)C(C)(CO)C1CCC23C)C4C5C)C(=O)OC8OC(COC7OC(CO)C(OC6OC(C)C(O)C(O)C6O)C(O)C7O)C(O)C(O)C8O

> <Reference>
Contact Dermatitis (1993) 29:175

> <Id>
16830-15-2

> <Activity>
POS

> <Predicted Value>
1      POS

> <Used>
1

> <Status>
Sensitizer

> <isSensitizer>
1

$$$$
Lactic Acid
  SciTegic06161615552D

  6  5  0  0  0  0            999 V2000
    0.0000    0.0000    0.0000 C   0  0
    0.0000    0.0000    0.0000 C   0  0
    0.0000    0.0000    0.0000 O   0  0
    0.0000    0.0000    0.0000 C   0  0
    0.0000    0.0000    0.0000 O   0  0
    0.0000    0.0000    0.0000 O   0  0
  1  2  1  0
  2  3  1  0
  2  4  1  0
  4  5  1  0
  4  6  2  0
M  END
> <Name>
Lactic Acid

> <SMILES>
CC(O)C(O)=O

> <Reference>
SAR and QSAR in Env Res (1994) 2:159

> <Id>
598-82-3

> <Activity>
NEG

> <Predicted Value>
0      NEG

> <Used>
1

> <Status>
Non-Sensitizer

> <isSensitizer>
0

$$$$
Glycolic acid
  SciTegic06161615552D

  5  4  0  0  0  0            999 V2000
    0.0000    0.0000    0.0000 O   0  0
    0.0000    0.0000    0.0000 C   0  0
    0.0000    0.0000    0.0000 C   0  0
    0.0000    0.0000    0.0000 O   0  0
    0.0000    0.0000    0.0000 O   0  0
  1  2  1  0
  2  3  1  0
  3  4  1  0
  3  5  2  0
M  END
> <Name>
Glycolic acid

> <SMILES>
OCC(O)=O

> <Reference>
Howard I Maibach (priv comm)

> <Id>
79-14-1

> <Activity>
NEG

> <Predicted Value>
0      NEG

> <Used>
1

> <Status>
Non-Sensitizer

> <isSensitizer>
0

$$$$
Imidazolidinylurea
  SciTegic06161615552D

 27 28  0  0  0  0            999 V2000
    0.0000    0.0000    0.0000 O   0  0
    0.0000    0.0000    0.0000 C   0  0
    0.0000    0.0000    0.0000 N   0  0
    0.0000    0.0000    0.0000 C   0  0
    0.0000    0.0000    0.0000 O   0  0
    0.0000    0.0000    0.0000 N   0  0
    0.0000    0.0000    0.0000 C   0  0
    0.0000    0.0000    0.0000 N   0  0
    0.0000    0.0000    0.0000 C   0  0
    0.0000    0.0000    0.0000 O   0  0
    0.0000    0.0000    0.0000 N   0  0
    0.0000    0.0000    0.0000 C   0  0
    0.0000    0.0000    0.0000 N   0  0
    0.0000    0.0000    0.0000 C   0  0
    0.0000    0.0000    0.0000 O   0  0
    0.0000    0.0000    0.0000 N   0  0
    0.0000    0.0000    0.0000 C   0  0
    0.0000    0.0000    0.0000 N   0  0
    0.0000    0.0000    0.0000 C   0  0
    0.0000    0.0000    0.0000 O   0  0
    0.0000    0.0000    0.0000 N   0  0
    0.0000    0.0000    0.0000 C   0  0
    0.0000    0.0000    0.0000 O   0  0
    0.0000    0.0000    0.0000 C   0  0
    0.0000    0.0000    0.0000 O   0  0
    0.0000    0.0000    0.0000 C   0  0
    0.0000    0.0000    0.0000 O   0  0
  1  2  1  0
  2  3  1  0
  3  4  1  0
  4  5  2  0
  4  6  1  0
  6  7  1  0
  7  8  1  0
  8  9  1  0
  9 10  2  0
  9 11  1  0
 11 12  1  0
 12 13  1  0
 13 14  1  0
 14 15  2  0
 14 16  1  0
 16 17  1  0
 17 18  1  0
 18 19  1  0
 19 20  2  0
 19 21  1  0
 21 22  1  0
 22 23  1  0
 21 24  1  0
 24 17  1  0
 24 25  2  0
  7 26  1  0
 26  3  1  0
 26 27  2  0
M  END
> <Name>
Imidazolidinylurea

> <SMILES>
OCN2C(=O)NC(NC(=O)NCNC(=O)NC1NC(=O)N(CO)C1=O)C2=O

> <Reference>
SAR and QSAR in Env Res (1994) 2:159

> <Id>
39236-46-9

> <Activity>
POS

> <Predicted Value>
1      POS

> <Used>
1

> <Status>
Sensitizer

> <isSensitizer>
1

$$$$
Diazolidinyl urea
  SciTegic06161615552D

 19 19  0  0  0  0            999 V2000
    0.0000    0.0000    0.0000 O   0  0
    0.0000    0.0000    0.0000 C   0  0
    0.0000    0.0000    0.0000 N   0  0
    0.0000    0.0000    0.0000 C   0  0
    0.0000    0.0000    0.0000 O   0  0
    0.0000    0.0000    0.0000 N   0  0
    0.0000    0.0000    0.0000 C   0  0
    0.0000    0.0000    0.0000 O   0  0
    0.0000    0.0000    0.0000 C   0  0
    0.0000    0.0000    0.0000 N   0  0
    0.0000    0.0000    0.0000 C   0  0
    0.0000    0.0000    0.0000 O   0  0
    0.0000    0.0000    0.0000 C   0  0
    0.0000    0.0000    0.0000 O   0  0
    0.0000    0.0000    0.0000 N   0  0
    0.0000    0.0000    0.0000 C   0  0
    0.0000    0.0000    0.0000 O   0  0
    0.0000    0.0000    0.0000 C   0  0
    0.0000    0.0000    0.0000 O   0  0
  1  2  1  0
  2  3  1  0
  3  4  1  0
  4  5  2  0
  4  6  1  0
  6  7  1  0
  7  8  1  0
  6  9  1  0
  9 10  1  0
 10 11  1  0
 11 12  1  0
 10 13  1  0
 13 14  2  0
 13 15  1  0
 15 16  1  0
 16 17  1  0
 15 18  1  0
 18  9  1  0
 18 19  2  0
M  END
> <Name>
Diazolidinyl urea

> <SMILES>
OCNC(=O)N(CO)C1N(CO)C(=O)N(CO)C1=O

> <Reference>
J Am Coll Toxicol (1990) 9(2):229

> <Id>
78491-02-8

> <Activity>
POS

> <Predicted Value>
1      POS

> <Used>
1

> <Status>
Sensitizer

> <isSensitizer>
1

$$$$
Formyl iminodiacetic acid
  SciTegic06161615552D

 11 10  0  0  0  0            999 V2000
    0.0000    0.0000    0.0000 O   0  0
    0.0000    0.0000    0.0000 C   0  0
    0.0000    0.0000    0.0000 O   0  0
    0.0000    0.0000    0.0000 C   0  0
    0.0000    0.0000    0.0000 N   0  0
    0.0000    0.0000    0.0000 C   0  0
    0.0000    0.0000    0.0000 C   0  0
    0.0000    0.0000    0.0000 O   0  0
    0.0000    0.0000    0.0000 O   0  0
    0.0000    0.0000    0.0000 C   0  0
    0.0000    0.0000    0.0000 O   0  0
  1  2  1  0
  2  3  2  0
  2  4  1  0
  4  5  1  0
  5  6  1  0
  6  7  1  0
  7  8  1  0
  7  9  2  0
  5 10  1  0
 10 11  2  0
M  END
> <Name>
Formyl iminodiacetic acid

> <SMILES>
OC(=O)CN(CC(O)=O)C=O

> <Reference>
SAR and QSAR in Env Res (1994) 2:159

> <Id>
CRO-284

> <Activity>
NEG

> <Predicted Value>
0      NEG

> <Used>
1

> <Status>
Non-Sensitizer

> <isSensitizer>
0

$$$$
Allantoin
  SciTegic06161615552D

 11 11  0  0  0  0            999 V2000
    0.0000    0.0000    0.0000 N   0  0
    0.0000    0.0000    0.0000 C   0  0
    0.0000    0.0000    0.0000 O   0  0
    0.0000    0.0000    0.0000 N   0  0
    0.0000    0.0000    0.0000 C   0  0
    0.0000    0.0000    0.0000 N   0  0
    0.0000    0.0000    0.0000 C   0  0
    0.0000    0.0000    0.0000 O   0  0
    0.0000    0.0000    0.0000 N   0  0
    0.0000    0.0000    0.0000 C   0  0
    0.0000    0.0000    0.0000 O   0  0
  1  2  1  0
  2  3  2  0
  2  4  1  0
  4  5  1  0
  5  6  1  0
  6  7  1  0
  7  8  2  0
  7  9  1  0
  9 10  1  0
 10  5  1  0
 10 11  2  0
M  END
> <Name>
Allantoin

> <SMILES>
NC(=O)NC1NC(=O)NC1=O

> <Reference>
SAR and QSAR in Env Res (1994) 2:159

> <Id>
97-59-6

> <Activity>
NEG

> <Predicted Value>
0.028  NEG

> <Used>
1

> <Status>
Non-Sensitizer

> <isSensitizer>
0

$$$$
Hexabromocyclododecane
  SciTegic06161615552D

 18 18  0  0  0  0            999 V2000
    0.0000    0.0000    0.0000 Br  0  0
    0.0000    0.0000    0.0000 C   0  0
    0.0000    0.0000    0.0000 C   0  0
    0.0000    0.0000    0.0000 C   0  0
    0.0000    0.0000    0.0000 C   0  0
    0.0000    0.0000    0.0000 Br  0  0
    0.0000    0.0000    0.0000 C   0  0
    0.0000    0.0000    0.0000 Br  0  0
    0.0000    0.0000    0.0000 C   0  0
    0.0000    0.0000    0.0000 C   0  0
    0.0000    0.0000    0.0000 C   0  0
    0.0000    0.0000    0.0000 Br  0  0
    0.0000    0.0000    0.0000 C   0  0
    0.0000    0.0000    0.0000 Br  0  0
    0.0000    0.0000    0.0000 C   0  0
    0.0000    0.0000    0.0000 C   0  0
    0.0000    0.0000    0.0000 C   0  0
    0.0000    0.0000    0.0000 Br  0  0
  1  2  1  0
  2  3  1  0
  3  4  1  0
  4  5  1  0
  5  6  1  0
  5  7  1  0
  7  8  1  0
  7  9  1  0
  9 10  1  0
 10 11  1  0
 11 12  1  0
 11 13  1  0
 13 14  1  0
 13 15  1  0
 15 16  1  0
 16 17  1  0
 17  2  1  0
 17 18  1  0
M  END
> <Name>
Hexabromocyclododecane

> <SMILES>
BrC1CCC(Br)C(Br)CCC(Br)C(Br)CCC1Br

> <Reference>
Contact Dermatitis (1994) 31:72

> <Id>
3194-55-6

> <Activity>
POS

> <Predicted Value>
1      POS

> <Used>
1

> <Status>
Sensitizer

> <isSensitizer>
1

$$$$
Chloroacetamide
  SciTegic06161615552D

  5  4  0  0  0  0            999 V2000
    0.0000    0.0000    0.0000 N   0  0
    0.0000    0.0000    0.0000 C   0  0
    0.0000    0.0000    0.0000 O   0  0
    0.0000    0.0000    0.0000 C   0  0
    0.0000    0.0000    0.0000 Cl  0  0
  1  2  1  0
  2  3  2  0
  2  4  1  0
  4  5  1  0
M  END
> <Name>
Chloroacetamide

> <SMILES>
NC(=O)CCl

> <Reference>
J Am Coll Toxicol (1991) 10(1):21

> <Id>
79-07-2

> <Activity>
NEG

> <Predicted Value>
0.003  NEG

> <Used>
1

> <Status>
Non-Sensitizer

> <isSensitizer>
0

$$$$
Bromopol
  SciTegic06161615552D

  9  8  0  0  0  0            999 V2000
    0.0000    0.0000    0.0000 O   0  0
    0.0000    0.0000    0.0000 C   0  0
    0.0000    0.0000    0.0000 C   0  0
    0.0000    0.0000    0.0000 Br  0  0
    0.0000    0.0000    0.0000 C   0  0
    0.0000    0.0000    0.0000 O   0  0
    0.0000    0.0000    0.0000 N   0  0
    0.0000    0.0000    0.0000 O   0  0
    0.0000    0.0000    0.0000 O   0  0
  1  2  1  0
  2  3  1  0
  3  4  1  0
  3  5  1  0
  5  6  1  0
  3  7  1  0
  7  8  2  0
  7  9  2  0
M  END
> <Name>
Bromopol

> <SMILES>
OCC(Br)(CO)N(=O)=O

> <Reference>
SAR and QSAR in Env Res (1994) 2:159

> <Id>
52-51-7

> <Activity>
POS

> <Predicted Value>
0.986  POS

> <Used>
1

> <Status>
Sensitizer

> <isSensitizer>
1

$$$$
4-(Ethylhexyloxycarboxy)-1;3-benzene disulfonate
  SciTegic06161615552D

 26 26  0  0  0  0            999 V2000
    0.0000    0.0000    0.0000 C   0  0
    0.0000    0.0000    0.0000 C   0  0
    0.0000    0.0000    0.0000 C   0  0
    0.0000    0.0000    0.0000 C   0  0
    0.0000    0.0000    0.0000 C   0  0
    0.0000    0.0000    0.0000 C   0  0
    0.0000    0.0000    0.0000 C   0  0
    0.0000    0.0000    0.0000 C   0  0
    0.0000    0.0000    0.0000 O   0  0
    0.0000    0.0000    0.0000 C   0  0
    0.0000    0.0000    0.0000 O   0  0
    0.0000    0.0000    0.0000 O   0  0
    0.0000    0.0000    0.0000 C   0  0
    0.0000    0.0000    0.0000 C   0  0
    0.0000    0.0000    0.0000 C   0  0
    0.0000    0.0000    0.0000 C   0  0
    0.0000    0.0000    0.0000 C   0  0
    0.0000    0.0000    0.0000 C   0  0
    0.0000    0.0000    0.0000 S   0  0
    0.0000    0.0000    0.0000 O   0  0
    0.0000    0.0000    0.0000 O   0  0
    0.0000    0.0000    0.0000 O   0  0
    0.0000    0.0000    0.0000 S   0  0
    0.0000    0.0000    0.0000 O   0  0
    0.0000    0.0000    0.0000 O   0  0
    0.0000    0.0000    0.0000 O   0  0
  1  2  1  0
  2  3  1  0
  3  4  1  0
  4  5  1  0
  5  6  1  0
  6  7  1  0
  5  8  1  0
  8  9  1  0
  9 10  1  0
 10 11  2  0
 10 12  1  0
 12 13  1  0
 13 14  2  3
 14 15  1  0
 15 16  2  3
 16 17  1  0
 17 18  2  3
 18 13  1  0
 18 19  1  0
 19 20  1  0
 19 21  2  0
 19 22  2  0
 16 23  1  0
 23 24  1  0
 23 25  2  0
 23 26  2  0
M  END
> <Name>
4-(Ethylhexyloxycarboxy)-1;3-benzene disulfonate

> <SMILES>
CCCCC(CC)COC(=O)Oc1ccc(cc1S(O)(=O)=O)S(O)(=O)=O

> <Reference>
SAR and QSAR in Env Res (1994) 2:159

> <Id>
CRO-260

> <Activity>
POS

> <Predicted Value>
1      POS

> <Used>
1

> <Status>
Sensitizer

> <isSensitizer>
1

$$$$
Ethylhexyl oxycarboxybenzene sulfonate; sodium salt
  SciTegic06161615552D

 22 22  0  0  0  0            999 V2000
    0.0000    0.0000    0.0000 C   0  0
    0.0000    0.0000    0.0000 C   0  0
    0.0000    0.0000    0.0000 C   0  0
    0.0000    0.0000    0.0000 C   0  0
    0.0000    0.0000    0.0000 C   0  0
    0.0000    0.0000    0.0000 C   0  0
    0.0000    0.0000    0.0000 C   0  0
    0.0000    0.0000    0.0000 C   0  0
    0.0000    0.0000    0.0000 O   0  0
    0.0000    0.0000    0.0000 C   0  0
    0.0000    0.0000    0.0000 O   0  0
    0.0000    0.0000    0.0000 O   0  0
    0.0000    0.0000    0.0000 C   0  0
    0.0000    0.0000    0.0000 C   0  0
    0.0000    0.0000    0.0000 C   0  0
    0.0000    0.0000    0.0000 C   0  0
    0.0000    0.0000    0.0000 C   0  0
    0.0000    0.0000    0.0000 C   0  0
    0.0000    0.0000    0.0000 S   0  0
    0.0000    0.0000    0.0000 O   0  5
    0.0000    0.0000    0.0000 O   0  0
    0.0000    0.0000    0.0000 O   0  0
  1  2  1  0
  2  3  1  0
  3  4  1  0
  4  5  1  0
  5  6  1  0
  6  7  1  0
  5  8  1  0
  8  9  1  0
  9 10  1  0
 10 11  2  0
 10 12  1  0
 12 13  1  0
 13 14  2  3
 14 15  1  0
 15 16  2  3
 16 17  1  0
 17 18  2  3
 18 13  1  0
 16 19  1  0
 19 20  1  0
 19 21  2  0
 19 22  2  0
M  CHG  1  20  -1
M  END
> <Name>
Ethylhexyl oxycarboxybenzene sulfonate; sodium salt

> <SMILES>
CCCCC(CC)COC(=O)Oc1ccc(cc1)S([O-])(=O)=O

> <Reference>
SAR and QSAR in Env Res (1994) 2:159

> <Id>
CRO-172

> <Activity>
POS

> <Predicted Value>
1      POS

> <Used>
1

> <Status>
Sensitizer

> <isSensitizer>
1

$$$$
Sodium Nonanoyl oxybenzene sulfonate
  SciTegic06161615552D

 21 21  0  0  0  0            999 V2000
    0.0000    0.0000    0.0000 C   0  0
    0.0000    0.0000    0.0000 C   0  0
    0.0000    0.0000    0.0000 C   0  0
    0.0000    0.0000    0.0000 C   0  0
    0.0000    0.0000    0.0000 C   0  0
    0.0000    0.0000    0.0000 C   0  0
    0.0000    0.0000    0.0000 C   0  0
    0.0000    0.0000    0.0000 C   0  0
    0.0000    0.0000    0.0000 C   0  0
    0.0000    0.0000    0.0000 O   0  0
    0.0000    0.0000    0.0000 O   0  0
    0.0000    0.0000    0.0000 C   0  0
    0.0000    0.0000    0.0000 C   0  0
    0.0000    0.0000    0.0000 C   0  0
    0.0000    0.0000    0.0000 C   0  0
    0.0000    0.0000    0.0000 C   0  0
    0.0000    0.0000    0.0000 C   0  0
    0.0000    0.0000    0.0000 S   0  0
    0.0000    0.0000    0.0000 O   0  5
    0.0000    0.0000    0.0000 O   0  0
    0.0000    0.0000    0.0000 O   0  0
  1  2  1  0
  2  3  1  0
  3  4  1  0
  4  5  1  0
  5  6  1  0
  6  7  1  0
  7  8  1  0
  8  9  1  0
  9 10  2  0
  9 11  1  0
 11 12  1  0
 12 13  2  3
 13 14  1  0
 14 15  2  3
 15 16  1  0
 16 17  2  3
 17 12  1  0
 15 18  1  0
 18 19  1  0
 18 20  2  0
 18 21  2  0
M  CHG  1  19  -1
M  END
> <Name>
Sodium Nonanoyl oxybenzene sulfonate

> <SMILES>
CCCCCCCCC(=O)Oc1ccc(cc1)S([O-])(=O)=O

> <Reference>
SAR and QSAR in Env Res (1994) 2:159

> <Id>
CRO-107

> <Activity>
POS

> <Predicted Value>
0.998  POS

> <Used>
1

> <Status>
Sensitizer

> <isSensitizer>
1

$$$$
4-Hexanoyloxybenzene sulfonate
  SciTegic06161615552D

 18 18  0  0  0  0            999 V2000
    0.0000    0.0000    0.0000 C   0  0
    0.0000    0.0000    0.0000 C   0  0
    0.0000    0.0000    0.0000 C   0  0
    0.0000    0.0000    0.0000 C   0  0
    0.0000    0.0000    0.0000 C   0  0
    0.0000    0.0000    0.0000 C   0  0
    0.0000    0.0000    0.0000 O   0  0
    0.0000    0.0000    0.0000 O   0  0
    0.0000    0.0000    0.0000 C   0  0
    0.0000    0.0000    0.0000 C   0  0
    0.0000    0.0000    0.0000 C   0  0
    0.0000    0.0000    0.0000 C   0  0
    0.0000    0.0000    0.0000 C   0  0
    0.0000    0.0000    0.0000 C   0  0
    0.0000    0.0000    0.0000 S   0  0
    0.0000    0.0000    0.0000 O   0  0
    0.0000    0.0000    0.0000 O   0  0
    0.0000    0.0000    0.0000 O   0  0
  1  2  1  0
  2  3  1  0
  3  4  1  0
  4  5  1  0
  5  6  1  0
  6  7  2  0
  6  8  1  0
  8  9  1  0
  9 10  2  3
 10 11  1  0
 11 12  2  3
 12 13  1  0
 13 14  2  3
 14  9  1  0
 12 15  1  0
 15 16  1  0
 15 17  2  0
 15 18  2  0
M  END
> <Name>
4-Hexanoyloxybenzene sulfonate

> <SMILES>
CCCCCC(=O)Oc1ccc(cc1)S(O)(=O)=O

> <Reference>
SAR and QSAR in Env Res (1994) 2:159

> <Id>
CRO-259

> <Activity>
POS

> <Predicted Value>
0.987  POS

> <Used>
1

> <Status>
Sensitizer

> <isSensitizer>
1

$$$$
Trimethylammonium-ethyloxycarboxy-benzenesulfonate
  SciTegic06161615552D

 20 20  0  0  0  0            999 V2000
    0.0000    0.0000    0.0000 C   0  0
    0.0000    0.0000    0.0000 N   0  3
    0.0000    0.0000    0.0000 C   0  0
    0.0000    0.0000    0.0000 C   0  0
    0.0000    0.0000    0.0000 C   0  0
    0.0000    0.0000    0.0000 C   0  0
    0.0000    0.0000    0.0000 O   0  0
    0.0000    0.0000    0.0000 C   0  0
    0.0000    0.0000    0.0000 O   0  0
    0.0000    0.0000    0.0000 O   0  0
    0.0000    0.0000    0.0000 C   0  0
    0.0000    0.0000    0.0000 C   0  0
    0.0000    0.0000    0.0000 C   0  0
    0.0000    0.0000    0.0000 C   0  0
    0.0000    0.0000    0.0000 C   0  0
    0.0000    0.0000    0.0000 C   0  0
    0.0000    0.0000    0.0000 S   0  0
    0.0000    0.0000    0.0000 O   0  0
    0.0000    0.0000    0.0000 O   0  0
    0.0000    0.0000    0.0000 O   0  0
  1  2  1  0
  2  3  1  0
  2  4  1  0
  2  5  1  0
  5  6  1  0
  6  7  1  0
  7  8  1  0
  8  9  2  0
  8 10  1  0
 10 11  1  0
 11 12  2  3
 12 13  1  0
 13 14  2  3
 14 15  1  0
 15 16  2  3
 16 11  1  0
 14 17  1  0
 17 18  1  0
 17 19  2  0
 17 20  2  0
M  CHG  1   2   1
M  END
> <Name>
Trimethylammonium-ethyloxycarboxy-benzenesulfonate

> <SMILES>
C[N+](C)(C)CCOC(=O)Oc1ccc(cc1)S(O)(=O)=O

> <Reference>
SAR and QSAR in Env Res (1994) 2:159

> <Id>
CRO-292

> <Activity>
POS

> <Predicted Value>
0.858  POS

> <Used>
1

> <Status>
Sensitizer

> <isSensitizer>
1

$$$$
cis-3-Hexyl salicylate
  SciTegic06161615552D

 16 16  0  0  0  0            999 V2000
    0.0000    0.0000    0.0000 C   0  0
    0.0000    0.0000    0.0000 C   0  0
    0.0000    0.0000    0.0000 C   0  0
    0.0000    0.0000    0.0000 C   0  0
    0.0000    0.0000    0.0000 C   0  0
    0.0000    0.0000    0.0000 C   0  0
    0.0000    0.0000    0.0000 O   0  0
    0.0000    0.0000    0.0000 C   0  0
    0.0000    0.0000    0.0000 O   0  0
    0.0000    0.0000    0.0000 C   0  0
    0.0000    0.0000    0.0000 C   0  0
    0.0000    0.0000    0.0000 C   0  0
    0.0000    0.0000    0.0000 C   0  0
    0.0000    0.0000    0.0000 C   0  0
    0.0000    0.0000    0.0000 C   0  0
    0.0000    0.0000    0.0000 O   0  0
  1  2  1  0
  2  3  1  0
  3  4  2  3
  4  5  1  0
  5  6  1  0
  6  7  1  0
  7  8  1  0
  8  9  2  0
  8 10  1  0
 10 11  2  3
 11 12  1  0
 12 13  2  3
 13 14  1  0
 14 15  2  3
 15 10  1  0
 15 16  1  0
M  END
> <Name>
cis-3-Hexyl salicylate

> <SMILES>
CCC=CCCOC(=O)c1ccccc1O

> <Reference>
SAR and QSAR in Env Res (1994) 2:159

> <Id>
65405-77-8

> <Activity>
NEG

> <Predicted Value>
0      NEG

> <Used>
1

> <Status>
Non-Sensitizer

> <isSensitizer>
0

$$$$
Amyl salicylate
  SciTegic06161615552D

 15 15  0  0  0  0            999 V2000
    0.0000    0.0000    0.0000 C   0  0
    0.0000    0.0000    0.0000 C   0  0
    0.0000    0.0000    0.0000 C   0  0
    0.0000    0.0000    0.0000 C   0  0
    0.0000    0.0000    0.0000 C   0  0
    0.0000    0.0000    0.0000 O   0  0
    0.0000    0.0000    0.0000 C   0  0
    0.0000    0.0000    0.0000 O   0  0
    0.0000    0.0000    0.0000 C   0  0
    0.0000    0.0000    0.0000 C   0  0
    0.0000    0.0000    0.0000 C   0  0
    0.0000    0.0000    0.0000 C   0  0
    0.0000    0.0000    0.0000 C   0  0
    0.0000    0.0000    0.0000 C   0  0
    0.0000    0.0000    0.0000 O   0  0
  1  2  1  0
  2  3  1  0
  3  4  1  0
  4  5  1  0
  5  6  1  0
  6  7  1  0
  7  8  2  0
  7  9  1  0
  9 10  2  3
 10 11  1  0
 11 12  2  3
 12 13  1  0
 13 14  2  3
 14  9  1  0
 14 15  1  0
M  END
> <Name>
Amyl salicylate

> <SMILES>
CCCCCOC(=O)c1ccccc1O

> <Reference>
SAR and QSAR in Env Res (1994) 2:159

> <Id>
2050-08-0

> <Activity>
NEG

> <Predicted Value>
0      NEG

> <Used>
1

> <Status>
Non-Sensitizer

> <isSensitizer>
0

$$$$
Hexyl salicylate
  SciTegic06161615552D

 16 16  0  0  0  0            999 V2000
    0.0000    0.0000    0.0000 C   0  0
    0.0000    0.0000    0.0000 C   0  0
    0.0000    0.0000    0.0000 C   0  0
    0.0000    0.0000    0.0000 C   0  0
    0.0000    0.0000    0.0000 C   0  0
    0.0000    0.0000    0.0000 C   0  0
    0.0000    0.0000    0.0000 O   0  0
    0.0000    0.0000    0.0000 C   0  0
    0.0000    0.0000    0.0000 O   0  0
    0.0000    0.0000    0.0000 C   0  0
    0.0000    0.0000    0.0000 C   0  0
    0.0000    0.0000    0.0000 C   0  0
    0.0000    0.0000    0.0000 C   0  0
    0.0000    0.0000    0.0000 C   0  0
    0.0000    0.0000    0.0000 C   0  0
    0.0000    0.0000    0.0000 O   0  0
  1  2  1  0
  2  3  1  0
  3  4  1  0
  4  5  1  0
  5  6  1  0
  6  7  1  0
  7  8  1  0
  8  9  2  0
  8 10  1  0
 10 11  2  3
 11 12  1  0
 12 13  2  3
 13 14  1  0
 14 15  2  3
 15 10  1  0
 15 16  1  0
M  END
> <Name>
Hexyl salicylate

> <SMILES>
CCCCCCOC(=O)c1ccccc1O

> <Reference>
SAR and QSAR in Env Res (1994) 2:159

> <Id>
CRO-58

> <Activity>
NEG

> <Predicted Value>
0      NEG

> <Used>
1

> <Status>
Non-Sensitizer

> <isSensitizer>
0

$$$$
3-Carboxyphenyl heptanoate
  SciTegic06161615552D

 18 18  0  0  0  0            999 V2000
    0.0000    0.0000    0.0000 C   0  0
    0.0000    0.0000    0.0000 C   0  0
    0.0000    0.0000    0.0000 C   0  0
    0.0000    0.0000    0.0000 C   0  0
    0.0000    0.0000    0.0000 C   0  0
    0.0000    0.0000    0.0000 C   0  0
    0.0000    0.0000    0.0000 C   0  0
    0.0000    0.0000    0.0000 O   0  0
    0.0000    0.0000    0.0000 O   0  0
    0.0000    0.0000    0.0000 C   0  0
    0.0000    0.0000    0.0000 C   0  0
    0.0000    0.0000    0.0000 C   0  0
    0.0000    0.0000    0.0000 C   0  0
    0.0000    0.0000    0.0000 C   0  0
    0.0000    0.0000    0.0000 C   0  0
    0.0000    0.0000    0.0000 C   0  0
    0.0000    0.0000    0.0000 O   0  0
    0.0000    0.0000    0.0000 O   0  0
  1  2  1  0
  2  3  1  0
  3  4  1  0
  4  5  1  0
  5  6  1  0
  6  7  1  0
  7  8  2  0
  7  9  1  0
  9 10  1  0
 10 11  2  3
 11 12  1  0
 12 13  2  3
 13 14  1  0
 14 15  2  3
 15 10  1  0
 14 16  1  0
 16 17  1  0
 16 18  2  0
M  END
> <Name>
3-Carboxyphenyl heptanoate

> <SMILES>
CCCCCCC(=O)Oc1cccc(c1)C(O)=O

> <Reference>
SAR and QSAR in Env Res (1994) 2:159

> <Id>
CRO-228

> <Activity>
POS

> <Predicted Value>
0.978  POS

> <Used>
1

> <Status>
Sensitizer

> <isSensitizer>
1

$$$$
Butyl paraben
  SciTegic06161615552D

 14 14  0  0  0  0            999 V2000
    0.0000    0.0000    0.0000 C   0  0
    0.0000    0.0000    0.0000 C   0  0
    0.0000    0.0000    0.0000 C   0  0
    0.0000    0.0000    0.0000 C   0  0
    0.0000    0.0000    0.0000 O   0  0
    0.0000    0.0000    0.0000 C   0  0
    0.0000    0.0000    0.0000 O   0  0
    0.0000    0.0000    0.0000 C   0  0
    0.0000    0.0000    0.0000 C   0  0
    0.0000    0.0000    0.0000 C   0  0
    0.0000    0.0000    0.0000 C   0  0
    0.0000    0.0000    0.0000 O   0  0
    0.0000    0.0000    0.0000 C   0  0
    0.0000    0.0000    0.0000 C   0  0
  1  2  1  0
  2  3  1  0
  3  4  1  0
  4  5  1  0
  5  6  1  0
  6  7  2  0
  6  8  1  0
  8  9  2  3
  9 10  1  0
 10 11  2  3
 11 12  1  0
 11 13  1  0
 13 14  2  3
 14  8  1  0
M  END
> <Name>
Butyl paraben

> <SMILES>
CCCCOC(=O)c1ccc(O)cc1

> <Reference>
SAR and QSAR in Env Res (1994) 2:159

> <Id>
94-26-8

> <Activity>
NEG

> <Predicted Value>
0      NEG

> <Used>
1

> <Status>
Non-Sensitizer

> <isSensitizer>
0

$$$$
Ethyl vanillin
  SciTegic06161615552D

 12 12  0  0  0  0            999 V2000
    0.0000    0.0000    0.0000 C   0  0
    0.0000    0.0000    0.0000 C   0  0
    0.0000    0.0000    0.0000 O   0  0
    0.0000    0.0000    0.0000 C   0  0
    0.0000    0.0000    0.0000 C   0  0
    0.0000    0.0000    0.0000 C   0  0
    0.0000    0.0000    0.0000 C   0  0
    0.0000    0.0000    0.0000 O   0  0
    0.0000    0.0000    0.0000 C   0  0
    0.0000    0.0000    0.0000 C   0  0
    0.0000    0.0000    0.0000 C   0  0
    0.0000    0.0000    0.0000 O   0  0
  1  2  1  0
  2  3  1  0
  3  4  1  0
  4  5  2  3
  5  6  1  0
  6  7  1  0
  7  8  2  0
  6  9  2  3
  9 10  1  0
 10 11  2  3
 11  4  1  0
 11 12  1  0
M  END
> <Name>
Ethyl vanillin

> <SMILES>
CCOc1cc(C=O)ccc1O

> <Reference>
SAR and QSAR in Env Res (1994) 2:159

> <Id>
121-32-4

> <Activity>
NEG

> <Predicted Value>
0.95   POS

> <Used>
1

> <Status>
Non-Sensitizer

> <isSensitizer>
0

$$$$
Propyl paraben
  SciTegic06161615552D

 13 13  0  0  0  0            999 V2000
    0.0000    0.0000    0.0000 C   0  0
    0.0000    0.0000    0.0000 C   0  0
    0.0000    0.0000    0.0000 C   0  0
    0.0000    0.0000    0.0000 O   0  0
    0.0000    0.0000    0.0000 C   0  0
    0.0000    0.0000    0.0000 O   0  0
    0.0000    0.0000    0.0000 C   0  0
    0.0000    0.0000    0.0000 C   0  0
    0.0000    0.0000    0.0000 C   0  0
    0.0000    0.0000    0.0000 C   0  0
    0.0000    0.0000    0.0000 O   0  0
    0.0000    0.0000    0.0000 C   0  0
    0.0000    0.0000    0.0000 C   0  0
  1  2  1  0
  2  3  1  0
  3  4  1  0
  4  5  1  0
  5  6  2  0
  5  7  1  0
  7  8  2  3
  8  9  1  0
  9 10  2  3
 10 11  1  0
 10 12  1  0
 12 13  2  3
 13  7  1  0
M  END
> <Name>
Propyl paraben

> <SMILES>
CCCOC(=O)c1ccc(O)cc1

> <Reference>
SAR and QSAR in Env Res (1994) 2:159

> <Id>
94-13-3

> <Activity>
NEG

> <Predicted Value>
0      NEG

> <Used>
1

> <Status>
Non-Sensitizer

> <isSensitizer>
0

$$$$
Sodium 3;5;5-Trimethylhexanoyloxybenzene sulfonate
  SciTegic06161615552D

 21 21  0  0  0  0            999 V2000
    0.0000    0.0000    0.0000 C   0  0
    0.0000    0.0000    0.0000 C   0  0
    0.0000    0.0000    0.0000 C   0  0
    0.0000    0.0000    0.0000 C   0  0
    0.0000    0.0000    0.0000 C   0  0
    0.0000    0.0000    0.0000 C   0  0
    0.0000    0.0000    0.0000 C   0  0
    0.0000    0.0000    0.0000 C   0  0
    0.0000    0.0000    0.0000 C   0  0
    0.0000    0.0000    0.0000 O   0  0
    0.0000    0.0000    0.0000 O   0  0
    0.0000    0.0000    0.0000 C   0  0
    0.0000    0.0000    0.0000 C   0  0
    0.0000    0.0000    0.0000 C   0  0
    0.0000    0.0000    0.0000 C   0  0
    0.0000    0.0000    0.0000 C   0  0
    0.0000    0.0000    0.0000 C   0  0
    0.0000    0.0000    0.0000 S   0  0
    0.0000    0.0000    0.0000 O   0  0
    0.0000    0.0000    0.0000 O   0  0
    0.0000    0.0000    0.0000 O   0  0
  1  2  1  0
  2  3  1  0
  3  4  1  0
  3  5  1  0
  5  6  1  0
  6  7  1  0
  6  8  1  0
  6  9  1  0
  9 10  2  0
  9 11  1  0
 11 12  1  0
 12 13  2  3
 13 14  1  0
 14 15  2  3
 15 16  1  0
 16 17  2  3
 17 12  1  0
 15 18  1  0
 18 19  1  0
 18 20  2  0
 18 21  2  0
M  END
> <Name>
Sodium 3;5;5-Trimethylhexanoyloxybenzene sulfonate

> <SMILES>
CCC(C)CC(C)(C)C(=O)Oc1ccc(cc1)S(O)(=O)=O

> <Reference>
SAR and QSAR in Env Res (1994) 2:159

> <Id>
CRO-401

> <Activity>
POS

> <Predicted Value>
1      POS

> <Used>
1

> <Status>
Sensitizer

> <isSensitizer>
1

$$$$
Benzocaine
  SciTegic06161615552D

 12 12  0  0  0  0            999 V2000
    0.0000    0.0000    0.0000 C   0  0
    0.0000    0.0000    0.0000 C   0  0
    0.0000    0.0000    0.0000 O   0  0
    0.0000    0.0000    0.0000 C   0  0
    0.0000    0.0000    0.0000 O   0  0
    0.0000    0.0000    0.0000 C   0  0
    0.0000    0.0000    0.0000 C   0  0
    0.0000    0.0000    0.0000 C   0  0
    0.0000    0.0000    0.0000 C   0  0
    0.0000    0.0000    0.0000 N   0  0
    0.0000    0.0000    0.0000 C   0  0
    0.0000    0.0000    0.0000 C   0  0
  1  2  1  0
  2  3  1  0
  3  4  1  0
  4  5  2  0
  4  6  1  0
  6  7  2  3
  7  8  1  0
  8  9  2  3
  9 10  1  0
  9 11  1  0
 11 12  2  3
 12  6  1  0
M  END
> <Name>
Benzocaine

> <SMILES>
CCOC(=O)c1ccc(N)cc1

> <Reference>
Contact Dermatitis (1993) 28:235

> <Id>
94-09-7

> <Activity>
POS

> <Predicted Value>
1      POS

> <Used>
1

> <Status>
Sensitizer

> <isSensitizer>
1

$$$$
Ethyl hydroxy benzoate
  SciTegic06161615552D

 12 12  0  0  0  0            999 V2000
    0.0000    0.0000    0.0000 C   0  0
    0.0000    0.0000    0.0000 C   0  0
    0.0000    0.0000    0.0000 O   0  0
    0.0000    0.0000    0.0000 C   0  0
    0.0000    0.0000    0.0000 O   0  0
    0.0000    0.0000    0.0000 C   0  0
    0.0000    0.0000    0.0000 C   0  0
    0.0000    0.0000    0.0000 C   0  0
    0.0000    0.0000    0.0000 C   0  0
    0.0000    0.0000    0.0000 O   0  0
    0.0000    0.0000    0.0000 C   0  0
    0.0000    0.0000    0.0000 C   0  0
  1  2  1  0
  2  3  1  0
  3  4  1  0
  4  5  2  0
  4  6  1  0
  6  7  2  3
  7  8  1  0
  8  9  2  3
  9 10  1  0
  9 11  1  0
 11 12  2  3
 12  6  1  0
M  END
> <Name>
Ethyl hydroxy benzoate

> <SMILES>
CCOC(=O)c1ccc(O)cc1

> <Id>
120-47-8

> <Activity>
NEG

> <Predicted Value>
0      NEG

> <Used>
1

> <Status>
Non-Sensitizer

> <isSensitizer>
0

$$$$
Musk ambrette
  SciTegic06161615552D

 19 19  0  0  0  0            999 V2000
    0.0000    0.0000    0.0000 C   0  0
    0.0000    0.0000    0.0000 O   0  0
    0.0000    0.0000    0.0000 C   0  0
    0.0000    0.0000    0.0000 C   0  0
    0.0000    0.0000    0.0000 N   0  0
    0.0000    0.0000    0.0000 O   0  0
    0.0000    0.0000    0.0000 O   0  0
    0.0000    0.0000    0.0000 C   0  0
    0.0000    0.0000    0.0000 C   0  0
    0.0000    0.0000    0.0000 C   0  0
    0.0000    0.0000    0.0000 C   0  0
    0.0000    0.0000    0.0000 C   0  0
    0.0000    0.0000    0.0000 C   0  0
    0.0000    0.0000    0.0000 C   0  0
    0.0000    0.0000    0.0000 C   0  0
    0.0000    0.0000    0.0000 C   0  0
    0.0000    0.0000    0.0000 N   0  0
    0.0000    0.0000    0.0000 O   0  0
    0.0000    0.0000    0.0000 O   0  0
  1  2  1  0
  2  3  1  0
  3  4  2  3
  4  5  1  0
  5  6  2  0
  5  7  2  0
  4  8  1  0
  8  9  1  0
  8 10  2  3
 10 11  1  0
 11 12  2  3
 12  3  1  0
 12 13  1  0
 13 14  1  0
 13 15  1  0
 13 16  1  0
 10 17  1  0
 17 18  2  0
 17 19  2  0
M  END
> <Name>
Musk ambrette

> <SMILES>
COc1c(N(=O)=O)c(C)c(cc1C(C)(C)C)N(=O)=O

> <Reference>
SAR and QSAR in Env Res (1994) 2:159

> <Id>
83-66-9

> <Activity>
NEG

> <Predicted Value>
0      NEG

> <Used>
1

> <Status>
Non-Sensitizer

> <isSensitizer>
0

$$$$
2;4-Dinitrothiocyanobenzene
  SciTegic06161615552D

 15 15  0  0  0  0            999 V2000
    0.0000    0.0000    0.0000 O   0  0
    0.0000    0.0000    0.0000 N   0  0
    0.0000    0.0000    0.0000 O   0  0
    0.0000    0.0000    0.0000 C   0  0
    0.0000    0.0000    0.0000 C   0  0
    0.0000    0.0000    0.0000 C   0  0
    0.0000    0.0000    0.0000 C   0  0
    0.0000    0.0000    0.0000 S   0  0
    0.0000    0.0000    0.0000 C   0  0
    0.0000    0.0000    0.0000 N   0  0
    0.0000    0.0000    0.0000 C   0  0
    0.0000    0.0000    0.0000 C   0  0
    0.0000    0.0000    0.0000 N   0  0
    0.0000    0.0000    0.0000 O   0  0
    0.0000    0.0000    0.0000 O   0  0
  1  2  2  0
  2  3  2  0
  2  4  1  0
  4  5  2  3
  5  6  1  0
  6  7  2  3
  7  8  1  0
  8  9  1  0
  9 10  3  0
  7 11  1  0
 11 12  2  3
 12  4  1  0
 11 13  1  0
 13 14  2  0
 13 15  2  0
M  END
> <Name>
2;4-Dinitrothiocyanobenzene

> <SMILES>
O=N(=O)c1ccc(SC#N)c(c1)N(=O)=O

> <Reference>
Food Chem Toxicol (1997) 35:261

> <Id>
1594-56-5

> <Activity>
POS

> <Predicted Value>
1      POS

> <Used>
1

> <Status>
Sensitizer

> <isSensitizer>
1

$$$$
Benzene-1;2;4-tricarboxylic acid
  SciTegic06161615552D

 15 15  0  0  0  0            999 V2000
    0.0000    0.0000    0.0000 O   0  0
    0.0000    0.0000    0.0000 C   0  0
    0.0000    0.0000    0.0000 O   0  0
    0.0000    0.0000    0.0000 C   0  0
    0.0000    0.0000    0.0000 C   0  0
    0.0000    0.0000    0.0000 C   0  0
    0.0000    0.0000    0.0000 C   0  0
    0.0000    0.0000    0.0000 C   0  0
    0.0000    0.0000    0.0000 O   0  0
    0.0000    0.0000    0.0000 O   0  0
    0.0000    0.0000    0.0000 C   0  0
    0.0000    0.0000    0.0000 C   0  0
    0.0000    0.0000    0.0000 C   0  0
    0.0000    0.0000    0.0000 O   0  0
    0.0000    0.0000    0.0000 O   0  0
  1  2  1  0
  2  3  2  0
  2  4  1  0
  4  5  2  3
  5  6  1  0
  6  7  2  3
  7  8  1  0
  8  9  1  0
  8 10  2  0
  7 11  1  0
 11 12  2  3
 12  4  1  0
 11 13  1  0
 13 14  1  0
 13 15  2  0
M  END
> <Name>
Benzene-1;2;4-tricarboxylic acid

> <SMILES>
OC(=O)c1ccc(C(O)=O)c(c1)C(O)=O

> <Id>
99999-13-0

> <Activity>
POS

> <Predicted Value>
1      POS

> <Used>
1

> <Status>
Sensitizer

> <isSensitizer>
1

$$$$
4-(Benzyloxycarboxy)benzene-1;3-disulfonate
  SciTegic06161615552D

 25 26  0  0  0  0            999 V2000
    0.0000    0.0000    0.0000 O   0  5
    0.0000    0.0000    0.0000 S   0  0
    0.0000    0.0000    0.0000 O   0  0
    0.0000    0.0000    0.0000 O   0  0
    0.0000    0.0000    0.0000 C   0  0
    0.0000    0.0000    0.0000 C   0  0
    0.0000    0.0000    0.0000 C   0  0
    0.0000    0.0000    0.0000 C   0  0
    0.0000    0.0000    0.0000 O   0  0
    0.0000    0.0000    0.0000 C   0  0
    0.0000    0.0000    0.0000 O   0  0
    0.0000    0.0000    0.0000 O   0  0
    0.0000    0.0000    0.0000 C   0  0
    0.0000    0.0000    0.0000 C   0  0
    0.0000    0.0000    0.0000 C   0  0
    0.0000    0.0000    0.0000 C   0  0
    0.0000    0.0000    0.0000 C   0  0
    0.0000    0.0000    0.0000 C   0  0
    0.0000    0.0000    0.0000 C   0  0
    0.0000    0.0000    0.0000 C   0  0
    0.0000    0.0000    0.0000 C   0  0
    0.0000    0.0000    0.0000 S   0  0
    0.0000    0.0000    0.0000 O   0  5
    0.0000    0.0000    0.0000 O   0  0
    0.0000    0.0000    0.0000 O   0  0
  1  2  1  0
  2  3  2  0
  2  4  2  0
  2  5  1  0
  5  6  2  3
  6  7  1  0
  7  8  2  3
  8  9  1  0
  9 10  1  0
 10 11  2  0
 10 12  1  0
 12 13  1  0
 13 14  1  0
 14 15  2  3
 15 16  1  0
 16 17  2  3
 17 18  1  0
 18 19  2  3
 19 14  1  0
  8 20  1  0
 20 21  2  3
 21  5  1  0
 20 22  1  0
 22 23  1  0
 22 24  2  0
 22 25  2  0
M  CHG  2   1  -1  23  -1
M  END
> <Name>
4-(Benzyloxycarboxy)benzene-1;3-disulfonate

> <SMILES>
[O-]S(=O)(=O)c2ccc(OC(=O)OCc1ccccc1)c(c2)S([O-])(=O)=O

> <Reference>
SAR and QSAR in Env Res (1994) 2:159

> <Id>
CRO-261

> <Activity>
POS

> <Predicted Value>
1      POS

> <Used>
1

> <Status>
Sensitizer

> <isSensitizer>
1

$$$$
2-Ethoxy-4-methylphenol
  SciTegic06161615552D

 11 11  0  0  0  0            999 V2000
    0.0000    0.0000    0.0000 C   0  0
    0.0000    0.0000    0.0000 C   0  0
    0.0000    0.0000    0.0000 O   0  0
    0.0000    0.0000    0.0000 C   0  0
    0.0000    0.0000    0.0000 C   0  0
    0.0000    0.0000    0.0000 C   0  0
    0.0000    0.0000    0.0000 C   0  0
    0.0000    0.0000    0.0000 C   0  0
    0.0000    0.0000    0.0000 C   0  0
    0.0000    0.0000    0.0000 C   0  0
    0.0000    0.0000    0.0000 O   0  0
  1  2  1  0
  2  3  1  0
  3  4  1  0
  4  5  2  3
  5  6  1  0
  6  7  1  0
  6  8  2  3
  8  9  1  0
  9 10  2  3
 10  4  1  0
 10 11  1  0
M  END
> <Name>
2-Ethoxy-4-methylphenol

> <SMILES>
CCOc1cc(C)ccc1O

> <Reference>
SAR and QSAR in Env Res (1994) 2:159

> <Id>
CRO-301

> <Activity>
POS

> <Predicted Value>
0.938  POS

> <Used>
1

> <Status>
Sensitizer

> <isSensitizer>
1

$$$$
2-Methyl-5-sulfophenyl acetate
  SciTegic06161615552D

 15 15  0  0  0  0            999 V2000
    0.0000    0.0000    0.0000 C   0  0
    0.0000    0.0000    0.0000 C   0  0
    0.0000    0.0000    0.0000 O   0  0
    0.0000    0.0000    0.0000 O   0  0
    0.0000    0.0000    0.0000 C   0  0
    0.0000    0.0000    0.0000 C   0  0
    0.0000    0.0000    0.0000 C   0  0
    0.0000    0.0000    0.0000 C   0  0
    0.0000    0.0000    0.0000 C   0  0
    0.0000    0.0000    0.0000 C   0  0
    0.0000    0.0000    0.0000 C   0  0
    0.0000    0.0000    0.0000 S   0  0
    0.0000    0.0000    0.0000 O   0  0
    0.0000    0.0000    0.0000 O   0  0
    0.0000    0.0000    0.0000 O   0  0
  1  2  1  0
  2  3  2  0
  2  4  1  0
  4  5  1  0
  5  6  2  3
  6  7  1  0
  7  8  2  3
  8  9  1  0
  9 10  2  3
 10  5  1  0
 10 11  1  0
  7 12  1  0
 12 13  1  0
 12 14  2  0
 12 15  2  0
M  END
> <Name>
2-Methyl-5-sulfophenyl acetate

> <SMILES>
CC(=O)Oc1cc(ccc1C)S(O)(=O)=O

> <Reference>
SAR and QSAR in Env Res (1994) 2:159

> <Id>
CRO-232

> <Activity>
POS

> <Predicted Value>
1      POS

> <Used>
1

> <Status>
Sensitizer

> <isSensitizer>
1

$$$$
Sodium acetyl oxybenzene sulfonate
  SciTegic06161615552D

 14 14  0  0  0  0            999 V2000
    0.0000    0.0000    0.0000 C   0  0
    0.0000    0.0000    0.0000 C   0  0
    0.0000    0.0000    0.0000 O   0  0
    0.0000    0.0000    0.0000 O   0  0
    0.0000    0.0000    0.0000 C   0  0
    0.0000    0.0000    0.0000 C   0  0
    0.0000    0.0000    0.0000 C   0  0
    0.0000    0.0000    0.0000 C   0  0
    0.0000    0.0000    0.0000 C   0  0
    0.0000    0.0000    0.0000 C   0  0
    0.0000    0.0000    0.0000 S   0  0
    0.0000    0.0000    0.0000 O   0  5
    0.0000    0.0000    0.0000 O   0  0
    0.0000    0.0000    0.0000 O   0  0
  1  2  1  0
  2  3  2  0
  2  4  1  0
  4  5  1  0
  5  6  2  3
  6  7  1  0
  7  8  2  3
  8  9  1  0
  9 10  2  3
 10  5  1  0
  8 11  1  0
 11 12  1  0
 11 13  2  0
 11 14  2  0
M  CHG  1  12  -1
M  END
> <Name>
Sodium acetyl oxybenzene sulfonate

> <SMILES>
CC(=O)Oc1ccc(cc1)S([O-])(=O)=O

> <Reference>
SAR and QSAR in Env Res (1994) 2:159

> <Id>
CRO-169

> <Activity>
POS

> <Predicted Value>
0.995  POS

> <Used>
1

> <Status>
Sensitizer

> <isSensitizer>
1

$$$$
2-Methoxy-5-sulfophenyl acetate
  SciTegic06161615552D

 16 16  0  0  0  0            999 V2000
    0.0000    0.0000    0.0000 C   0  0
    0.0000    0.0000    0.0000 O   0  0
    0.0000    0.0000    0.0000 C   0  0
    0.0000    0.0000    0.0000 C   0  0
    0.0000    0.0000    0.0000 C   0  0
    0.0000    0.0000    0.0000 C   0  0
    0.0000    0.0000    0.0000 C   0  0
    0.0000    0.0000    0.0000 C   0  0
    0.0000    0.0000    0.0000 O   0  0
    0.0000    0.0000    0.0000 C   0  0
    0.0000    0.0000    0.0000 C   0  0
    0.0000    0.0000    0.0000 O   0  0
    0.0000    0.0000    0.0000 S   0  0
    0.0000    0.0000    0.0000 O   0  0
    0.0000    0.0000    0.0000 O   0  0
    0.0000    0.0000    0.0000 O   0  0
  1  2  1  0
  2  3  1  0
  3  4  2  3
  4  5  1  0
  5  6  2  3
  6  7  1  0
  7  8  2  3
  8  3  1  0
  8  9  1  0
  9 10  1  0
 10 11  1  0
 10 12  2  0
  6 13  1  0
 13 14  1  0
 13 15  2  0
 13 16  2  0
M  END
> <Name>
2-Methoxy-5-sulfophenyl acetate

> <SMILES>
COc1ccc(cc1OC(C)=O)S(O)(=O)=O

> <Reference>
SAR and QSAR in Env Res (1994) 2:159

> <Id>
CRO-221

> <Activity>
POS

> <Predicted Value>
0.999  POS

> <Used>
1

> <Status>
Sensitizer

> <isSensitizer>
1

$$$$
4-(Benzyloxycarboxy)benzene-1;3-dicarboxylate
  SciTegic06161615552D

 23 24  0  0  0  0            999 V2000
    0.0000    0.0000    0.0000 O   0  5
    0.0000    0.0000    0.0000 C   0  0
    0.0000    0.0000    0.0000 O   0  0
    0.0000    0.0000    0.0000 C   0  0
    0.0000    0.0000    0.0000 C   0  0
    0.0000    0.0000    0.0000 C   0  0
    0.0000    0.0000    0.0000 C   0  0
    0.0000    0.0000    0.0000 O   0  0
    0.0000    0.0000    0.0000 C   0  0
    0.0000    0.0000    0.0000 O   0  0
    0.0000    0.0000    0.0000 O   0  0
    0.0000    0.0000    0.0000 C   0  0
    0.0000    0.0000    0.0000 C   0  0
    0.0000    0.0000    0.0000 C   0  0
    0.0000    0.0000    0.0000 C   0  0
    0.0000    0.0000    0.0000 C   0  0
    0.0000    0.0000    0.0000 C   0  0
    0.0000    0.0000    0.0000 C   0  0
    0.0000    0.0000    0.0000 C   0  0
    0.0000    0.0000    0.0000 C   0  0
    0.0000    0.0000    0.0000 C   0  0
    0.0000    0.0000    0.0000 O   0  5
    0.0000    0.0000    0.0000 O   0  0
  1  2  1  0
  2  3  2  0
  2  4  1  0
  4  5  2  3
  5  6  1  0
  6  7  2  3
  7  8  1  0
  8  9  1  0
  9 10  2  0
  9 11  1  0
 11 12  1  0
 12 13  1  0
 13 14  2  3
 14 15  1  0
 15 16  2  3
 16 17  1  0
 17 18  2  3
 18 13  1  0
  7 19  1  0
 19 20  2  3
 20  4  1  0
 19 21  1  0
 21 22  1  0
 21 23  2  0
M  CHG  2   1  -1  22  -1
M  END
> <Name>
4-(Benzyloxycarboxy)benzene-1;3-dicarboxylate

> <SMILES>
[O-]C(=O)c2ccc(OC(=O)OCc1ccccc1)c(c2)C([O-])=O

> <Reference>
SAR and QSAR in Env Res (1994) 2:159

> <Id>
CRO-262

> <Activity>
POS

> <Predicted Value>
0.999  POS

> <Used>
1

> <Status>
Sensitizer

> <isSensitizer>
1

$$$$
4-Ethoxymethylene-2-phenyloxazol-5-one
  SciTegic06161615552D

 16 17  0  0  0  0            999 V2000
    0.0000    0.0000    0.0000 C   0  0
    0.0000    0.0000    0.0000 C   0  0
    0.0000    0.0000    0.0000 O   0  0
    0.0000    0.0000    0.0000 C   0  0
    0.0000    0.0000    0.0000 C   0  0
    0.0000    0.0000    0.0000 N   0  0
    0.0000    0.0000    0.0000 C   0  0
    0.0000    0.0000    0.0000 O   0  0
    0.0000    0.0000    0.0000 C   0  0
    0.0000    0.0000    0.0000 O   0  0
    0.0000    0.0000    0.0000 C   0  0
    0.0000    0.0000    0.0000 C   0  0
    0.0000    0.0000    0.0000 C   0  0
    0.0000    0.0000    0.0000 C   0  0
    0.0000    0.0000    0.0000 C   0  0
    0.0000    0.0000    0.0000 C   0  0
  1  2  1  0
  2  3  1  0
  3  4  1  0
  4  5  2  3
  5  6  1  0
  6  7  2  3
  7  8  1  0
  8  9  1  0
  9  5  1  0
  9 10  2  0
  7 11  1  0
 11 12  2  3
 12 13  1  0
 13 14  2  3
 14 15  1  0
 15 16  2  3
 16 11  1  0
M  END
> <Name>
4-Ethoxymethylene-2-phenyloxazol-5-one

> <SMILES>
CCOC=C1N=C(OC1=O)c2ccccc2

> <Reference>
SAR and QSAR in Env Res (1994) 2:159

> <Id>
15646-46-5

> <Activity>
POS

> <Predicted Value>
0.993  POS

> <Used>
1

> <Status>
Sensitizer

> <isSensitizer>
1

$$$$
Monoperoxyphthalic acid
  SciTegic06161615552D

 13 13  0  0  0  0            999 V2000
    0.0000    0.0000    0.0000 O   0  0
    0.0000    0.0000    0.0000 O   0  0
    0.0000    0.0000    0.0000 C   0  0
    0.0000    0.0000    0.0000 O   0  0
    0.0000    0.0000    0.0000 C   0  0
    0.0000    0.0000    0.0000 C   0  0
    0.0000    0.0000    0.0000 C   0  0
    0.0000    0.0000    0.0000 C   0  0
    0.0000    0.0000    0.0000 C   0  0
    0.0000    0.0000    0.0000 C   0  0
    0.0000    0.0000    0.0000 C   0  0
    0.0000    0.0000    0.0000 O   0  0
    0.0000    0.0000    0.0000 O   0  0
  1  2  1  0
  2  3  1  0
  3  4  2  0
  3  5  1  0
  5  6  2  3
  6  7  1  0
  7  8  2  3
  8  9  1  0
  9 10  2  3
 10  5  1  0
 10 11  1  0
 11 12  1  0
 11 13  2  0
M  END
> <Name>
Monoperoxyphthalic acid

> <SMILES>
OOC(=O)c1ccccc1C(O)=O

> <Reference>
SAR and QSAR in Env Res (1994) 2:159

> <Id>
CRO-184

> <Activity>
POS

> <Predicted Value>
0.992  POS

> <Used>
1

> <Status>
Sensitizer

> <isSensitizer>
1

$$$$
3-(benzenesulfonyloxymethyl)-5;5-dimethyldihydro-2(3H)-furanone
  SciTegic06161615552D

 19 20  0  0  0  0            999 V2000
    0.0000    0.0000    0.0000 C   0  0
    0.0000    0.0000    0.0000 C   0  0
    0.0000    0.0000    0.0000 C   0  0
    0.0000    0.0000    0.0000 C   0  0
    0.0000    0.0000    0.0000 C   0  0
    0.0000    0.0000    0.0000 C   0  0
    0.0000    0.0000    0.0000 O   0  0
    0.0000    0.0000    0.0000 S   0  0
    0.0000    0.0000    0.0000 O   0  0
    0.0000    0.0000    0.0000 O   0  0
    0.0000    0.0000    0.0000 C   0  0
    0.0000    0.0000    0.0000 C   0  0
    0.0000    0.0000    0.0000 C   0  0
    0.0000    0.0000    0.0000 C   0  0
    0.0000    0.0000    0.0000 C   0  0
    0.0000    0.0000    0.0000 C   0  0
    0.0000    0.0000    0.0000 C   0  0
    0.0000    0.0000    0.0000 O   0  0
    0.0000    0.0000    0.0000 O   0  0
  1  2  1  0
  2  3  1  0
  2  4  1  0
  4  5  1  0
  5  6  1  0
  6  7  1  0
  7  8  1  0
  8  9  2  0
  8 10  2  0
  8 11  1  0
 11 12  2  3
 12 13  1  0
 13 14  2  3
 14 15  1  0
 15 16  2  3
 16 11  1  0
  5 17  1  0
 17 18  2  0
 17 19  1  0
 19  2  1  0
M  END
> <Name>
3-(benzenesulfonyloxymethyl)-5;5-dimethyldihydro-2(3H)-furanone

> <SMILES>
CC2(C)CC(COS(=O)(=O)c1ccccc1)C(=O)O2

> <Reference>
David A Basketter (priv comm)

> <Id>
77-AOO

> <Activity>
POS

> <Predicted Value>
1      POS

> <Used>
1

> <Status>
Sensitizer

> <isSensitizer>
1

$$$$
Diethyltoluamide
  SciTegic06161615552D

 14 14  0  0  0  0            999 V2000
    0.0000    0.0000    0.0000 C   0  0
    0.0000    0.0000    0.0000 C   0  0
    0.0000    0.0000    0.0000 N   0  0
    0.0000    0.0000    0.0000 C   0  0
    0.0000    0.0000    0.0000 C   0  0
    0.0000    0.0000    0.0000 C   0  0
    0.0000    0.0000    0.0000 O   0  0
    0.0000    0.0000    0.0000 C   0  0
    0.0000    0.0000    0.0000 C   0  0
    0.0000    0.0000    0.0000 C   0  0
    0.0000    0.0000    0.0000 C   0  0
    0.0000    0.0000    0.0000 C   0  0
    0.0000    0.0000    0.0000 C   0  0
    0.0000    0.0000    0.0000 C   0  0
  1  2  1  0
  2  3  1  0
  3  4  1  0
  4  5  1  0
  3  6  1  0
  6  7  2  0
  6  8  1  0
  8  9  2  3
  9 10  1  0
 10 11  2  3
 11 12  1  0
 12 13  1  0
 12 14  2  3
 14  8  1  0
M  END
> <Name>
Diethyltoluamide

> <SMILES>
CCN(CC)C(=O)c1cccc(C)c1

> <Reference>
SAR and QSAR in Env Res (1994) 2:159

> <Id>
134-62-3

> <Activity>
NEG

> <Predicted Value>
0      NEG

> <Used>
1

> <Status>
Non-Sensitizer

> <isSensitizer>
0

$$$$
Trimethylammonium-hexanoyloxy-4-benzenesulfonate
  SciTegic06161615552D

 22 22  0  0  0  0            999 V2000
    0.0000    0.0000    0.0000 C   0  0
    0.0000    0.0000    0.0000 N   0  3
    0.0000    0.0000    0.0000 C   0  0
    0.0000    0.0000    0.0000 C   0  0
    0.0000    0.0000    0.0000 C   0  0
    0.0000    0.0000    0.0000 C   0  0
    0.0000    0.0000    0.0000 C   0  0
    0.0000    0.0000    0.0000 C   0  0
    0.0000    0.0000    0.0000 C   0  0
    0.0000    0.0000    0.0000 C   0  0
    0.0000    0.0000    0.0000 O   0  0
    0.0000    0.0000    0.0000 O   0  0
    0.0000    0.0000    0.0000 C   0  0
    0.0000    0.0000    0.0000 C   0  0
    0.0000    0.0000    0.0000 C   0  0
    0.0000    0.0000    0.0000 C   0  0
    0.0000    0.0000    0.0000 C   0  0
    0.0000    0.0000    0.0000 C   0  0
    0.0000    0.0000    0.0000 S   0  0
    0.0000    0.0000    0.0000 O   0  0
    0.0000    0.0000    0.0000 O   0  0
    0.0000    0.0000    0.0000 O   0  0
  1  2  1  0
  2  3  1  0
  2  4  1  0
  2  5  1  0
  5  6  1  0
  6  7  1  0
  7  8  1  0
  8  9  1  0
  9 10  1  0
 10 11  2  0
 10 12  1  0
 12 13  1  0
 13 14  2  3
 14 15  1  0
 15 16  2  3
 16 17  1  0
 17 18  2  3
 18 13  1  0
 16 19  1  0
 19 20  1  0
 19 21  2  0
 19 22  2  0
M  CHG  1   2   1
M  END
> <Name>
Trimethylammonium-hexanoyloxy-4-benzenesulfonate

> <SMILES>
C[N+](C)(C)CCCCCC(=O)Oc1ccc(cc1)S(O)(=O)=O

> <Reference>
SAR and QSAR in Env Res (1994) 2:159

> <Id>
CRO-293

> <Activity>
POS

> <Predicted Value>
1      POS

> <Used>
1

> <Status>
Sensitizer

> <isSensitizer>
1

$$$$
Ethylene toluene sulfonamide
  SciTegic06161615552D

 13 13  0  0  0  0            999 V2000
    0.0000    0.0000    0.0000 C   0  0
    0.0000    0.0000    0.0000 C   0  0
    0.0000    0.0000    0.0000 N   0  0
    0.0000    0.0000    0.0000 S   0  0
    0.0000    0.0000    0.0000 O   0  0
    0.0000    0.0000    0.0000 O   0  0
    0.0000    0.0000    0.0000 C   0  0
    0.0000    0.0000    0.0000 C   0  0
    0.0000    0.0000    0.0000 C   0  0
    0.0000    0.0000    0.0000 C   0  0
    0.0000    0.0000    0.0000 C   0  0
    0.0000    0.0000    0.0000 C   0  0
    0.0000    0.0000    0.0000 C   0  0
  1  2  1  0
  2  3  1  0
  3  4  1  0
  4  5  2  0
  4  6  2  0
  4  7  1  0
  7  8  2  3
  8  9  1  0
  9 10  2  3
 10 11  1  0
 11 12  2  3
 12  7  1  0
 12 13  1  0
M  END
> <Name>
Ethylene toluene sulfonamide

> <SMILES>
CCNS(=O)(=O)c1ccccc1C

> <Reference>
Howard I Maibach (priv comm)

> <Id>
1077-56-1

> <Activity>
NEG

> <Predicted Value>
0      NEG

> <Used>
1

> <Status>
Non-Sensitizer

> <isSensitizer>
0

$$$$
4-(4'-hydroxy-3'-hydroxymethylbenzyl)-2-hydroxymethylphenol
  SciTegic06161615552D

 19 20  0  0  0  0            999 V2000
    0.0000    0.0000    0.0000 O   0  0
    0.0000    0.0000    0.0000 C   0  0
    0.0000    0.0000    0.0000 C   0  0
    0.0000    0.0000    0.0000 C   0  0
    0.0000    0.0000    0.0000 C   0  0
    0.0000    0.0000    0.0000 C   0  0
    0.0000    0.0000    0.0000 C   0  0
    0.0000    0.0000    0.0000 C   0  0
    0.0000    0.0000    0.0000 O   0  0
    0.0000    0.0000    0.0000 C   0  0
    0.0000    0.0000    0.0000 C   0  0
    0.0000    0.0000    0.0000 C   0  0
    0.0000    0.0000    0.0000 O   0  0
    0.0000    0.0000    0.0000 C   0  0
    0.0000    0.0000    0.0000 C   0  0
    0.0000    0.0000    0.0000 C   0  0
    0.0000    0.0000    0.0000 C   0  0
    0.0000    0.0000    0.0000 C   0  0
    0.0000    0.0000    0.0000 O   0  0
  1  2  1  0
  2  3  1  0
  3  4  2  3
  4  5  1  0
  5  6  1  0
  6  7  1  0
  7  8  2  3
  8  9  1  0
  9 10  1  0
 10 11  1  0
 11 12  2  3
 12 13  1  0
 12 14  1  0
 14 15  2  3
 15  7  1  0
  5 16  2  3
 16 17  1  0
 17 18  2  3
 18  3  1  0
 18 19  1  0
M  END
> <Name>
4-(4'-hydroxy-3'-hydroxymethylbenzyl)-2-hydroxymethylphenol

> <SMILES>
OCc2cc(CC1=COCC=C(O)C=C1)ccc2O

> <Id>
99999-15-0

> <Activity>
POS

> <Predicted Value>
1      POS

> <Used>
1

> <Status>
Sensitizer

> <isSensitizer>
1

$$$$
2-Hydroxy-2-n-octoxybenzophenone
  SciTegic06161615552D

 24 25  0  0  0  0            999 V2000
    0.0000    0.0000    0.0000 C   0  0
    0.0000    0.0000    0.0000 C   0  0
    0.0000    0.0000    0.0000 C   0  0
    0.0000    0.0000    0.0000 C   0  0
    0.0000    0.0000    0.0000 C   0  0
    0.0000    0.0000    0.0000 C   0  0
    0.0000    0.0000    0.0000 C   0  0
    0.0000    0.0000    0.0000 C   0  0
    0.0000    0.0000    0.0000 O   0  0
    0.0000    0.0000    0.0000 C   0  0
    0.0000    0.0000    0.0000 C   0  0
    0.0000    0.0000    0.0000 C   0  0
    0.0000    0.0000    0.0000 C   0  0
    0.0000    0.0000    0.0000 C   0  0
    0.0000    0.0000    0.0000 O   0  0
    0.0000    0.0000    0.0000 C   0  0
    0.0000    0.0000    0.0000 C   0  0
    0.0000    0.0000    0.0000 C   0  0
    0.0000    0.0000    0.0000 C   0  0
    0.0000    0.0000    0.0000 C   0  0
    0.0000    0.0000    0.0000 C   0  0
    0.0000    0.0000    0.0000 C   0  0
    0.0000    0.0000    0.0000 O   0  0
    0.0000    0.0000    0.0000 C   0  0
  1  2  1  0
  2  3  1  0
  3  4  1  0
  4  5  1  0
  5  6  1  0
  6  7  1  0
  7  8  1  0
  8  9  1  0
  9 10  1  0
 10 11  2  3
 11 12  1  0
 12 13  2  3
 13 14  1  0
 14 15  2  0
 14 16  1  0
 16 17  2  3
 17 18  1  0
 18 19  2  3
 19 20  1  0
 20 21  2  3
 21 16  1  0
 13 22  1  0
 22 23  1  0
 22 24  2  3
 24 10  1  0
M  END
> <Name>
2-Hydroxy-2-n-octoxybenzophenone

> <SMILES>
CCCCCCCCOc2ccc(C(=O)c1ccccc1)c(O)c2

> <Reference>
SAR and QSAR in Env Res (1994) 2:159

> <Id>
CRO-137

> <Activity>
POS

> <Predicted Value>
1      POS

> <Used>
1

> <Status>
Sensitizer

> <isSensitizer>
1

$$$$
2-n-Octyl-4-isothiazolin-3-one
  SciTegic06161615552D

 14 14  0  0  0  0            999 V2000
    0.0000    0.0000    0.0000 C   0  0
    0.0000    0.0000    0.0000 C   0  0
    0.0000    0.0000    0.0000 C   0  0
    0.0000    0.0000    0.0000 C   0  0
    0.0000    0.0000    0.0000 C   0  0
    0.0000    0.0000    0.0000 C   0  0
    0.0000    0.0000    0.0000 C   0  0
    0.0000    0.0000    0.0000 C   0  0
    0.0000    0.0000    0.0000 N   0  0
    0.0000    0.0000    0.0000 S   0  0
    0.0000    0.0000    0.0000 C   0  0
    0.0000    0.0000    0.0000 C   0  0
    0.0000    0.0000    0.0000 C   0  0
    0.0000    0.0000    0.0000 O   0  0
  1  2  1  0
  2  3  1  0
  3  4  1  0
  4  5  1  0
  5  6  1  0
  6  7  1  0
  7  8  1  0
  8  9  1  0
  9 10  1  0
 10 11  1  0
 11 12  2  3
 12 13  1  0
 13  9  1  0
 13 14  2  0
M  END
> <Name>
2-n-Octyl-4-isothiazolin-3-one

> <SMILES>
CCCCCCCCn1sccc1=O

> <Reference>
SAR and QSAR in Env Res (1994) 2:159

> <Id>
26530-20-1

> <Activity>
POS

> <Predicted Value>
1      POS

> <Used>
1

> <Status>
Sensitizer

> <isSensitizer>
1

$$$$
Octylmethoxycinnamate
  SciTegic06161615552D

 21 21  0  0  0  0            999 V2000
    0.0000    0.0000    0.0000 C   0  0
    0.0000    0.0000    0.0000 C   0  0
    0.0000    0.0000    0.0000 C   0  0
    0.0000    0.0000    0.0000 C   0  0
    0.0000    0.0000    0.0000 C   0  0
    0.0000    0.0000    0.0000 C   0  0
    0.0000    0.0000    0.0000 C   0  0
    0.0000    0.0000    0.0000 C   0  0
    0.0000    0.0000    0.0000 O   0  0
    0.0000    0.0000    0.0000 C   0  0
    0.0000    0.0000    0.0000 O   0  0
    0.0000    0.0000    0.0000 C   0  0
    0.0000    0.0000    0.0000 C   0  0
    0.0000    0.0000    0.0000 C   0  0
    0.0000    0.0000    0.0000 C   0  0
    0.0000    0.0000    0.0000 C   0  0
    0.0000    0.0000    0.0000 C   0  0
    0.0000    0.0000    0.0000 O   0  0
    0.0000    0.0000    0.0000 C   0  0
    0.0000    0.0000    0.0000 C   0  0
    0.0000    0.0000    0.0000 C   0  0
  1  2  1  0
  2  3  1  0
  3  4  1  0
  4  5  1  0
  5  6  1  0
  6  7  1  0
  5  8  1  0
  8  9  1  0
  9 10  1  0
 10 11  2  0
 10 12  1  0
 12 13  2  3
 13 14  1  0
 14 15  2  3
 15 16  1  0
 16 17  2  3
 17 18  1  0
 18 19  1  0
 17 20  1  0
 20 21  2  3
 21 14  1  0
M  END
> <Name>
Octylmethoxycinnamate

> <SMILES>
CCCCC(CC)COC(=O)C=Cc1ccc(OC)cc1

> <Reference>
SAR and QSAR in Env Res (1994) 2:159

> <Id>
5466-77-3

> <Activity>
POS

> <Predicted Value>
0.887  POS

> <Used>
1

> <Status>
Sensitizer

> <isSensitizer>
1

$$$$
Allyl phenoxy acetate
  SciTegic06161615552D

 14 14  0  0  0  0            999 V2000
    0.0000    0.0000    0.0000 C   0  0
    0.0000    0.0000    0.0000 C   0  0
    0.0000    0.0000    0.0000 C   0  0
    0.0000    0.0000    0.0000 O   0  0
    0.0000    0.0000    0.0000 C   0  0
    0.0000    0.0000    0.0000 O   0  0
    0.0000    0.0000    0.0000 C   0  0
    0.0000    0.0000    0.0000 O   0  0
    0.0000    0.0000    0.0000 C   0  0
    0.0000    0.0000    0.0000 C   0  0
    0.0000    0.0000    0.0000 C   0  0
    0.0000    0.0000    0.0000 C   0  0
    0.0000    0.0000    0.0000 C   0  0
    0.0000    0.0000    0.0000 C   0  0
  1  2  2  0
  2  3  1  0
  3  4  1  0
  4  5  1  0
  5  6  2  0
  5  7  1  0
  7  8  1  0
  8  9  1  0
  9 10  2  3
 10 11  1  0
 11 12  2  3
 12 13  1  0
 13 14  2  3
 14  9  1  0
M  END
> <Name>
Allyl phenoxy acetate

> <SMILES>
C=CCOC(=O)COc1ccccc1

> <Reference>
SAR and QSAR in Env Res (1994) 2:159

> <Id>
7493-74-5

> <Activity>
NEG

> <Predicted Value>
0      NEG

> <Used>
1

> <Status>
Non-Sensitizer

> <isSensitizer>
0

$$$$
2-Nitro-1;4-phenylenediamine
  SciTegic06161615552D

 11 11  0  0  0  0            999 V2000
    0.0000    0.0000    0.0000 N   0  0
    0.0000    0.0000    0.0000 C   0  0
    0.0000    0.0000    0.0000 C   0  0
    0.0000    0.0000    0.0000 C   0  0
    0.0000    0.0000    0.0000 C   0  0
    0.0000    0.0000    0.0000 N   0  0
    0.0000    0.0000    0.0000 C   0  0
    0.0000    0.0000    0.0000 C   0  0
    0.0000    0.0000    0.0000 N   0  0
    0.0000    0.0000    0.0000 O   0  0
    0.0000    0.0000    0.0000 O   0  0
  1  2  1  0
  2  3  2  3
  3  4  1  0
  4  5  2  3
  5  6  1  0
  5  7  1  0
  7  8  2  3
  8  2  1  0
  7  9  1  0
  9 10  2  0
  9 11  2  0
M  END
> <Name>
2-Nitro-1;4-phenylenediamine

> <SMILES>
Nc1ccc(N)c(c1)N(=O)=O

> <Reference>
SAR and QSAR in Env Res (1994) 2:159

> <Id>
5307-14-2

> <Activity>
POS

> <Predicted Value>
1      POS

> <Used>
1

> <Status>
Sensitizer

> <isSensitizer>
1

$$$$
Dihydroeugenol
  SciTegic06161615552D

 12 12  0  0  0  0            999 V2000
    0.0000    0.0000    0.0000 C   0  0
    0.0000    0.0000    0.0000 C   0  0
    0.0000    0.0000    0.0000 C   0  0
    0.0000    0.0000    0.0000 C   0  0
    0.0000    0.0000    0.0000 C   0  0
    0.0000    0.0000    0.0000 C   0  0
    0.0000    0.0000    0.0000 C   0  0
    0.0000    0.0000    0.0000 O   0  0
    0.0000    0.0000    0.0000 C   0  0
    0.0000    0.0000    0.0000 O   0  0
    0.0000    0.0000    0.0000 C   0  0
    0.0000    0.0000    0.0000 C   0  0
  1  2  1  0
  2  3  1  0
  3  4  1  0
  4  5  2  3
  5  6  1  0
  6  7  2  3
  7  8  1  0
  7  9  1  0
  9 10  1  0
 10 11  1  0
  9 12  2  3
 12  4  1  0
M  END
> <Name>
Dihydroeugenol

> <SMILES>
CCCc1ccc(O)c(OC)c1

> <Reference>
Contact Dermatitis (1992) 27:98

> <Id>
2785-87-7

> <Activity>
POS

> <Predicted Value>
1      POS

> <Used>
1

> <Status>
Sensitizer

> <isSensitizer>
1

$$$$
Ethyl methyl phenyl glycidate
  SciTegic06161615552D

 15 16  0  0  0  0            999 V2000
    0.0000    0.0000    0.0000 C   0  0
    0.0000    0.0000    0.0000 C   0  0
    0.0000    0.0000    0.0000 O   0  0
    0.0000    0.0000    0.0000 C   0  0
    0.0000    0.0000    0.0000 O   0  0
    0.0000    0.0000    0.0000 C   0  0
    0.0000    0.0000    0.0000 O   0  0
    0.0000    0.0000    0.0000 C   0  0
    0.0000    0.0000    0.0000 C   0  0
    0.0000    0.0000    0.0000 C   0  0
    0.0000    0.0000    0.0000 C   0  0
    0.0000    0.0000    0.0000 C   0  0
    0.0000    0.0000    0.0000 C   0  0
    0.0000    0.0000    0.0000 C   0  0
    0.0000    0.0000    0.0000 C   0  0
  1  2  1  0
  2  3  1  0
  3  4  1  0
  4  5  2  0
  4  6  1  0
  6  7  1  0
  7  8  1  0
  8  6  1  0
  8  9  1  0
  8 10  1  0
 10 11  2  3
 11 12  1  0
 12 13  2  3
 13 14  1  0
 14 15  2  3
 15 10  1  0
M  END
> <Name>
Ethyl methyl phenyl glycidate

> <SMILES>
CCOC(=O)C1OC1(C)c2ccccc2

> <Reference>
SAR and QSAR in Env Res (1994) 2:159

> <Id>
77-83-8

> <Activity>
POS

> <Predicted Value>
1      POS

> <Used>
1

> <Status>
Sensitizer

> <isSensitizer>
1

$$$$
N'-(2-Hydroxyethyl)-2-nitro-4-phenylenediamine
  SciTegic06161615552D

 14 14  0  0  0  0            999 V2000
    0.0000    0.0000    0.0000 N   0  0
    0.0000    0.0000    0.0000 C   0  0
    0.0000    0.0000    0.0000 C   0  0
    0.0000    0.0000    0.0000 C   0  0
    0.0000    0.0000    0.0000 C   0  0
    0.0000    0.0000    0.0000 N   0  0
    0.0000    0.0000    0.0000 C   0  0
    0.0000    0.0000    0.0000 C   0  0
    0.0000    0.0000    0.0000 O   0  0
    0.0000    0.0000    0.0000 C   0  0
    0.0000    0.0000    0.0000 C   0  0
    0.0000    0.0000    0.0000 N   0  0
    0.0000    0.0000    0.0000 O   0  0
    0.0000    0.0000    0.0000 O   0  0
  1  2  1  0
  2  3  2  3
  3  4  1  0
  4  5  2  3
  5  6  1  0
  6  7  1  0
  7  8  1  0
  8  9  1  0
  5 10  1  0
 10 11  2  3
 11  2  1  0
 11 12  1  0
 12 13  2  0
 12 14  2  0
M  END
> <Name>
N'-(2-Hydroxyethyl)-2-nitro-4-phenylenediamine

> <SMILES>
Nc1ccc(NCCO)cc1N(=O)=O

> <Reference>
SAR and QSAR in Env Res (1994) 2:159

> <Id>
CRO-311

> <Activity>
POS

> <Predicted Value>
1      POS

> <Used>
1

> <Status>
Sensitizer

> <isSensitizer>
1

$$$$
Propylene glycol salicylate
  SciTegic06161615552D

 15 15  0  0  0  0            999 V2000
    0.0000    0.0000    0.0000 C   0  0
    0.0000    0.0000    0.0000 C   0  0
    0.0000    0.0000    0.0000 O   0  0
    0.0000    0.0000    0.0000 C   0  0
    0.0000    0.0000    0.0000 O   0  0
    0.0000    0.0000    0.0000 O   0  0
    0.0000    0.0000    0.0000 C   0  0
    0.0000    0.0000    0.0000 O   0  0
    0.0000    0.0000    0.0000 C   0  0
    0.0000    0.0000    0.0000 C   0  0
    0.0000    0.0000    0.0000 C   0  0
    0.0000    0.0000    0.0000 C   0  0
    0.0000    0.0000    0.0000 C   0  0
    0.0000    0.0000    0.0000 C   0  0
    0.0000    0.0000    0.0000 O   0  0
  1  2  1  0
  2  3  1  0
  2  4  1  0
  4  5  1  0
  5  6  1  0
  6  7  1  0
  7  8  2  0
  7  9  1  0
  9 10  2  3
 10 11  1  0
 11 12  2  3
 12 13  1  0
 13 14  2  3
 14  9  1  0
 14 15  1  0
M  END
> <Name>
Propylene glycol salicylate

> <SMILES>
CC(O)COOC(=O)c1ccccc1O

> <Reference>
SAR and QSAR in Env Res (1994) 2:159

> <Id>
CRO-234

> <Activity>
NEG

> <Predicted Value>
0      NEG

> <Used>
1

> <Status>
Non-Sensitizer

> <isSensitizer>
0

$$$$
N'-(2-Hydroxyethyl)-4-nitro-2-phenylenediamine
  SciTegic06161615552D

 14 14  0  0  0  0            999 V2000
    0.0000    0.0000    0.0000 N   0  0
    0.0000    0.0000    0.0000 C   0  0
    0.0000    0.0000    0.0000 C   0  0
    0.0000    0.0000    0.0000 C   0  0
    0.0000    0.0000    0.0000 C   0  0
    0.0000    0.0000    0.0000 C   0  0
    0.0000    0.0000    0.0000 C   0  0
    0.0000    0.0000    0.0000 N   0  0
    0.0000    0.0000    0.0000 C   0  0
    0.0000    0.0000    0.0000 C   0  0
    0.0000    0.0000    0.0000 O   0  0
    0.0000    0.0000    0.0000 N   0  0
    0.0000    0.0000    0.0000 O   0  0
    0.0000    0.0000    0.0000 O   0  0
  1  2  1  0
  2  3  2  3
  3  4  1  0
  4  5  2  3
  5  6  1  0
  6  7  2  3
  7  2  1  0
  7  8  1  0
  8  9  1  0
  9 10  1  0
 10 11  1  0
  5 12  1  0
 12 13  2  0
 12 14  2  0
M  END
> <Name>
N'-(2-Hydroxyethyl)-4-nitro-2-phenylenediamine

> <SMILES>
Nc1ccc(cc1NCCO)N(=O)=O

> <Reference>
SAR and QSAR in Env Res (1994) 2:159

> <Id>
CRO-312

> <Activity>
POS

> <Predicted Value>
1      POS

> <Used>
1

> <Status>
Sensitizer

> <isSensitizer>
1

$$$$
Ethylphenylglycidate
  SciTegic06161615552D

 14 15  0  0  0  0            999 V2000
    0.0000    0.0000    0.0000 C   0  0
    0.0000    0.0000    0.0000 C   0  0
    0.0000    0.0000    0.0000 O   0  0
    0.0000    0.0000    0.0000 C   0  0
    0.0000    0.0000    0.0000 O   0  0
    0.0000    0.0000    0.0000 C   0  0
    0.0000    0.0000    0.0000 O   0  0
    0.0000    0.0000    0.0000 C   0  0
    0.0000    0.0000    0.0000 C   0  0
    0.0000    0.0000    0.0000 C   0  0
    0.0000    0.0000    0.0000 C   0  0
    0.0000    0.0000    0.0000 C   0  0
    0.0000    0.0000    0.0000 C   0  0
    0.0000    0.0000    0.0000 C   0  0
  1  2  1  0
  2  3  1  0
  3  4  1  0
  4  5  2  0
  4  6  1  0
  6  7  1  0
  7  8  1  0
  8  6  1  0
  8  9  1  0
  9 10  2  3
 10 11  1  0
 11 12  2  3
 12 13  1  0
 13 14  2  3
 14  9  1  0
M  END
> <Name>
Ethylphenylglycidate

> <SMILES>
CCOC(=O)C1OC1c2ccccc2

> <Reference>
SAR and QSAR in Env Res (1994) 2:159

> <Id>
121-39-1

> <Activity>
POS

> <Predicted Value>
1      POS

> <Used>
1

> <Status>
Sensitizer

> <isSensitizer>
1

$$$$
Benzoyloxy-.alpha.-cresylsulphate
  SciTegic06161615552D

 21 22  0  0  0  0            999 V2000
    0.0000    0.0000    0.0000 O   0  0
    0.0000    0.0000    0.0000 S   0  0
    0.0000    0.0000    0.0000 O   0  0
    0.0000    0.0000    0.0000 O   0  0
    0.0000    0.0000    0.0000 O   0  0
    0.0000    0.0000    0.0000 C   0  0
    0.0000    0.0000    0.0000 C   0  0
    0.0000    0.0000    0.0000 C   0  0
    0.0000    0.0000    0.0000 C   0  0
    0.0000    0.0000    0.0000 C   0  0
    0.0000    0.0000    0.0000 C   0  0
    0.0000    0.0000    0.0000 C   0  0
    0.0000    0.0000    0.0000 O   0  0
    0.0000    0.0000    0.0000 C   0  0
    0.0000    0.0000    0.0000 O   0  0
    0.0000    0.0000    0.0000 C   0  0
    0.0000    0.0000    0.0000 C   0  0
    0.0000    0.0000    0.0000 C   0  0
    0.0000    0.0000    0.0000 C   0  0
    0.0000    0.0000    0.0000 C   0  0
    0.0000    0.0000    0.0000 C   0  0
  1  2  1  0
  2  3  2  0
  2  4  2  0
  2  5  1  0
  5  6  1  0
  6  7  2  3
  7  8  1  0
  8  9  2  3
  9 10  1  0
 10 11  2  3
 11  6  1  0
 11 12  1  0
 12 13  1  0
 13 14  1  0
 14 15  2  0
 14 16  1  0
 16 17  2  3
 17 18  1  0
 18 19  2  3
 19 20  1  0
 20 21  2  3
 21 16  1  0
M  END
> <Name>
Benzoyloxy-.alpha.-cresylsulphate

> <SMILES>
OS(=O)(=O)Oc1ccccc1COC(=O)c2ccccc2

> <Reference>
SAR and QSAR in Env Res (1994) 2:159

> <Id>
CRO-226

> <Activity>
POS

> <Predicted Value>
0.978  POS

> <Used>
1

> <Status>
Sensitizer

> <isSensitizer>
1

$$$$
Anther
  SciTegic06161615552D

 14 14  0  0  0  0            999 V2000
    0.0000    0.0000    0.0000 C   0  0
    0.0000    0.0000    0.0000 C   0  0
    0.0000    0.0000    0.0000 C   0  0
    0.0000    0.0000    0.0000 C   0  0
    0.0000    0.0000    0.0000 C   0  0
    0.0000    0.0000    0.0000 O   0  0
    0.0000    0.0000    0.0000 C   0  0
    0.0000    0.0000    0.0000 C   0  0
    0.0000    0.0000    0.0000 C   0  0
    0.0000    0.0000    0.0000 C   0  0
    0.0000    0.0000    0.0000 C   0  0
    0.0000    0.0000    0.0000 C   0  0
    0.0000    0.0000    0.0000 C   0  0
    0.0000    0.0000    0.0000 C   0  0
  1  2  1  0
  2  3  1  0
  2  4  1  0
  4  5  1  0
  5  6  1  0
  6  7  1  0
  7  8  1  0
  8  9  1  0
  9 10  2  3
 10 11  1  0
 11 12  2  3
 12 13  1  0
 13 14  2  3
 14  9  1  0
M  END
> <Name>
Anther

> <SMILES>
CC(C)CCOCCc1ccccc1

> <Reference>
SAR and QSAR in Env Res (1994) 2:159

> <Id>
56011-02-0

> <Activity>
POS

> <Predicted Value>
1      POS

> <Used>
1

> <Status>
Sensitizer

> <isSensitizer>
1

$$$$
Disperse red 1
  SciTegic06161615552D

 23 24  0  0  0  0            999 V2000
    0.0000    0.0000    0.0000 C   0  0
    0.0000    0.0000    0.0000 C   0  0
    0.0000    0.0000    0.0000 N   0  0
    0.0000    0.0000    0.0000 C   0  0
    0.0000    0.0000    0.0000 C   0  0
    0.0000    0.0000    0.0000 O   0  0
    0.0000    0.0000    0.0000 C   0  0
    0.0000    0.0000    0.0000 C   0  0
    0.0000    0.0000    0.0000 C   0  0
    0.0000    0.0000    0.0000 C   0  0
    0.0000    0.0000    0.0000 N   0  0
    0.0000    0.0000    0.0000 N   0  0
    0.0000    0.0000    0.0000 C   0  0
    0.0000    0.0000    0.0000 C   0  0
    0.0000    0.0000    0.0000 C   0  0
    0.0000    0.0000    0.0000 C   0  0
    0.0000    0.0000    0.0000 C   0  0
    0.0000    0.0000    0.0000 C   0  0
    0.0000    0.0000    0.0000 N   0  0
    0.0000    0.0000    0.0000 O   0  0
    0.0000    0.0000    0.0000 O   0  0
    0.0000    0.0000    0.0000 C   0  0
    0.0000    0.0000    0.0000 C   0  0
  1  2  1  0
  2  3  1  0
  3  4  1  0
  4  5  1  0
  5  6  1  0
  3  7  1  0
  7  8  2  3
  8  9  1  0
  9 10  2  3
 10 11  1  0
 11 12  2  3
 12 13  1  0
 13 14  2  3
 14 15  1  0
 15 16  2  3
 16 17  1  0
 17 18  2  3
 18 13  1  0
 16 19  1  0
 19 20  2  0
 19 21  2  0
 10 22  1  0
 22 23  2  3
 23  7  1  0
M  END
> <Name>
Disperse red 1

> <SMILES>
CCN(CCO)c2ccc(N=Nc1ccc(cc1)N(=O)=O)cc2

> <Reference>
Contact Dermatitis (1989) 20:27

> <Id>
2872-52-8

> <Activity>
POS

> <Predicted Value>
0.276  NEG

> <Used>
1

> <Status>
Sensitizer

> <isSensitizer>
1

$$$$
Guaifenesin
  SciTegic06161615552D

 14 14  0  0  0  0            999 V2000
    0.0000    0.0000    0.0000 C   0  0
    0.0000    0.0000    0.0000 O   0  0
    0.0000    0.0000    0.0000 C   0  0
    0.0000    0.0000    0.0000 C   0  0
    0.0000    0.0000    0.0000 C   0  0
    0.0000    0.0000    0.0000 C   0  0
    0.0000    0.0000    0.0000 C   0  0
    0.0000    0.0000    0.0000 C   0  0
    0.0000    0.0000    0.0000 O   0  0
    0.0000    0.0000    0.0000 C   0  0
    0.0000    0.0000    0.0000 C   0  0
    0.0000    0.0000    0.0000 O   0  0
    0.0000    0.0000    0.0000 C   0  0
    0.0000    0.0000    0.0000 O   0  0
  1  2  1  0
  2  3  1  0
  3  4  2  3
  4  5  1  0
  5  6  2  3
  6  7  1  0
  7  8  2  3
  8  3  1  0
  8  9  1  0
  9 10  1  0
 10 11  1  0
 11 12  1  0
 11 13  1  0
 13 14  1  0
M  END
> <Name>
Guaifenesin

> <SMILES>
COc1ccccc1OCC(O)CO

> <Reference>
Howard I Maibach (priv comm)

> <Id>
93-14-1

> <Activity>
NEG

> <Predicted Value>
0      NEG

> <Used>
1

> <Status>
Non-Sensitizer

> <isSensitizer>
0

$$$$
Vanillin
  SciTegic06161615552D

 11 11  0  0  0  0            999 V2000
    0.0000    0.0000    0.0000 C   0  0
    0.0000    0.0000    0.0000 O   0  0
    0.0000    0.0000    0.0000 C   0  0
    0.0000    0.0000    0.0000 C   0  0
    0.0000    0.0000    0.0000 C   0  0
    0.0000    0.0000    0.0000 C   0  0
    0.0000    0.0000    0.0000 O   0  0
    0.0000    0.0000    0.0000 C   0  0
    0.0000    0.0000    0.0000 C   0  0
    0.0000    0.0000    0.0000 C   0  0
    0.0000    0.0000    0.0000 O   0  0
  1  2  1  0
  2  3  1  0
  3  4  2  3
  4  5  1  0
  5  6  1  0
  6  7  2  0
  5  8  2  3
  8  9  1  0
  9 10  2  3
 10  3  1  0
 10 11  1  0
M  END
> <Name>
Vanillin

> <SMILES>
COc1cc(C=O)ccc1O

> <Reference>
SAR and QSAR in Env Res (1994) 2:159

> <Id>
121-33-5

> <Activity>
POS

> <Predicted Value>
1      POS

> <Used>
1

> <Status>
Sensitizer

> <isSensitizer>
1

$$$$
Methyl salicylate
  SciTegic06161615552D

 11 11  0  0  0  0            999 V2000
    0.0000    0.0000    0.0000 C   0  0
    0.0000    0.0000    0.0000 O   0  0
    0.0000    0.0000    0.0000 C   0  0
    0.0000    0.0000    0.0000 O   0  0
    0.0000    0.0000    0.0000 C   0  0
    0.0000    0.0000    0.0000 C   0  0
    0.0000    0.0000    0.0000 C   0  0
    0.0000    0.0000    0.0000 C   0  0
    0.0000    0.0000    0.0000 C   0  0
    0.0000    0.0000    0.0000 C   0  0
    0.0000    0.0000    0.0000 O   0  0
  1  2  1  0
  2  3  1  0
  3  4  2  0
  3  5  1  0
  5  6  2  3
  6  7  1  0
  7  8  2  3
  8  9  1  0
  9 10  2  3
 10  5  1  0
 10 11  1  0
M  END
> <Name>
Methyl salicylate

> <SMILES>
COC(=O)c1ccccc1O

> <Reference>
SAR and QSAR in Env Res (1994) 2:159

> <Id>
119-36-8

> <Activity>
NEG

> <Predicted Value>
0      NEG

> <Used>
1

> <Status>
Non-Sensitizer

> <isSensitizer>
0

$$$$
Methylbenzoyloxybenzene sulfonate
  SciTegic06161615552D

 20 21  0  0  0  0            999 V2000
    0.0000    0.0000    0.0000 C   0  0
    0.0000    0.0000    0.0000 C   0  0
    0.0000    0.0000    0.0000 C   0  0
    0.0000    0.0000    0.0000 C   0  0
    0.0000    0.0000    0.0000 C   0  0
    0.0000    0.0000    0.0000 C   0  0
    0.0000    0.0000    0.0000 C   0  0
    0.0000    0.0000    0.0000 C   0  0
    0.0000    0.0000    0.0000 O   0  0
    0.0000    0.0000    0.0000 O   0  0
    0.0000    0.0000    0.0000 C   0  0
    0.0000    0.0000    0.0000 C   0  0
    0.0000    0.0000    0.0000 C   0  0
    0.0000    0.0000    0.0000 C   0  0
    0.0000    0.0000    0.0000 C   0  0
    0.0000    0.0000    0.0000 C   0  0
    0.0000    0.0000    0.0000 S   0  0
    0.0000    0.0000    0.0000 O   0  0
    0.0000    0.0000    0.0000 O   0  0
    0.0000    0.0000    0.0000 O   0  0
  1  2  1  0
  2  3  2  3
  3  4  1  0
  4  5  2  3
  5  6  1  0
  6  7  2  3
  7  2  1  0
  7  8  1  0
  8  9  2  0
  8 10  1  0
 10 11  1  0
 11 12  2  3
 12 13  1  0
 13 14  2  3
 14 15  1  0
 15 16  2  3
 16 11  1  0
  5 17  1  0
 17 18  1  0
 17 19  2  0
 17 20  2  0
M  END
> <Name>
Methylbenzoyloxybenzene sulfonate

> <SMILES>
Cc1ccc(cc1C(=O)Oc2ccccc2)S(O)(=O)=O

> <Reference>
SAR and QSAR in Env Res (1994) 2:159

> <Id>
CRO-252

> <Activity>
POS

> <Predicted Value>
0.997  POS

> <Used>
1

> <Status>
Sensitizer

> <isSensitizer>
1

$$$$
Carboxymethyl-4-methoxythiobenzoate
  SciTegic06161615552D

 15 15  0  0  0  0            999 V2000
    0.0000    0.0000    0.0000 C   0  0
    0.0000    0.0000    0.0000 O   0  0
    0.0000    0.0000    0.0000 C   0  0
    0.0000    0.0000    0.0000 C   0  0
    0.0000    0.0000    0.0000 C   0  0
    0.0000    0.0000    0.0000 C   0  0
    0.0000    0.0000    0.0000 C   0  0
    0.0000    0.0000    0.0000 C   0  0
    0.0000    0.0000    0.0000 C   0  0
    0.0000    0.0000    0.0000 S   0  0
    0.0000    0.0000    0.0000 S   0  0
    0.0000    0.0000    0.0000 C   0  0
    0.0000    0.0000    0.0000 C   0  0
    0.0000    0.0000    0.0000 O   0  0
    0.0000    0.0000    0.0000 O   0  0
  1  2  1  0
  2  3  1  0
  3  4  2  3
  4  5  1  0
  5  6  2  3
  6  7  1  0
  7  8  2  3
  8  3  1  0
  6  9  1  0
  9 10  2  0
  9 11  1  0
 11 12  1  0
 12 13  1  0
 13 14  1  0
 13 15  2  0
M  END
> <Name>
Carboxymethyl-4-methoxythiobenzoate

> <SMILES>
COc1ccc(cc1)C(=S)SCC(O)=O

> <Reference>
SAR and QSAR in Env Res (1994) 2:159

> <Id>
CRO-243

> <Activity>
POS

> <Predicted Value>
0.976  POS

> <Used>
1

> <Status>
Sensitizer

> <isSensitizer>
1

$$$$
Octyl gallate
  SciTegic06161615552D

 20 20  0  0  0  0            999 V2000
    0.0000    0.0000    0.0000 C   0  0
    0.0000    0.0000    0.0000 C   0  0
    0.0000    0.0000    0.0000 C   0  0
    0.0000    0.0000    0.0000 C   0  0
    0.0000    0.0000    0.0000 C   0  0
    0.0000    0.0000    0.0000 C   0  0
    0.0000    0.0000    0.0000 C   0  0
    0.0000    0.0000    0.0000 C   0  0
    0.0000    0.0000    0.0000 O   0  0
    0.0000    0.0000    0.0000 C   0  0
    0.0000    0.0000    0.0000 O   0  0
    0.0000    0.0000    0.0000 C   0  0
    0.0000    0.0000    0.0000 C   0  0
    0.0000    0.0000    0.0000 C   0  0
    0.0000    0.0000    0.0000 O   0  0
    0.0000    0.0000    0.0000 C   0  0
    0.0000    0.0000    0.0000 O   0  0
    0.0000    0.0000    0.0000 C   0  0
    0.0000    0.0000    0.0000 O   0  0
    0.0000    0.0000    0.0000 C   0  0
  1  2  1  0
  2  3  1  0
  3  4  1  0
  4  5  1  0
  5  6  1  0
  6  7  1  0
  7  8  1  0
  8  9  1  0
  9 10  1  0
 10 11  2  0
 10 12  1  0
 12 13  2  3
 13 14  1  0
 14 15  1  0
 14 16  2  3
 16 17  1  0
 16 18  1  0
 18 19  1  0
 18 20  2  3
 20 12  1  0
M  END
> <Name>
Octyl gallate

> <SMILES>
CCCCCCCCOC(=O)c1cc(O)c(O)c(O)c1

> <Reference>
Contact Dermatitis (1992) 26:253

> <Id>
1034-01-1

> <Activity>
POS

> <Predicted Value>
1      POS

> <Used>
1

> <Status>
Sensitizer

> <isSensitizer>
1

$$$$
Dodecyl (lauryl) gallate
  SciTegic06161615552D

 24 24  0  0  0  0            999 V2000
    0.0000    0.0000    0.0000 C   0  0
    0.0000    0.0000    0.0000 C   0  0
    0.0000    0.0000    0.0000 C   0  0
    0.0000    0.0000    0.0000 C   0  0
    0.0000    0.0000    0.0000 C   0  0
    0.0000    0.0000    0.0000 C   0  0
    0.0000    0.0000    0.0000 C   0  0
    0.0000    0.0000    0.0000 C   0  0
    0.0000    0.0000    0.0000 C   0  0
    0.0000    0.0000    0.0000 C   0  0
    0.0000    0.0000    0.0000 C   0  0
    0.0000    0.0000    0.0000 C   0  0
    0.0000    0.0000    0.0000 O   0  0
    0.0000    0.0000    0.0000 C   0  0
    0.0000    0.0000    0.0000 O   0  0
    0.0000    0.0000    0.0000 C   0  0
    0.0000    0.0000    0.0000 C   0  0
    0.0000    0.0000    0.0000 C   0  0
    0.0000    0.0000    0.0000 O   0  0
    0.0000    0.0000    0.0000 C   0  0
    0.0000    0.0000    0.0000 O   0  0
    0.0000    0.0000    0.0000 C   0  0
    0.0000    0.0000    0.0000 O   0  0
    0.0000    0.0000    0.0000 C   0  0
  1  2  1  0
  2  3  1  0
  3  4  1  0
  4  5  1  0
  5  6  1  0
  6  7  1  0
  7  8  1  0
  8  9  1  0
  9 10  1  0
 10 11  1  0
 11 12  1  0
 12 13  1  0
 13 14  1  0
 14 15  2  0
 14 16  1  0
 16 17  2  3
 17 18  1  0
 18 19  1  0
 18 20  2  3
 20 21  1  0
 20 22  1  0
 22 23  1  0
 22 24  2  3
 24 16  1  0
M  END
> <Name>
Dodecyl (lauryl) gallate

> <SMILES>
CCCCCCCCCCCCOC(=O)c1cc(O)c(O)c(O)c1

> <Reference>
Contact Dermatitis (1992) 26:253

> <Id>
1166-52-5

> <Activity>
POS

> <Predicted Value>
1      POS

> <Used>
1

> <Status>
Sensitizer

> <isSensitizer>
1

$$$$
Hexadecyl (cetyl) gallate
  SciTegic06161615552D

 28 28  0  0  0  0            999 V2000
    0.0000    0.0000    0.0000 C   0  0
    0.0000    0.0000    0.0000 C   0  0
    0.0000    0.0000    0.0000 C   0  0
    0.0000    0.0000    0.0000 C   0  0
    0.0000    0.0000    0.0000 C   0  0
    0.0000    0.0000    0.0000 C   0  0
    0.0000    0.0000    0.0000 C   0  0
    0.0000    0.0000    0.0000 C   0  0
    0.0000    0.0000    0.0000 C   0  0
    0.0000    0.0000    0.0000 C   0  0
    0.0000    0.0000    0.0000 C   0  0
    0.0000    0.0000    0.0000 C   0  0
    0.0000    0.0000    0.0000 C   0  0
    0.0000    0.0000    0.0000 C   0  0
    0.0000    0.0000    0.0000 C   0  0
    0.0000    0.0000    0.0000 C   0  0
    0.0000    0.0000    0.0000 O   0  0
    0.0000    0.0000    0.0000 C   0  0
    0.0000    0.0000    0.0000 O   0  0
    0.0000    0.0000    0.0000 C   0  0
    0.0000    0.0000    0.0000 C   0  0
    0.0000    0.0000    0.0000 C   0  0
    0.0000    0.0000    0.0000 O   0  0
    0.0000    0.0000    0.0000 C   0  0
    0.0000    0.0000    0.0000 O   0  0
    0.0000    0.0000    0.0000 C   0  0
    0.0000    0.0000    0.0000 O   0  0
    0.0000    0.0000    0.0000 C   0  0
  1  2  1  0
  2  3  1  0
  3  4  1  0
  4  5  1  0
  5  6  1  0
  6  7  1  0
  7  8  1  0
  8  9  1  0
  9 10  1  0
 10 11  1  0
 11 12  1  0
 12 13  1  0
 13 14  1  0
 14 15  1  0
 15 16  1  0
 16 17  1  0
 17 18  1  0
 18 19  2  0
 18 20  1  0
 20 21  2  3
 21 22  1  0
 22 23  1  0
 22 24  2  3
 24 25  1  0
 24 26  1  0
 26 27  1  0
 26 28  2  3
 28 20  1  0
M  END
> <Name>
Hexadecyl (cetyl) gallate

> <SMILES>
CCCCCCCCCCCCCCCCOC(=O)c1cc(O)c(O)c(O)c1

> <Reference>
Contact Dermatitis (1992) 26:253

> <Id>
5026-65-3

> <Activity>
POS

> <Predicted Value>
1      POS

> <Used>
1

> <Status>
Sensitizer

> <isSensitizer>
1

$$$$
1;2;4-Benzene Tricarboxylic anhydride
  SciTegic06161615552D

 14 15  0  0  0  0            999 V2000
    0.0000    0.0000    0.0000 O   0  0
    0.0000    0.0000    0.0000 C   0  0
    0.0000    0.0000    0.0000 O   0  0
    0.0000    0.0000    0.0000 C   0  0
    0.0000    0.0000    0.0000 C   0  0
    0.0000    0.0000    0.0000 C   0  0
    0.0000    0.0000    0.0000 C   0  0
    0.0000    0.0000    0.0000 C   0  0
    0.0000    0.0000    0.0000 O   0  0
    0.0000    0.0000    0.0000 O   0  0
    0.0000    0.0000    0.0000 C   0  0
    0.0000    0.0000    0.0000 O   0  0
    0.0000    0.0000    0.0000 C   0  0
    0.0000    0.0000    0.0000 C   0  0
  1  2  1  0
  2  3  2  0
  2  4  1  0
  4  5  2  3
  5  6  1  0
  6  7  2  3
  7  8  1  0
  8  9  2  0
  8 10  1  0
 10 11  1  0
 11 12  2  0
 11 13  1  0
 13  7  1  0
 13 14  2  3
 14  4  1  0
M  END
> <Name>
1;2;4-Benzene Tricarboxylic anhydride

> <SMILES>
OC(=O)c2ccc1C(=O)OC(=O)c1c2

> <Reference>
SAR and QSAR in Env Res (1994) 2:159

> <Id>
552-30-7

> <Activity>
POS

> <Predicted Value>
1      POS

> <Used>
1

> <Status>
Sensitizer

> <isSensitizer>
1

$$$$
Butyl gallate
  SciTegic06161615552D

 16 16  0  0  0  0            999 V2000
    0.0000    0.0000    0.0000 C   0  0
    0.0000    0.0000    0.0000 C   0  0
    0.0000    0.0000    0.0000 C   0  0
    0.0000    0.0000    0.0000 C   0  0
    0.0000    0.0000    0.0000 O   0  0
    0.0000    0.0000    0.0000 C   0  0
    0.0000    0.0000    0.0000 O   0  0
    0.0000    0.0000    0.0000 C   0  0
    0.0000    0.0000    0.0000 C   0  0
    0.0000    0.0000    0.0000 C   0  0
    0.0000    0.0000    0.0000 O   0  0
    0.0000    0.0000    0.0000 C   0  0
    0.0000    0.0000    0.0000 O   0  0
    0.0000    0.0000    0.0000 C   0  0
    0.0000    0.0000    0.0000 O   0  0
    0.0000    0.0000    0.0000 C   0  0
  1  2  1  0
  2  3  1  0
  3  4  1  0
  4  5  1  0
  5  6  1  0
  6  7  2  0
  6  8  1  0
  8  9  2  3
  9 10  1  0
 10 11  1  0
 10 12  2  3
 12 13  1  0
 12 14  1  0
 14 15  1  0
 14 16  2  3
 16  8  1  0
M  END
> <Name>
Butyl gallate

> <SMILES>
CCCCOC(=O)c1cc(O)c(O)c(O)c1

> <Reference>
Contact Dermatitis (1992) 26:253

> <Id>
1083-41-6

> <Activity>
POS

> <Predicted Value>
1      POS

> <Used>
1

> <Status>
Sensitizer

> <isSensitizer>
1

$$$$
Benzyloxybenzene disulfate
  SciTegic06161615552D

 23 24  0  0  0  0            999 V2000
    0.0000    0.0000    0.0000 O   0  0
    0.0000    0.0000    0.0000 S   0  0
    0.0000    0.0000    0.0000 O   0  0
    0.0000    0.0000    0.0000 O   0  0
    0.0000    0.0000    0.0000 C   0  0
    0.0000    0.0000    0.0000 C   0  0
    0.0000    0.0000    0.0000 C   0  0
    0.0000    0.0000    0.0000 C   0  0
    0.0000    0.0000    0.0000 C   0  0
    0.0000    0.0000    0.0000 O   0  0
    0.0000    0.0000    0.0000 O   0  0
    0.0000    0.0000    0.0000 C   0  0
    0.0000    0.0000    0.0000 C   0  0
    0.0000    0.0000    0.0000 C   0  0
    0.0000    0.0000    0.0000 C   0  0
    0.0000    0.0000    0.0000 C   0  0
    0.0000    0.0000    0.0000 C   0  0
    0.0000    0.0000    0.0000 C   0  0
    0.0000    0.0000    0.0000 C   0  0
    0.0000    0.0000    0.0000 S   0  0
    0.0000    0.0000    0.0000 O   0  0
    0.0000    0.0000    0.0000 O   0  0
    0.0000    0.0000    0.0000 O   0  0
  1  2  1  0
  2  3  2  0
  2  4  2  0
  2  5  1  0
  5  6  2  3
  6  7  1  0
  7  8  2  3
  8  9  1  0
  9 10  2  0
  9 11  1  0
 11 12  1  0
 12 13  2  3
 13 14  1  0
 14 15  2  3
 15 16  1  0
 16 17  2  3
 17 12  1  0
  8 18  1  0
 18 19  2  3
 19  5  1  0
 18 20  1  0
 20 21  1  0
 20 22  2  0
 20 23  2  0
M  END
> <Name>
Benzyloxybenzene disulfate

> <SMILES>
OS(=O)(=O)c2ccc(C(=O)Oc1ccccc1)c(c2)S(O)(=O)=O

> <Reference>
SAR and QSAR in Env Res (1994) 2:159

> <Id>
CRO-171

> <Activity>
POS

> <Predicted Value>
0.99   POS

> <Used>
1

> <Status>
Sensitizer

> <isSensitizer>
1

$$$$
2-Phenoxyethanol
  SciTegic06161615552D

 10 10  0  0  0  0            999 V2000
    0.0000    0.0000    0.0000 O   0  0
    0.0000    0.0000    0.0000 C   0  0
    0.0000    0.0000    0.0000 C   0  0
    0.0000    0.0000    0.0000 O   0  0
    0.0000    0.0000    0.0000 C   0  0
    0.0000    0.0000    0.0000 C   0  0
    0.0000    0.0000    0.0000 C   0  0
    0.0000    0.0000    0.0000 C   0  0
    0.0000    0.0000    0.0000 C   0  0
    0.0000    0.0000    0.0000 C   0  0
  1  2  1  0
  2  3  1  0
  3  4  1  0
  4  5  1  0
  5  6  2  3
  6  7  1  0
  7  8  2  3
  8  9  1  0
  9 10  2  3
 10  5  1  0
M  END
> <Name>
2-Phenoxyethanol

> <SMILES>
OCCOc1ccccc1

> <Reference>
Contact Dermatitis (1993) 28:149

> <Id>
122-99-6

> <Activity>
POS

> <Predicted Value>
0.162  NEG

> <Used>
0

> <Status>
Sensitizer

> <isSensitizer>
1

$$$$
Phenoxypropanol
  SciTegic06161615552D

 11 11  0  0  0  0            999 V2000
    0.0000    0.0000    0.0000 O   0  0
    0.0000    0.0000    0.0000 C   0  0
    0.0000    0.0000    0.0000 C   0  0
    0.0000    0.0000    0.0000 C   0  0
    0.0000    0.0000    0.0000 O   0  0
    0.0000    0.0000    0.0000 C   0  0
    0.0000    0.0000    0.0000 C   0  0
    0.0000    0.0000    0.0000 C   0  0
    0.0000    0.0000    0.0000 C   0  0
    0.0000    0.0000    0.0000 C   0  0
    0.0000    0.0000    0.0000 C   0  0
  1  2  1  0
  2  3  1  0
  3  4  1  0
  4  5  1  0
  5  6  1  0
  6  7  2  3
  7  8  1  0
  8  9  2  3
  9 10  1  0
 10 11  2  3
 11  6  1  0
M  END
> <Name>
Phenoxypropanol

> <SMILES>
OCCCOc1ccccc1

> <Reference>
SAR and QSAR in Env Res (1994) 2:159

> <Id>
CRO-153

> <Activity>
NEG

> <Predicted Value>
0.683  IND

> <Used>
1

> <Status>
Non-Sensitizer

> <isSensitizer>
0

$$$$
Toluene-2;4-diisocyanate
  SciTegic06161615552D

 13 13  0  0  0  0            999 V2000
    0.0000    0.0000    0.0000 C   0  0
    0.0000    0.0000    0.0000 C   0  0
    0.0000    0.0000    0.0000 C   0  0
    0.0000    0.0000    0.0000 C   0  0
    0.0000    0.0000    0.0000 C   0  0
    0.0000    0.0000    0.0000 N   0  0
    0.0000    0.0000    0.0000 C   0  0
    0.0000    0.0000    0.0000 O   0  0
    0.0000    0.0000    0.0000 C   0  0
    0.0000    0.0000    0.0000 C   0  0
    0.0000    0.0000    0.0000 N   0  0
    0.0000    0.0000    0.0000 C   0  0
    0.0000    0.0000    0.0000 O   0  0
  1  2  1  0
  2  3  2  3
  3  4  1  0
  4  5  2  3
  5  6  1  0
  6  7  2  3
  7  8  2  0
  5  9  1  0
  9 10  2  3
 10  2  1  0
 10 11  1  0
 11 12  2  3
 12 13  2  0
M  END
> <Name>
Toluene-2;4-diisocyanate

> <SMILES>
Cc1ccc(N=C=O)cc1N=C=O

> <Reference>
Brit J Indus Med (1983) 40:241

> <Id>
584-84-9

> <Activity>
POS

> <Predicted Value>
1      POS

> <Used>
1

> <Status>
Sensitizer

> <isSensitizer>
1

$$$$
Propyl gallate
  SciTegic06161615552D

 15 15  0  0  0  0            999 V2000
    0.0000    0.0000    0.0000 C   0  0
    0.0000    0.0000    0.0000 C   0  0
    0.0000    0.0000    0.0000 C   0  0
    0.0000    0.0000    0.0000 O   0  0
    0.0000    0.0000    0.0000 C   0  0
    0.0000    0.0000    0.0000 O   0  0
    0.0000    0.0000    0.0000 C   0  0
    0.0000    0.0000    0.0000 C   0  0
    0.0000    0.0000    0.0000 C   0  0
    0.0000    0.0000    0.0000 O   0  0
    0.0000    0.0000    0.0000 C   0  0
    0.0000    0.0000    0.0000 O   0  0
    0.0000    0.0000    0.0000 C   0  0
    0.0000    0.0000    0.0000 O   0  0
    0.0000    0.0000    0.0000 C   0  0
  1  2  1  0
  2  3  1  0
  3  4  1  0
  4  5  1  0
  5  6  2  0
  5  7  1  0
  7  8  2  3
  8  9  1  0
  9 10  1  0
  9 11  2  3
 11 12  1  0
 11 13  1  0
 13 14  1  0
 13 15  2  3
 15  7  1  0
M  END
> <Name>
Propyl gallate

> <SMILES>
CCCOC(=O)c1cc(O)c(O)c(O)c1

> <Reference>
Contact Dermatitis (1992) 26:253

> <Id>
121-79-9

> <Activity>
POS

> <Predicted Value>
0.999  POS

> <Used>
1

> <Status>
Sensitizer

> <isSensitizer>
1

$$$$
Benzyloxy-2-methoxy-5-benzenesulfate
  SciTegic06161615552D

 21 22  0  0  0  0            999 V2000
    0.0000    0.0000    0.0000 C   0  0
    0.0000    0.0000    0.0000 O   0  0
    0.0000    0.0000    0.0000 C   0  0
    0.0000    0.0000    0.0000 C   0  0
    0.0000    0.0000    0.0000 C   0  0
    0.0000    0.0000    0.0000 C   0  0
    0.0000    0.0000    0.0000 C   0  0
    0.0000    0.0000    0.0000 C   0  0
    0.0000    0.0000    0.0000 O   0  0
    0.0000    0.0000    0.0000 C   0  0
    0.0000    0.0000    0.0000 O   0  0
    0.0000    0.0000    0.0000 C   0  0
    0.0000    0.0000    0.0000 C   0  0
    0.0000    0.0000    0.0000 C   0  0
    0.0000    0.0000    0.0000 C   0  0
    0.0000    0.0000    0.0000 C   0  0
    0.0000    0.0000    0.0000 C   0  0
    0.0000    0.0000    0.0000 S   0  0
    0.0000    0.0000    0.0000 O   0  0
    0.0000    0.0000    0.0000 O   0  0
    0.0000    0.0000    0.0000 O   0  0
  1  2  1  0
  2  3  1  0
  3  4  2  3
  4  5  1  0
  5  6  2  3
  6  7  1  0
  7  8  2  3
  8  3  1  0
  8  9  1  0
  9 10  1  0
 10 11  2  0
 10 12  1  0
 12 13  2  3
 13 14  1  0
 14 15  2  3
 15 16  1  0
 16 17  2  3
 17 12  1  0
  6 18  1  0
 18 19  1  0
 18 20  2  0
 18 21  2  0
M  END
> <Name>
Benzyloxy-2-methoxy-5-benzenesulfate

> <SMILES>
COc1ccc(cc1OC(=O)c2ccccc2)S(O)(=O)=O

> <Reference>
SAR and QSAR in Env Res (1994) 2:159

> <Id>
CRO-224

> <Activity>
POS

> <Predicted Value>
0.999  POS

> <Used>
1

> <Status>
Sensitizer

> <isSensitizer>
1

$$$$
Methyl-1H-benzimidazole-2-carbamate
  SciTegic06161615552D

 14 15  0  0  0  0            999 V2000
    0.0000    0.0000    0.0000 C   0  0
    0.0000    0.0000    0.0000 O   0  0
    0.0000    0.0000    0.0000 C   0  0
    0.0000    0.0000    0.0000 O   0  0
    0.0000    0.0000    0.0000 N   0  0
    0.0000    0.0000    0.0000 C   0  0
    0.0000    0.0000    0.0000 N   0  0
    0.0000    0.0000    0.0000 C   0  0
    0.0000    0.0000    0.0000 C   0  0
    0.0000    0.0000    0.0000 C   0  0
    0.0000    0.0000    0.0000 C   0  0
    0.0000    0.0000    0.0000 C   0  0
    0.0000    0.0000    0.0000 C   0  0
    0.0000    0.0000    0.0000 N   0  0
  1  2  1  0
  2  3  1  0
  3  4  2  0
  3  5  1  0
  5  6  1  0
  6  7  2  3
  7  8  1  0
  8  9  2  3
  9 10  1  0
 10 11  2  3
 11 12  1  0
 12 13  2  3
 13  8  1  0
 13 14  1  0
 14  6  1  0
M  END
> <Name>
Methyl-1H-benzimidazole-2-carbamate

> <SMILES>
COC(=O)Nc2nc1ccccc1[nH]2

> <Reference>
SAR and QSAR in Env Res (1994) 2:159

> <Id>
10605-21-7

> <Activity>
NEG

> <Predicted Value>
0      NEG

> <Used>
1

> <Status>
Non-Sensitizer

> <isSensitizer>
0

$$$$
2;7-Dimethyl-1;4-naphthoquinone
  SciTegic06161615552D

 14 15  0  0  0  0            999 V2000
    0.0000    0.0000    0.0000 C   0  0
    0.0000    0.0000    0.0000 C   0  0
    0.0000    0.0000    0.0000 C   0  0
    0.0000    0.0000    0.0000 C   0  0
    0.0000    0.0000    0.0000 O   0  0
    0.0000    0.0000    0.0000 C   0  0
    0.0000    0.0000    0.0000 C   0  0
    0.0000    0.0000    0.0000 C   0  0
    0.0000    0.0000    0.0000 C   0  0
    0.0000    0.0000    0.0000 C   0  0
    0.0000    0.0000    0.0000 C   0  0
    0.0000    0.0000    0.0000 C   0  0
    0.0000    0.0000    0.0000 C   0  0
    0.0000    0.0000    0.0000 O   0  0
  1  2  1  0
  2  3  2  3
  3  4  1  0
  4  5  2  0
  4  6  1  0
  6  7  2  3
  7  8  1  0
  8  9  2  3
  9 10  1  0
  9 11  1  0
 11 12  2  3
 12  6  1  0
 12 13  1  0
 13  2  1  0
 13 14  2  0
M  END
> <Name>
2;7-Dimethyl-1;4-naphthoquinone

> <SMILES>
CC2=CC(=O)c1ccc(C)cc1C2=O

> <Reference>
Contact Dermatitis (1989) 19:180

> <Id>
482-70-2

> <Activity>
POS

> <Predicted Value>
1      POS

> <Used>
1

> <Status>
Sensitizer

> <isSensitizer>
1

$$$$
2-Methyl-4-isothiazolin-3-one
  SciTegic06161615552D

  7  7  0  0  0  0            999 V2000
    0.0000    0.0000    0.0000 C   0  0
    0.0000    0.0000    0.0000 N   0  0
    0.0000    0.0000    0.0000 S   0  0
    0.0000    0.0000    0.0000 C   0  0
    0.0000    0.0000    0.0000 C   0  0
    0.0000    0.0000    0.0000 C   0  0
    0.0000    0.0000    0.0000 O   0  0
  1  2  1  0
  2  3  1  0
  3  4  1  0
  4  5  2  3
  5  6  1  0
  6  2  1  0
  6  7  2  0
M  END
> <Name>
2-Methyl-4-isothiazolin-3-one

> <SMILES>
Cn1sccc1=O

> <Reference>
Acta Derm Vener (1987) 67:315

> <Id>
2682-20-4

> <Activity>
POS

> <Predicted Value>
1      POS

> <Used>
1

> <Status>
Sensitizer

> <isSensitizer>
1

$$$$
4-Methylcatechol
  SciTegic06161615552D

  9  9  0  0  0  0            999 V2000
    0.0000    0.0000    0.0000 C   0  0
    0.0000    0.0000    0.0000 O   0  0
    0.0000    0.0000    0.0000 C   0  0
    0.0000    0.0000    0.0000 C   0  0
    0.0000    0.0000    0.0000 C   0  0
    0.0000    0.0000    0.0000 C   0  0
    0.0000    0.0000    0.0000 C   0  0
    0.0000    0.0000    0.0000 C   0  0
    0.0000    0.0000    0.0000 O   0  0
  1  2  1  0
  2  3  1  0
  3  4  2  3
  4  5  1  0
  5  6  2  3
  6  7  1  0
  7  8  2  3
  8  3  1  0
  8  9  1  0
M  END
> <Name>
4-Methylcatechol

> <SMILES>
COc1ccccc1O

> <Reference>
SAR and QSAR in Env Res (1994) 2:159

> <Id>
90-05-1

> <Activity>
POS

> <Predicted Value>
0.59   IND

> <Used>
1

> <Status>
Sensitizer

> <isSensitizer>
1

$$$$
Eugenol
  SciTegic06161615552D

 12 12  0  0  0  0            999 V2000
    0.0000    0.0000    0.0000 C   0  0
    0.0000    0.0000    0.0000 O   0  0
    0.0000    0.0000    0.0000 C   0  0
    0.0000    0.0000    0.0000 C   0  0
    0.0000    0.0000    0.0000 C   0  0
    0.0000    0.0000    0.0000 C   0  0
    0.0000    0.0000    0.0000 C   0  0
    0.0000    0.0000    0.0000 C   0  0
    0.0000    0.0000    0.0000 C   0  0
    0.0000    0.0000    0.0000 C   0  0
    0.0000    0.0000    0.0000 C   0  0
    0.0000    0.0000    0.0000 O   0  0
  1  2  1  0
  2  3  1  0
  3  4  2  3
  4  5  1  0
  5  6  1  0
  6  7  1  0
  7  8  2  0
  5  9  2  3
  9 10  1  0
 10 11  2  3
 11  3  1  0
 11 12  1  0
M  END
> <Name>
Eugenol

> <SMILES>
COc1cc(CC=C)ccc1O

> <Reference>
Contact Dermatitis (1992) 27:98

> <Id>
97-53-0

> <Activity>
POS

> <Predicted Value>
1      POS

> <Used>
1

> <Status>
Sensitizer

> <isSensitizer>
1

$$$$
Pyridine-2;6-dicarboxylic acid
  SciTegic06161615552D

 12 12  0  0  0  0            999 V2000
    0.0000    0.0000    0.0000 O   0  0
    0.0000    0.0000    0.0000 C   0  0
    0.0000    0.0000    0.0000 O   0  0
    0.0000    0.0000    0.0000 C   0  0
    0.0000    0.0000    0.0000 C   0  0
    0.0000    0.0000    0.0000 C   0  0
    0.0000    0.0000    0.0000 C   0  0
    0.0000    0.0000    0.0000 C   0  0
    0.0000    0.0000    0.0000 N   0  0
    0.0000    0.0000    0.0000 C   0  0
    0.0000    0.0000    0.0000 O   0  0
    0.0000    0.0000    0.0000 O   0  0
  1  2  1  0
  2  3  2  0
  2  4  1  0
  4  5  2  3
  5  6  1  0
  6  7  2  3
  7  8  1  0
  8  9  2  3
  9  4  1  0
  8 10  1  0
 10 11  1  0
 10 12  2  0
M  END
> <Name>
Pyridine-2;6-dicarboxylic acid

> <SMILES>
OC(=O)c1cccc(n1)C(O)=O

> <Reference>
SAR and QSAR in Env Res (1994) 2:159

> <Id>
CRO-101

> <Activity>
POS

> <Predicted Value>
0.391  IND

> <Used>
1

> <Status>
Sensitizer

> <isSensitizer>
1

$$$$
Anisic aldehyde
  SciTegic06161615552D

 10 10  0  0  0  0            999 V2000
    0.0000    0.0000    0.0000 C   0  0
    0.0000    0.0000    0.0000 O   0  0
    0.0000    0.0000    0.0000 C   0  0
    0.0000    0.0000    0.0000 C   0  0
    0.0000    0.0000    0.0000 C   0  0
    0.0000    0.0000    0.0000 C   0  0
    0.0000    0.0000    0.0000 C   0  0
    0.0000    0.0000    0.0000 O   0  0
    0.0000    0.0000    0.0000 C   0  0
    0.0000    0.0000    0.0000 C   0  0
  1  2  1  0
  2  3  1  0
  3  4  2  3
  4  5  1  0
  5  6  2  3
  6  7  1  0
  7  8  2  0
  6  9  1  0
  9 10  2  3
 10  3  1  0
M  END
> <Name>
Anisic aldehyde

> <SMILES>
COc1ccc(C=O)cc1

> <Reference>
SAR and QSAR in Env Res (1994) 2:159

> <Id>
123-11-5

> <Activity>
NEG

> <Predicted Value>
0.328  IND

> <Used>
1

> <Status>
Non-Sensitizer

> <isSensitizer>
0

$$$$
Methyl-4-hydroxybenzoate
  SciTegic06161615552D

 11 11  0  0  0  0            999 V2000
    0.0000    0.0000    0.0000 C   0  0
    0.0000    0.0000    0.0000 O   0  0
    0.0000    0.0000    0.0000 C   0  0
    0.0000    0.0000    0.0000 O   0  0
    0.0000    0.0000    0.0000 C   0  0
    0.0000    0.0000    0.0000 C   0  0
    0.0000    0.0000    0.0000 C   0  0
    0.0000    0.0000    0.0000 C   0  0
    0.0000    0.0000    0.0000 O   0  0
    0.0000    0.0000    0.0000 C   0  0
    0.0000    0.0000    0.0000 C   0  0
  1  2  1  0
  2  3  1  0
  3  4  2  0
  3  5  1  0
  5  6  2  3
  6  7  1  0
  7  8  2  3
  8  9  1  0
  8 10  1  0
 10 11  2  3
 11  5  1  0
M  END
> <Name>
Methyl-4-hydroxybenzoate

> <SMILES>
COC(=O)c1ccc(O)cc1

> <Reference>
J Am Coll Toxicol (1984) 3(5):147

> <Id>
99-76-3

> <Activity>
NEG

> <Predicted Value>
0      NEG

> <Used>
1

> <Status>
Non-Sensitizer

> <isSensitizer>
0

$$$$
Ethyl gallate
  SciTegic06161615552D

 14 14  0  0  0  0            999 V2000
    0.0000    0.0000    0.0000 C   0  0
    0.0000    0.0000    0.0000 C   0  0
    0.0000    0.0000    0.0000 O   0  0
    0.0000    0.0000    0.0000 C   0  0
    0.0000    0.0000    0.0000 O   0  0
    0.0000    0.0000    0.0000 C   0  0
    0.0000    0.0000    0.0000 C   0  0
    0.0000    0.0000    0.0000 C   0  0
    0.0000    0.0000    0.0000 O   0  0
    0.0000    0.0000    0.0000 C   0  0
    0.0000    0.0000    0.0000 O   0  0
    0.0000    0.0000    0.0000 C   0  0
    0.0000    0.0000    0.0000 O   0  0
    0.0000    0.0000    0.0000 C   0  0
  1  2  1  0
  2  3  1  0
  3  4  1  0
  4  5  2  0
  4  6  1  0
  6  7  2  3
  7  8  1  0
  8  9  1  0
  8 10  2  3
 10 11  1  0
 10 12  1  0
 12 13  1  0
 12 14  2  3
 14  6  1  0
M  END
> <Name>
Ethyl gallate

> <SMILES>
CCOC(=O)c1cc(O)c(O)c(O)c1

> <Reference>
Contact Dermatitis (1992) 26:253

> <Id>
831-61-8

> <Activity>
POS

> <Predicted Value>
0.991  POS

> <Used>
1

> <Status>
Sensitizer

> <isSensitizer>
1

$$$$
Isoeugenol
  SciTegic06161615552D

 12 12  0  0  0  0            999 V2000
    0.0000    0.0000    0.0000 C   0  0
    0.0000    0.0000    0.0000 O   0  0
    0.0000    0.0000    0.0000 C   0  0
    0.0000    0.0000    0.0000 C   0  0
    0.0000    0.0000    0.0000 C   0  0
    0.0000    0.0000    0.0000 C   0  0
    0.0000    0.0000    0.0000 C   0  0
    0.0000    0.0000    0.0000 C   0  0
    0.0000    0.0000    0.0000 C   0  0
    0.0000    0.0000    0.0000 C   0  0
    0.0000    0.0000    0.0000 C   0  0
    0.0000    0.0000    0.0000 O   0  0
  1  2  1  0
  2  3  1  0
  3  4  2  3
  4  5  1  0
  5  6  1  0
  6  7  2  3
  7  8  1  0
  5  9  2  3
  9 10  1  0
 10 11  2  3
 11  3  1  0
 11 12  1  0
M  END
> <Name>
Isoeugenol

> <SMILES>
COc1cc(C=CC)ccc1O

> <Reference>
Contact Dermatitis (1982) 8:246

> <Id>
97-54-1

> <Activity>
POS

> <Predicted Value>
1      POS

> <Used>
1

> <Status>
Sensitizer

> <isSensitizer>
1

$$$$
Carboxymethyl-4-acetomidothiobenzoate
  SciTegic06161615552D

 17 17  0  0  0  0            999 V2000
    0.0000    0.0000    0.0000 C   0  0
    0.0000    0.0000    0.0000 C   0  0
    0.0000    0.0000    0.0000 O   0  0
    0.0000    0.0000    0.0000 N   0  0
    0.0000    0.0000    0.0000 C   0  0
    0.0000    0.0000    0.0000 C   0  0
    0.0000    0.0000    0.0000 C   0  0
    0.0000    0.0000    0.0000 C   0  0
    0.0000    0.0000    0.0000 C   0  0
    0.0000    0.0000    0.0000 C   0  0
    0.0000    0.0000    0.0000 C   0  0
    0.0000    0.0000    0.0000 S   0  0
    0.0000    0.0000    0.0000 S   0  0
    0.0000    0.0000    0.0000 C   0  0
    0.0000    0.0000    0.0000 C   0  0
    0.0000    0.0000    0.0000 O   0  0
    0.0000    0.0000    0.0000 O   0  0
  1  2  1  0
  2  3  2  0
  2  4  1  0
  4  5  1  0
  5  6  2  3
  6  7  1  0
  7  8  2  3
  8  9  1  0
  9 10  2  3
 10  5  1  0
  8 11  1  0
 11 12  2  0
 11 13  1  0
 13 14  1  0
 14 15  1  0
 15 16  1  0
 15 17  2  0
M  END
> <Name>
Carboxymethyl-4-acetomidothiobenzoate

> <SMILES>
CC(=O)Nc1ccc(cc1)C(=S)SCC(O)=O

> <Reference>
SAR and QSAR in Env Res (1994) 2:159

> <Id>
CRO-241

> <Activity>
POS

> <Predicted Value>
1      POS

> <Used>
1

> <Status>
Sensitizer

> <isSensitizer>
1

$$$$
Creosol
  SciTegic06161615552D

 10 10  0  0  0  0            999 V2000
    0.0000    0.0000    0.0000 C   0  0
    0.0000    0.0000    0.0000 O   0  0
    0.0000    0.0000    0.0000 C   0  0
    0.0000    0.0000    0.0000 C   0  0
    0.0000    0.0000    0.0000 C   0  0
    0.0000    0.0000    0.0000 C   0  0
    0.0000    0.0000    0.0000 C   0  0
    0.0000    0.0000    0.0000 C   0  0
    0.0000    0.0000    0.0000 C   0  0
    0.0000    0.0000    0.0000 O   0  0
  1  2  1  0
  2  3  1  0
  3  4  2  3
  4  5  1  0
  5  6  1  0
  5  7  2  3
  7  8  1  0
  8  9  2  3
  9  3  1  0
  9 10  1  0
M  END
> <Name>
Creosol

> <SMILES>
COc1cc(C)ccc1O

> <Reference>
Howard I Maibach (priv comm)

> <Id>
93-51-6

> <Activity>
POS

> <Predicted Value>
0.999  POS

> <Used>
1

> <Status>
Sensitizer

> <isSensitizer>
1

$$$$
Ethylidene benzoacetate
  SciTegic06161615552D

 15 15  0  0  0  0            999 V2000
    0.0000    0.0000    0.0000 C   0  0
    0.0000    0.0000    0.0000 C   0  0
    0.0000    0.0000    0.0000 O   0  0
    0.0000    0.0000    0.0000 C   0  0
    0.0000    0.0000    0.0000 C   0  0
    0.0000    0.0000    0.0000 O   0  0
    0.0000    0.0000    0.0000 O   0  0
    0.0000    0.0000    0.0000 C   0  0
    0.0000    0.0000    0.0000 O   0  0
    0.0000    0.0000    0.0000 C   0  0
    0.0000    0.0000    0.0000 C   0  0
    0.0000    0.0000    0.0000 C   0  0
    0.0000    0.0000    0.0000 C   0  0
    0.0000    0.0000    0.0000 C   0  0
    0.0000    0.0000    0.0000 C   0  0
  1  2  1  0
  2  3  1  0
  3  4  1  0
  4  5  1  0
  4  6  2  0
  2  7  1  0
  7  8  1  0
  8  9  2  0
  8 10  1  0
 10 11  2  3
 11 12  1  0
 12 13  2  3
 13 14  1  0
 14 15  2  3
 15 10  1  0
M  END
> <Name>
Ethylidene benzoacetate

> <SMILES>
CC(OC(C)=O)OC(=O)c1ccccc1

> <Reference>
SAR and QSAR in Env Res (1994) 2:159

> <Id>
CRO-176

> <Activity>
POS

> <Predicted Value>
1      POS

> <Used>
1

> <Status>
Sensitizer

> <isSensitizer>
1

$$$$
Sodium picramate
  SciTegic06161615552D

 14 14  0  0  0  0            999 V2000
    0.0000    0.0000    0.0000 N   0  0
    0.0000    0.0000    0.0000 C   0  0
    0.0000    0.0000    0.0000 C   0  0
    0.0000    0.0000    0.0000 C   0  0
    0.0000    0.0000    0.0000 C   0  0
    0.0000    0.0000    0.0000 C   0  0
    0.0000    0.0000    0.0000 N   0  0
    0.0000    0.0000    0.0000 O   0  0
    0.0000    0.0000    0.0000 O   0  0
    0.0000    0.0000    0.0000 C   0  0
    0.0000    0.0000    0.0000 O   0  5
    0.0000    0.0000    0.0000 N   0  0
    0.0000    0.0000    0.0000 O   0  0
    0.0000    0.0000    0.0000 O   0  0
  1  2  1  0
  2  3  2  3
  3  4  1  0
  4  5  2  3
  5  6  1  0
  6  7  1  0
  7  8  2  0
  7  9  2  0
  6 10  2  3
 10  2  1  0
 10 11  1  0
  4 12  1  0
 12 13  2  0
 12 14  2  0
M  CHG  1  11  -1
M  END
> <Name>
Sodium picramate

> <SMILES>
Nc1cc(cc(N(=O)=O)c1[O-])N(=O)=O

> <Reference>
J Am Coll Toxicol (1992) 11(4):447

> <Id>
831-52-7

> <Activity>
POS

> <Predicted Value>
0.999  POS

> <Used>
1

> <Status>
Sensitizer

> <isSensitizer>
1

$$$$
4-tert-butyl anisole
  SciTegic06161615552D

 14 14  0  0  0  0            999 V2000
    0.0000    0.0000    0.0000 C   0  0
    0.0000    0.0000    0.0000 C   0  0
    0.0000    0.0000    0.0000 C   0  0
    0.0000    0.0000    0.0000 C   0  0
    0.0000    0.0000    0.0000 O   0  0
    0.0000    0.0000    0.0000 C   0  0
    0.0000    0.0000    0.0000 O   0  0
    0.0000    0.0000    0.0000 C   0  0
    0.0000    0.0000    0.0000 C   0  0
    0.0000    0.0000    0.0000 C   0  0
    0.0000    0.0000    0.0000 C   0  0
    0.0000    0.0000    0.0000 O   0  0
    0.0000    0.0000    0.0000 C   0  0
    0.0000    0.0000    0.0000 C   0  0
  1  2  1  0
  2  3  1  0
  2  4  1  0
  2  5  1  0
  5  6  1  0
  6  7  2  0
  6  8  1  0
  8  9  2  3
  9 10  1  0
 10 11  2  3
 11 12  1  0
 11 13  1  0
 13 14  2  3
 14  8  1  0
M  END
> <Name>
4-tert-butyl anisole

> <SMILES>
CC(C)(C)OC(=O)c1ccc(O)cc1

> <Reference>
SAR and QSAR in Env Res (1994) 2:159

> <Id>
CRO-400

> <Activity>
NEG

> <Predicted Value>
0.002  NEG

> <Used>
1

> <Status>
Non-Sensitizer

> <isSensitizer>
0

$$$$
Benzyl salicylate
  SciTegic06161615552D

 17 18  0  0  0  0            999 V2000
    0.0000    0.0000    0.0000 O   0  0
    0.0000    0.0000    0.0000 C   0  0
    0.0000    0.0000    0.0000 C   0  0
    0.0000    0.0000    0.0000 C   0  0
    0.0000    0.0000    0.0000 C   0  0
    0.0000    0.0000    0.0000 C   0  0
    0.0000    0.0000    0.0000 C   0  0
    0.0000    0.0000    0.0000 C   0  0
    0.0000    0.0000    0.0000 O   0  0
    0.0000    0.0000    0.0000 O   0  0
    0.0000    0.0000    0.0000 C   0  0
    0.0000    0.0000    0.0000 C   0  0
    0.0000    0.0000    0.0000 C   0  0
    0.0000    0.0000    0.0000 C   0  0
    0.0000    0.0000    0.0000 C   0  0
    0.0000    0.0000    0.0000 C   0  0
    0.0000    0.0000    0.0000 C   0  0
  1  2  1  0
  2  3  2  3
  3  4  1  0
  4  5  2  3
  5  6  1  0
  6  7  2  3
  7  2  1  0
  7  8  1  0
  8  9  2  0
  8 10  1  0
 10 11  1  0
 11 12  1  0
 12 13  2  3
 13 14  1  0
 14 15  2  3
 15 16  1  0
 16 17  2  3
 17 12  1  0
M  END
> <Name>
Benzyl salicylate

> <SMILES>
Oc1ccccc1C(=O)OCc2ccccc2

> <Reference>
Contact Dermatitis (1993) 28:235

> <Id>
118-58-1

> <Activity>
POS

> <Predicted Value>
0.265  NEG

> <Used>
1

> <Status>
Sensitizer

> <isSensitizer>
1

$$$$
Salicylic acid
  SciTegic06161615552D

 10 10  0  0  0  0            999 V2000
    0.0000    0.0000    0.0000 O   0  0
    0.0000    0.0000    0.0000 C   0  0
    0.0000    0.0000    0.0000 O   0  0
    0.0000    0.0000    0.0000 C   0  0
    0.0000    0.0000    0.0000 C   0  0
    0.0000    0.0000    0.0000 C   0  0
    0.0000    0.0000    0.0000 C   0  0
    0.0000    0.0000    0.0000 C   0  0
    0.0000    0.0000    0.0000 C   0  0
    0.0000    0.0000    0.0000 O   0  0
  1  2  1  0
  2  3  2  0
  2  4  1  0
  4  5  2  3
  5  6  1  0
  6  7  2  3
  7  8  1  0
  8  9  2  3
  9  4  1  0
  9 10  1  0
M  END
> <Name>
Salicylic acid

> <SMILES>
OC(=O)c1ccccc1O

> <Reference>
SAR and QSAR in Env Res (1994) 2:159

> <Id>
69-72-7

> <Activity>
NEG

> <Predicted Value>
0      NEG

> <Used>
1

> <Status>
Non-Sensitizer

> <isSensitizer>
0

$$$$
Dimethyl isophthalate
  SciTegic06161615552D

 14 14  0  0  0  0            999 V2000
    0.0000    0.0000    0.0000 C   0  0
    0.0000    0.0000    0.0000 O   0  0
    0.0000    0.0000    0.0000 C   0  0
    0.0000    0.0000    0.0000 O   0  0
    0.0000    0.0000    0.0000 C   0  0
    0.0000    0.0000    0.0000 C   0  0
    0.0000    0.0000    0.0000 C   0  0
    0.0000    0.0000    0.0000 C   0  0
    0.0000    0.0000    0.0000 C   0  0
    0.0000    0.0000    0.0000 C   0  0
    0.0000    0.0000    0.0000 C   0  0
    0.0000    0.0000    0.0000 O   0  0
    0.0000    0.0000    0.0000 O   0  0
    0.0000    0.0000    0.0000 C   0  0
  1  2  1  0
  2  3  1  0
  3  4  2  0
  3  5  1  0
  5  6  2  3
  6  7  1  0
  7  8  2  3
  8  9  1  0
  9 10  2  3
 10  5  1  0
  9 11  1  0
 11 12  2  0
 11 13  1  0
 13 14  1  0
M  END
> <Name>
Dimethyl isophthalate

> <SMILES>
COC(=O)c1cccc(c1)C(=O)OC

> <Reference>
SAR and QSAR in Env Res (1994) 2:159

> <Id>
1459-93-4

> <Activity>
NEG

> <Predicted Value>
0      NEG

> <Used>
1

> <Status>
Non-Sensitizer

> <isSensitizer>
0

$$$$
2;4-Dinotrochlorobenzene
  SciTegic06161615552D

 13 13  0  0  0  0            999 V2000
    0.0000    0.0000    0.0000 Cl  0  0
    0.0000    0.0000    0.0000 C   0  0
    0.0000    0.0000    0.0000 C   0  0
    0.0000    0.0000    0.0000 C   0  0
    0.0000    0.0000    0.0000 C   0  0
    0.0000    0.0000    0.0000 C   0  0
    0.0000    0.0000    0.0000 C   0  0
    0.0000    0.0000    0.0000 N   0  0
    0.0000    0.0000    0.0000 O   0  0
    0.0000    0.0000    0.0000 O   0  0
    0.0000    0.0000    0.0000 N   0  0
    0.0000    0.0000    0.0000 O   0  0
    0.0000    0.0000    0.0000 O   0  0
  1  2  1  0
  2  3  2  3
  3  4  1  0
  4  5  2  3
  5  6  1  0
  6  7  2  3
  7  2  1  0
  7  8  1  0
  8  9  2  0
  8 10  2  0
  5 11  1  0
 11 12  2  0
 11 13  2  0
M  END
> <Name>
2;4-Dinotrochlorobenzene

> <SMILES>
Clc1ccc(cc1N(=O)=O)N(=O)=O

> <Reference>
SAR and QSAR in Env Res (1994) 2:159

> <Id>
97-00-7

> <Activity>
POS

> <Predicted Value>
0.993  POS

> <Used>
1

> <Status>
Sensitizer

> <isSensitizer>
1

$$$$
Disperse Blue 3
  SciTegic06161615552D

 22 24  0  0  0  0            999 V2000
    0.0000    0.0000    0.0000 C   0  0
    0.0000    0.0000    0.0000 N   0  0
    0.0000    0.0000    0.0000 C   0  0
    0.0000    0.0000    0.0000 C   0  0
    0.0000    0.0000    0.0000 C   0  0
    0.0000    0.0000    0.0000 C   0  0
    0.0000    0.0000    0.0000 N   0  0
    0.0000    0.0000    0.0000 C   0  0
    0.0000    0.0000    0.0000 C   0  0
    0.0000    0.0000    0.0000 O   0  0
    0.0000    0.0000    0.0000 C   0  0
    0.0000    0.0000    0.0000 C   0  0
    0.0000    0.0000    0.0000 O   0  0
    0.0000    0.0000    0.0000 C   0  0
    0.0000    0.0000    0.0000 C   0  0
    0.0000    0.0000    0.0000 C   0  0
    0.0000    0.0000    0.0000 C   0  0
    0.0000    0.0000    0.0000 C   0  0
    0.0000    0.0000    0.0000 C   0  0
    0.0000    0.0000    0.0000 C   0  0
    0.0000    0.0000    0.0000 O   0  0
    0.0000    0.0000    0.0000 C   0  0
  1  2  1  0
  2  3  1  0
  3  4  2  3
  4  5  1  0
  5  6  2  3
  6  7  1  0
  7  8  1  0
  8  9  1  0
  9 10  1  0
  6 11  1  0
 11 12  1  0
 12 13  2  0
 12 14  1  0
 14 15  2  3
 15 16  1  0
 16 17  2  3
 17 18  1  0
 18 19  2  3
 19 14  1  0
 19 20  1  0
 20 21  2  0
 20 22  1  0
 22  3  1  0
 22 11  2  3
M  END
> <Name>
Disperse Blue 3

> <SMILES>
CNc2ccc(NCCO)c3C(=O)c1ccccc1C(=O)c23

> <Reference>
Contact Dermatitis (1989) 20:27

> <Id>
2475-46-9

> <Activity>
POS

> <Predicted Value>
1      POS

> <Used>
1

> <Status>
Sensitizer

> <isSensitizer>
1

$$$$
3-Acetylphenylbenzoate
  SciTegic06161615552D

 18 19  0  0  0  0            999 V2000
    0.0000    0.0000    0.0000 C   0  0
    0.0000    0.0000    0.0000 C   0  0
    0.0000    0.0000    0.0000 O   0  0
    0.0000    0.0000    0.0000 C   0  0
    0.0000    0.0000    0.0000 C   0  0
    0.0000    0.0000    0.0000 C   0  0
    0.0000    0.0000    0.0000 C   0  0
    0.0000    0.0000    0.0000 C   0  0
    0.0000    0.0000    0.0000 O   0  0
    0.0000    0.0000    0.0000 C   0  0
    0.0000    0.0000    0.0000 O   0  0
    0.0000    0.0000    0.0000 C   0  0
    0.0000    0.0000    0.0000 C   0  0
    0.0000    0.0000    0.0000 C   0  0
    0.0000    0.0000    0.0000 C   0  0
    0.0000    0.0000    0.0000 C   0  0
    0.0000    0.0000    0.0000 C   0  0
    0.0000    0.0000    0.0000 C   0  0
  1  2  1  0
  2  3  2  0
  2  4  1  0
  4  5  2  3
  5  6  1  0
  6  7  2  3
  7  8  1  0
  8  9  1  0
  9 10  1  0
 10 11  2  0
 10 12  1  0
 12 13  2  3
 13 14  1  0
 14 15  2  3
 15 16  1  0
 16 17  2  3
 17 12  1  0
  8 18  2  3
 18  4  1  0
M  END
> <Name>
3-Acetylphenylbenzoate

> <SMILES>
CC(=O)c2cccc(OC(=O)c1ccccc1)c2

> <Reference>
SAR and QSAR in Env Res (1994) 2:159

> <Id>
CRO-270

> <Activity>
POS

> <Predicted Value>
1      POS

> <Used>
1

> <Status>
Sensitizer

> <isSensitizer>
1

$$$$
1-Amino-4-methyl-aminoanthraquinone
  SciTegic06161615552D

 19 21  0  0  0  0            999 V2000
    0.0000    0.0000    0.0000 C   0  0
    0.0000    0.0000    0.0000 N   0  0
    0.0000    0.0000    0.0000 C   0  0
    0.0000    0.0000    0.0000 C   0  0
    0.0000    0.0000    0.0000 C   0  0
    0.0000    0.0000    0.0000 C   0  0
    0.0000    0.0000    0.0000 N   0  0
    0.0000    0.0000    0.0000 C   0  0
    0.0000    0.0000    0.0000 C   0  0
    0.0000    0.0000    0.0000 O   0  0
    0.0000    0.0000    0.0000 C   0  0
    0.0000    0.0000    0.0000 C   0  0
    0.0000    0.0000    0.0000 C   0  0
    0.0000    0.0000    0.0000 C   0  0
    0.0000    0.0000    0.0000 C   0  0
    0.0000    0.0000    0.0000 C   0  0
    0.0000    0.0000    0.0000 C   0  0
    0.0000    0.0000    0.0000 O   0  0
    0.0000    0.0000    0.0000 C   0  0
  1  2  1  0
  2  3  1  0
  3  4  2  3
  4  5  1  0
  5  6  2  3
  6  7  1  0
  6  8  1  0
  8  9  1  0
  9 10  2  0
  9 11  1  0
 11 12  2  3
 12 13  1  0
 13 14  2  3
 14 15  1  0
 15 16  2  3
 16 11  1  0
 16 17  1  0
 17 18  2  0
 17 19  1  0
 19  3  1  0
 19  8  2  3
M  END
> <Name>
1-Amino-4-methyl-aminoanthraquinone

> <SMILES>
CNc2ccc(N)c3C(=O)c1ccccc1C(=O)c23

> <Reference>
SAR and QSAR in Env Res (1994) 2:159

> <Id>
CRO-120

> <Activity>
POS

> <Predicted Value>
1      POS

> <Used>
1

> <Status>
Sensitizer

> <isSensitizer>
1

$$$$
Methyl eugenol
  SciTegic06161615552D

 13 13  0  0  0  0            999 V2000
    0.0000    0.0000    0.0000 C   0  0
    0.0000    0.0000    0.0000 O   0  0
    0.0000    0.0000    0.0000 C   0  0
    0.0000    0.0000    0.0000 C   0  0
    0.0000    0.0000    0.0000 C   0  0
    0.0000    0.0000    0.0000 C   0  0
    0.0000    0.0000    0.0000 C   0  0
    0.0000    0.0000    0.0000 C   0  0
    0.0000    0.0000    0.0000 C   0  0
    0.0000    0.0000    0.0000 C   0  0
    0.0000    0.0000    0.0000 C   0  0
    0.0000    0.0000    0.0000 O   0  0
    0.0000    0.0000    0.0000 C   0  0
  1  2  1  0
  2  3  1  0
  3  4  2  3
  4  5  1  0
  5  6  2  3
  6  7  1  0
  7  8  1  0
  8  9  2  0
  6 10  1  0
 10 11  2  3
 11  3  1  0
 11 12  1  0
 12 13  1  0
M  END
> <Name>
Methyl eugenol

> <SMILES>
COc1ccc(CC=C)cc1OC

> <Reference>
SAR and QSAR in Env Res (1994) 2:159

> <Id>
93-15-2

> <Activity>
POS

> <Predicted Value>
0.988  POS

> <Used>
1

> <Status>
Sensitizer

> <isSensitizer>
1

$$$$
Homosalate
  SciTegic06161615552D

 19 20  0  0  0  0            999 V2000
    0.0000    0.0000    0.0000 C   0  0
    0.0000    0.0000    0.0000 C   0  0
    0.0000    0.0000    0.0000 C   0  0
    0.0000    0.0000    0.0000 C   0  0
    0.0000    0.0000    0.0000 C   0  0
    0.0000    0.0000    0.0000 C   0  0
    0.0000    0.0000    0.0000 C   0  0
    0.0000    0.0000    0.0000 C   0  0
    0.0000    0.0000    0.0000 C   0  0
    0.0000    0.0000    0.0000 O   0  0
    0.0000    0.0000    0.0000 C   0  0
    0.0000    0.0000    0.0000 O   0  0
    0.0000    0.0000    0.0000 C   0  0
    0.0000    0.0000    0.0000 C   0  0
    0.0000    0.0000    0.0000 C   0  0
    0.0000    0.0000    0.0000 C   0  0
    0.0000    0.0000    0.0000 C   0  0
    0.0000    0.0000    0.0000 C   0  0
    0.0000    0.0000    0.0000 O   0  0
  1  2  1  0
  2  3  1  0
  3  4  1  0
  4  5  1  0
  5  6  1  0
  6  7  1  0
  6  8  1  0
  6  9  1  0
  9  2  1  0
  4 10  1  0
 10 11  1  0
 11 12  2  0
 11 13  1  0
 13 14  2  3
 14 15  1  0
 15 16  2  3
 16 17  1  0
 17 18  2  3
 18 13  1  0
 18 19  1  0
M  END
> <Name>
Homosalate

> <SMILES>
CC1CC(CC(C)(C)C1)OC(=O)c2ccccc2O

> <Reference>
Howard I Maibach (priv comm)

> <Id>
118-56-9

> <Activity>
NEG

> <Predicted Value>
0      NEG

> <Used>
1

> <Status>
Non-Sensitizer

> <isSensitizer>
0

$$$$
1-Benzoyloxycarboxy-2-methoxy-5-benzene sulfate
  SciTegic06161615552D

 22 23  0  0  0  0            999 V2000
    0.0000    0.0000    0.0000 C   0  0
    0.0000    0.0000    0.0000 O   0  0
    0.0000    0.0000    0.0000 C   0  0
    0.0000    0.0000    0.0000 C   0  0
    0.0000    0.0000    0.0000 C   0  0
    0.0000    0.0000    0.0000 C   0  0
    0.0000    0.0000    0.0000 C   0  0
    0.0000    0.0000    0.0000 C   0  0
    0.0000    0.0000    0.0000 O   0  0
    0.0000    0.0000    0.0000 C   0  0
    0.0000    0.0000    0.0000 O   0  0
    0.0000    0.0000    0.0000 O   0  0
    0.0000    0.0000    0.0000 C   0  0
    0.0000    0.0000    0.0000 C   0  0
    0.0000    0.0000    0.0000 C   0  0
    0.0000    0.0000    0.0000 C   0  0
    0.0000    0.0000    0.0000 C   0  0
    0.0000    0.0000    0.0000 C   0  0
    0.0000    0.0000    0.0000 S   0  0
    0.0000    0.0000    0.0000 O   0  0
    0.0000    0.0000    0.0000 O   0  0
    0.0000    0.0000    0.0000 O   0  0
  1  2  1  0
  2  3  1  0
  3  4  2  3
  4  5  1  0
  5  6  2  3
  6  7  1  0
  7  8  2  3
  8  3  1  0
  8  9  1  0
  9 10  1  0
 10 11  2  0
 10 12  1  0
 12 13  1  0
 13 14  2  3
 14 15  1  0
 15 16  2  3
 16 17  1  0
 17 18  2  3
 18 13  1  0
  6 19  1  0
 19 20  1  0
 19 21  2  0
 19 22  2  0
M  END
> <Name>
1-Benzoyloxycarboxy-2-methoxy-5-benzene sulfate

> <SMILES>
COc1ccc(cc1OC(=O)Oc2ccccc2)S(O)(=O)=O

> <Reference>
SAR and QSAR in Env Res (1994) 2:159

> <Id>
CRO-128

> <Activity>
POS

> <Predicted Value>
1      POS

> <Used>
1

> <Status>
Sensitizer

> <isSensitizer>
1

$$$$
Phenyl ethyl salicylate
  SciTegic06161615552D

 18 19  0  0  0  0            999 V2000
    0.0000    0.0000    0.0000 O   0  0
    0.0000    0.0000    0.0000 C   0  0
    0.0000    0.0000    0.0000 C   0  0
    0.0000    0.0000    0.0000 C   0  0
    0.0000    0.0000    0.0000 C   0  0
    0.0000    0.0000    0.0000 C   0  0
    0.0000    0.0000    0.0000 C   0  0
    0.0000    0.0000    0.0000 C   0  0
    0.0000    0.0000    0.0000 O   0  0
    0.0000    0.0000    0.0000 O   0  0
    0.0000    0.0000    0.0000 C   0  0
    0.0000    0.0000    0.0000 C   0  0
    0.0000    0.0000    0.0000 C   0  0
    0.0000    0.0000    0.0000 C   0  0
    0.0000    0.0000    0.0000 C   0  0
    0.0000    0.0000    0.0000 C   0  0
    0.0000    0.0000    0.0000 C   0  0
    0.0000    0.0000    0.0000 C   0  0
  1  2  1  0
  2  3  2  3
  3  4  1  0
  4  5  2  3
  5  6  1  0
  6  7  2  3
  7  2  1  0
  7  8  1  0
  8  9  2  0
  8 10  1  0
 10 11  1  0
 11 12  1  0
 12 13  1  0
 13 14  2  3
 14 15  1  0
 15 16  2  3
 16 17  1  0
 17 18  2  3
 18 13  1  0
M  END
> <Name>
Phenyl ethyl salicylate

> <SMILES>
Oc1ccccc1C(=O)OCCc2ccccc2

> <Reference>
SAR and QSAR in Env Res (1994) 2:159

> <Id>
CRO-93

> <Activity>
POS

> <Predicted Value>
0.977  POS

> <Used>
1

> <Status>
Sensitizer

> <isSensitizer>
1

$$$$
p-Hydroxyanisole
  SciTegic06161615552D

  9  9  0  0  0  0            999 V2000
    0.0000    0.0000    0.0000 C   0  0
    0.0000    0.0000    0.0000 O   0  0
    0.0000    0.0000    0.0000 C   0  0
    0.0000    0.0000    0.0000 C   0  0
    0.0000    0.0000    0.0000 C   0  0
    0.0000    0.0000    0.0000 C   0  0
    0.0000    0.0000    0.0000 O   0  0
    0.0000    0.0000    0.0000 C   0  0
    0.0000    0.0000    0.0000 C   0  0
  1  2  1  0
  2  3  1  0
  3  4  2  3
  4  5  1  0
  5  6  2  3
  6  7  1  0
  6  8  1  0
  8  9  2  3
  9  3  1  0
M  END
> <Name>
p-Hydroxyanisole

> <SMILES>
COc1ccc(O)cc1

> <Reference>
J Am Coll Toxicol (1985) 4(5):31

> <Id>
150-76-5

> <Activity>
POS

> <Predicted Value>
0.709  POS

> <Used>
1

> <Status>
Sensitizer

> <isSensitizer>
1

$$$$
Benzyl benzoate
  SciTegic06161615552D

 16 17  0  0  0  0            999 V2000
    0.0000    0.0000    0.0000 O   0  0
    0.0000    0.0000    0.0000 C   0  0
    0.0000    0.0000    0.0000 O   0  0
    0.0000    0.0000    0.0000 C   0  0
    0.0000    0.0000    0.0000 C   0  0
    0.0000    0.0000    0.0000 C   0  0
    0.0000    0.0000    0.0000 C   0  0
    0.0000    0.0000    0.0000 C   0  0
    0.0000    0.0000    0.0000 C   0  0
    0.0000    0.0000    0.0000 C   0  0
    0.0000    0.0000    0.0000 C   0  0
    0.0000    0.0000    0.0000 C   0  0
    0.0000    0.0000    0.0000 C   0  0
    0.0000    0.0000    0.0000 C   0  0
    0.0000    0.0000    0.0000 C   0  0
    0.0000    0.0000    0.0000 C   0  0
  1  2  2  0
  2  3  1  0
  3  4  1  0
  4  5  1  0
  5  6  2  3
  6  7  1  0
  7  8  2  3
  8  9  1  0
  9 10  2  3
 10  5  1  0
  2 11  1  0
 11 12  2  3
 12 13  1  0
 13 14  2  3
 14 15  1  0
 15 16  2  3
 16 11  1  0
M  END
> <Name>
Benzyl benzoate

> <SMILES>
O=C(OCc1ccccc1)c2ccccc2

> <Reference>
SAR and QSAR in Env Res (1994) 2:159

> <Id>
120-51-4

> <Activity>
POS

> <Predicted Value>
1      POS

> <Used>
1

> <Status>
Sensitizer

> <isSensitizer>
1

$$$$
3-Nitrophenylbenzoate
  SciTegic06161615552D

 18 19  0  0  0  0            999 V2000
    0.0000    0.0000    0.0000 O   0  0
    0.0000    0.0000    0.0000 C   0  0
    0.0000    0.0000    0.0000 O   0  0
    0.0000    0.0000    0.0000 C   0  0
    0.0000    0.0000    0.0000 C   0  0
    0.0000    0.0000    0.0000 C   0  0
    0.0000    0.0000    0.0000 C   0  0
    0.0000    0.0000    0.0000 C   0  0
    0.0000    0.0000    0.0000 C   0  0
    0.0000    0.0000    0.0000 N   0  0
    0.0000    0.0000    0.0000 O   0  0
    0.0000    0.0000    0.0000 O   0  0
    0.0000    0.0000    0.0000 C   0  0
    0.0000    0.0000    0.0000 C   0  0
    0.0000    0.0000    0.0000 C   0  0
    0.0000    0.0000    0.0000 C   0  0
    0.0000    0.0000    0.0000 C   0  0
    0.0000    0.0000    0.0000 C   0  0
  1  2  2  0
  2  3  1  0
  3  4  1  0
  4  5  2  3
  5  6  1  0
  6  7  2  3
  7  8  1  0
  8  9  2  3
  9  4  1  0
  8 10  1  0
 10 11  2  0
 10 12  2  0
  2 13  1  0
 13 14  2  3
 14 15  1  0
 15 16  2  3
 16 17  1  0
 17 18  2  3
 18 13  1  0
M  END
> <Name>
3-Nitrophenylbenzoate

> <SMILES>
O=C(Oc1cccc(c1)N(=O)=O)c2ccccc2

> <Reference>
SAR and QSAR in Env Res (1994) 2:159

> <Id>
CRO-296

> <Activity>
POS

> <Predicted Value>
1      POS

> <Used>
1

> <Status>
Sensitizer

> <isSensitizer>
1

$$$$
4-Aminobenzene sulfonic acid
  SciTegic06161615552D

 11 11  0  0  0  0            999 V2000
    0.0000    0.0000    0.0000 N   0  0
    0.0000    0.0000    0.0000 C   0  0
    0.0000    0.0000    0.0000 C   0  0
    0.0000    0.0000    0.0000 C   0  0
    0.0000    0.0000    0.0000 C   0  0
    0.0000    0.0000    0.0000 C   0  0
    0.0000    0.0000    0.0000 C   0  0
    0.0000    0.0000    0.0000 S   0  0
    0.0000    0.0000    0.0000 O   0  0
    0.0000    0.0000    0.0000 O   0  0
    0.0000    0.0000    0.0000 O   0  0
  1  2  1  0
  2  3  2  3
  3  4  1  0
  4  5  2  3
  5  6  1  0
  6  7  2  3
  7  2  1  0
  5  8  1  0
  8  9  1  0
  8 10  2  0
  8 11  2  0
M  END
> <Name>
4-Aminobenzene sulfonic acid

> <SMILES>
Nc1ccc(cc1)S(O)(=O)=O

> <Reference>
Contact Dermatitis (1992) 27:209

> <Id>
121-57-3

> <Activity>
POS

> <Predicted Value>
1      POS

> <Used>
1

> <Status>
Sensitizer

> <isSensitizer>
1

$$$$
3-Trifluoromethylphenyl benzoate
  SciTegic06161615552D

 19 20  0  0  0  0            999 V2000
    0.0000    0.0000    0.0000 F   0  0
    0.0000    0.0000    0.0000 C   0  0
    0.0000    0.0000    0.0000 F   0  0
    0.0000    0.0000    0.0000 F   0  0
    0.0000    0.0000    0.0000 C   0  0
    0.0000    0.0000    0.0000 C   0  0
    0.0000    0.0000    0.0000 C   0  0
    0.0000    0.0000    0.0000 C   0  0
    0.0000    0.0000    0.0000 C   0  0
    0.0000    0.0000    0.0000 O   0  0
    0.0000    0.0000    0.0000 C   0  0
    0.0000    0.0000    0.0000 O   0  0
    0.0000    0.0000    0.0000 C   0  0
    0.0000    0.0000    0.0000 C   0  0
    0.0000    0.0000    0.0000 C   0  0
    0.0000    0.0000    0.0000 C   0  0
    0.0000    0.0000    0.0000 C   0  0
    0.0000    0.0000    0.0000 C   0  0
    0.0000    0.0000    0.0000 C   0  0
  1  2  1  0
  2  3  1  0
  2  4  1  0
  2  5  1  0
  5  6  2  3
  6  7  1  0
  7  8  2  3
  8  9  1  0
  9 10  1  0
 10 11  1  0
 11 12  2  0
 11 13  1  0
 13 14  2  3
 14 15  1  0
 15 16  2  3
 16 17  1  0
 17 18  2  3
 18 13  1  0
  9 19  2  3
 19  5  1  0
M  END
> <Name>
3-Trifluoromethylphenyl benzoate

> <SMILES>
FC(F)(F)c2cccc(OC(=O)c1ccccc1)c2

> <Reference>
SAR and QSAR in Env Res (1994) 2:159

> <Id>
CRO-265

> <Activity>
POS

> <Predicted Value>
1      POS

> <Used>
1

> <Status>
Sensitizer

> <isSensitizer>
1

$$$$
Salicylanide
  SciTegic06161615552D

 10 10  0  0  0  0            999 V2000
    0.0000    0.0000    0.0000 N   0  0
    0.0000    0.0000    0.0000 C   0  0
    0.0000    0.0000    0.0000 O   0  0
    0.0000    0.0000    0.0000 C   0  0
    0.0000    0.0000    0.0000 C   0  0
    0.0000    0.0000    0.0000 C   0  0
    0.0000    0.0000    0.0000 C   0  0
    0.0000    0.0000    0.0000 C   0  0
    0.0000    0.0000    0.0000 C   0  0
    0.0000    0.0000    0.0000 O   0  0
  1  2  1  0
  2  3  2  0
  2  4  1  0
  4  5  2  3
  5  6  1  0
  6  7  2  3
  7  8  1  0
  8  9  2  3
  9  4  1  0
  9 10  1  0
M  END
> <Name>
Salicylanide

> <SMILES>
NC(=O)c1ccccc1O

> <Reference>
SAR and QSAR in Env Res (1994) 2:159

> <Id>
65-45-2

> <Activity>
NEG

> <Predicted Value>
0.001  NEG

> <Used>
1

> <Status>
Non-Sensitizer

> <isSensitizer>
0

$$$$
2-Mercaptobenzothiazole
  SciTegic06161615552D

 10 11  0  0  0  0            999 V2000
    0.0000    0.0000    0.0000 S   0  0
    0.0000    0.0000    0.0000 C   0  0
    0.0000    0.0000    0.0000 N   0  0
    0.0000    0.0000    0.0000 C   0  0
    0.0000    0.0000    0.0000 C   0  0
    0.0000    0.0000    0.0000 C   0  0
    0.0000    0.0000    0.0000 C   0  0
    0.0000    0.0000    0.0000 C   0  0
    0.0000    0.0000    0.0000 C   0  0
    0.0000    0.0000    0.0000 S   0  0
  1  2  1  0
  2  3  2  3
  3  4  1  0
  4  5  2  3
  5  6  1  0
  6  7  2  3
  7  8  1  0
  8  9  2  3
  9  4  1  0
  9 10  1  0
 10  2  1  0
M  END
> <Name>
2-Mercaptobenzothiazole

> <SMILES>
Sc2nc1ccccc1s2

> <Reference>
SAR and QSAR in Env Res (1994) 2:159

> <Id>
149-30-4

> <Activity>
POS

> <Predicted Value>
0.999  POS

> <Used>
1

> <Status>
Sensitizer

> <isSensitizer>
1

$$$$
Musk ketone
  SciTegic06161615552D

 21 21  0  0  0  0            999 V2000
    0.0000    0.0000    0.0000 C   0  0
    0.0000    0.0000    0.0000 C   0  0
    0.0000    0.0000    0.0000 O   0  0
    0.0000    0.0000    0.0000 C   0  0
    0.0000    0.0000    0.0000 C   0  0
    0.0000    0.0000    0.0000 C   0  0
    0.0000    0.0000    0.0000 C   0  0
    0.0000    0.0000    0.0000 N   0  0
    0.0000    0.0000    0.0000 O   0  0
    0.0000    0.0000    0.0000 O   0  0
    0.0000    0.0000    0.0000 C   0  0
    0.0000    0.0000    0.0000 C   0  0
    0.0000    0.0000    0.0000 N   0  0
    0.0000    0.0000    0.0000 O   0  0
    0.0000    0.0000    0.0000 O   0  0
    0.0000    0.0000    0.0000 C   0  0
    0.0000    0.0000    0.0000 C   0  0
    0.0000    0.0000    0.0000 C   0  0
    0.0000    0.0000    0.0000 C   0  0
    0.0000    0.0000    0.0000 C   0  0
    0.0000    0.0000    0.0000 C   0  0
  1  2  1  0
  2  3  2  0
  2  4  1  0
  4  5  2  3
  5  6  1  0
  5  7  1  0
  7  8  1  0
  8  9  2  0
  8 10  2  0
  7 11  2  3
 11 12  1  0
 12 13  1  0
 13 14  2  0
 13 15  2  0
 12 16  2  3
 16  4  1  0
 16 17  1  0
 11 18  1  0
 18 19  1  0
 18 20  1  0
 18 21  1  0
M  END
> <Name>
Musk ketone

> <SMILES>
CC(=O)c1c(C)c(N(=O)=O)c(c(N(=O)=O)c1C)C(C)(C)C

> <Reference>
SAR and QSAR in Env Res (1994) 2:159

> <Id>
CRO-83

> <Activity>
NEG

> <Predicted Value>
0      NEG

> <Used>
1

> <Status>
Non-Sensitizer

> <isSensitizer>
0

$$$$
4-Nitrobenzyl chloride
  SciTegic06161615552D

 11 11  0  0  0  0            999 V2000
    0.0000    0.0000    0.0000 Cl  0  0
    0.0000    0.0000    0.0000 C   0  0
    0.0000    0.0000    0.0000 C   0  0
    0.0000    0.0000    0.0000 C   0  0
    0.0000    0.0000    0.0000 C   0  0
    0.0000    0.0000    0.0000 C   0  0
    0.0000    0.0000    0.0000 C   0  0
    0.0000    0.0000    0.0000 C   0  0
    0.0000    0.0000    0.0000 N   0  0
    0.0000    0.0000    0.0000 O   0  0
    0.0000    0.0000    0.0000 O   0  0
  1  2  1  0
  2  3  1  0
  3  4  2  3
  4  5  1  0
  5  6  2  3
  6  7  1  0
  7  8  2  3
  8  3  1  0
  6  9  1  0
  9 10  2  0
  9 11  2  0
M  END
> <Name>
4-Nitrobenzyl chloride

> <SMILES>
ClCc1ccc(cc1)N(=O)=O

> <Reference>
David A Basketter (priv comm)

> <Id>
100-14-1

> <Activity>
POS

> <Predicted Value>
1      POS

> <Used>
1

> <Status>
Sensitizer

> <isSensitizer>
1

$$$$
4-Allylanisole
  SciTegic06161615552D

 11 11  0  0  0  0            999 V2000
    0.0000    0.0000    0.0000 C   0  0
    0.0000    0.0000    0.0000 O   0  0
    0.0000    0.0000    0.0000 C   0  0
    0.0000    0.0000    0.0000 C   0  0
    0.0000    0.0000    0.0000 C   0  0
    0.0000    0.0000    0.0000 C   0  0
    0.0000    0.0000    0.0000 C   0  0
    0.0000    0.0000    0.0000 C   0  0
    0.0000    0.0000    0.0000 C   0  0
    0.0000    0.0000    0.0000 C   0  0
    0.0000    0.0000    0.0000 C   0  0
  1  2  1  0
  2  3  1  0
  3  4  2  3
  4  5  1  0
  5  6  2  3
  6  7  1  0
  7  8  1  0
  8  9  2  0
  6 10  1  0
 10 11  2  3
 11  3  1  0
M  END
> <Name>
4-Allylanisole

> <SMILES>
COc1ccc(CC=C)cc1

> <Reference>
Contact Dermatitis (1992) 27:98

> <Id>
140-67-0

> <Activity>
POS

> <Predicted Value>
0.938  POS

> <Used>
1

> <Status>
Sensitizer

> <isSensitizer>
1

$$$$
5-Chloro-2-methyl-4-isothiazolin-3-one
  SciTegic06161615552D

  8  8  0  0  0  0            999 V2000
    0.0000    0.0000    0.0000 C   0  0
    0.0000    0.0000    0.0000 N   0  0
    0.0000    0.0000    0.0000 S   0  0
    0.0000    0.0000    0.0000 C   0  0
    0.0000    0.0000    0.0000 Cl  0  0
    0.0000    0.0000    0.0000 C   0  0
    0.0000    0.0000    0.0000 C   0  0
    0.0000    0.0000    0.0000 O   0  0
  1  2  1  0
  2  3  1  0
  3  4  1  0
  4  5  1  0
  4  6  2  3
  6  7  1  0
  7  2  1  0
  7  8  2  0
M  END
> <Name>
5-Chloro-2-methyl-4-isothiazolin-3-one

> <SMILES>
Cn1sc(Cl)cc1=O

> <Reference>
Acta Derm Vener (1987) 67:315

> <Id>
26172-55-4

> <Activity>
POS

> <Predicted Value>
1      POS

> <Used>
1

> <Status>
Sensitizer

> <isSensitizer>
1

$$$$
Kojic acid
  SciTegic06161615552D

 10 10  0  0  0  0            999 V2000
    0.0000    0.0000    0.0000 O   0  0
    0.0000    0.0000    0.0000 C   0  0
    0.0000    0.0000    0.0000 C   0  0
    0.0000    0.0000    0.0000 C   0  0
    0.0000    0.0000    0.0000 C   0  0
    0.0000    0.0000    0.0000 O   0  0
    0.0000    0.0000    0.0000 C   0  0
    0.0000    0.0000    0.0000 O   0  0
    0.0000    0.0000    0.0000 C   0  0
    0.0000    0.0000    0.0000 O   0  0
  1  2  1  0
  2  3  1  0
  3  4  2  3
  4  5  1  0
  5  6  2  0
  5  7  1  0
  7  8  1  0
  7  9  2  3
  9 10  1  0
 10  3  1  0
M  END
> <Name>
Kojic acid

> <SMILES>
OCc1cc(=O)c(O)co1

> <Reference>
Howard I Maibach (priv comm)

> <Id>
501-30-4

> <Activity>
POS

> <Predicted Value>
1      POS

> <Used>
1

> <Status>
Sensitizer

> <isSensitizer>
1

$$$$
.alpha.-Ammonium-4-toluic acid chloride
  SciTegic06161615552D

 14 14  0  0  0  0            999 V2000
    0.0000    0.0000    0.0000 C   0  0
    0.0000    0.0000    0.0000 N   0  3
    0.0000    0.0000    0.0000 C   0  0
    0.0000    0.0000    0.0000 C   0  0
    0.0000    0.0000    0.0000 C   0  0
    0.0000    0.0000    0.0000 C   0  0
    0.0000    0.0000    0.0000 C   0  0
    0.0000    0.0000    0.0000 C   0  0
    0.0000    0.0000    0.0000 C   0  0
    0.0000    0.0000    0.0000 C   0  0
    0.0000    0.0000    0.0000 C   0  0
    0.0000    0.0000    0.0000 C   0  0
    0.0000    0.0000    0.0000 O   0  0
    0.0000    0.0000    0.0000 O   0  0
  1  2  1  0
  2  3  1  0
  2  4  1  0
  2  5  1  0
  5  6  1  0
  6  7  2  3
  7  8  1  0
  8  9  2  3
  9 10  1  0
 10 11  2  3
 11  6  1  0
  9 12  1  0
 12 13  1  0
 12 14  2  0
M  CHG  1   2   1
M  END
> <Name>
.alpha.-Ammonium-4-toluic acid chloride

> <SMILES>
C[N+](C)(C)Cc1ccc(cc1)C(O)=O

> <Reference>
SAR and QSAR in Env Res (1994) 2:159

> <Id>
CRO-257

> <Activity>
NEG

> <Predicted Value>
0.035  NEG

> <Used>
1

> <Status>
Non-Sensitizer

> <isSensitizer>
0

$$$$
4-Acetylphenylbenzoate
  SciTegic06161615552D

 18 19  0  0  0  0            999 V2000
    0.0000    0.0000    0.0000 C   0  0
    0.0000    0.0000    0.0000 C   0  0
    0.0000    0.0000    0.0000 O   0  0
    0.0000    0.0000    0.0000 C   0  0
    0.0000    0.0000    0.0000 C   0  0
    0.0000    0.0000    0.0000 C   0  0
    0.0000    0.0000    0.0000 C   0  0
    0.0000    0.0000    0.0000 O   0  0
    0.0000    0.0000    0.0000 C   0  0
    0.0000    0.0000    0.0000 O   0  0
    0.0000    0.0000    0.0000 C   0  0
    0.0000    0.0000    0.0000 C   0  0
    0.0000    0.0000    0.0000 C   0  0
    0.0000    0.0000    0.0000 C   0  0
    0.0000    0.0000    0.0000 C   0  0
    0.0000    0.0000    0.0000 C   0  0
    0.0000    0.0000    0.0000 C   0  0
    0.0000    0.0000    0.0000 C   0  0
  1  2  1  0
  2  3  2  0
  2  4  1  0
  4  5  2  3
  5  6  1  0
  6  7  2  3
  7  8  1  0
  8  9  1  0
  9 10  2  0
  9 11  1  0
 11 12  2  3
 12 13  1  0
 13 14  2  3
 14 15  1  0
 15 16  2  3
 16 11  1  0
  7 17  1  0
 17 18  2  3
 18  4  1  0
M  END
> <Name>
4-Acetylphenylbenzoate

> <SMILES>
CC(=O)c2ccc(OC(=O)c1ccccc1)cc2

> <Reference>
SAR and QSAR in Env Res (1994) 2:159

> <Id>
CRO-271

> <Activity>
POS

> <Predicted Value>
1      POS

> <Used>
1

> <Status>
Sensitizer

> <isSensitizer>
1

$$$$
Croconazole HCl
  SciTegic06161615552D

 22 24  0  0  0  0            999 V2000
    0.0000    0.0000    0.0000 Cl  0  0
    0.0000    0.0000    0.0000 C   0  0
    0.0000    0.0000    0.0000 C   0  0
    0.0000    0.0000    0.0000 C   0  0
    0.0000    0.0000    0.0000 C   0  0
    0.0000    0.0000    0.0000 C   0  0
    0.0000    0.0000    0.0000 C   0  0
    0.0000    0.0000    0.0000 O   0  0
    0.0000    0.0000    0.0000 C   0  0
    0.0000    0.0000    0.0000 C   0  0
    0.0000    0.0000    0.0000 C   0  0
    0.0000    0.0000    0.0000 C   0  0
    0.0000    0.0000    0.0000 C   0  0
    0.0000    0.0000    0.0000 C   0  0
    0.0000    0.0000    0.0000 C   0  0
    0.0000    0.0000    0.0000 C   0  0
    0.0000    0.0000    0.0000 N   0  0
    0.0000    0.0000    0.0000 C   0  0
    0.0000    0.0000    0.0000 C   0  0
    0.0000    0.0000    0.0000 N   0  0
    0.0000    0.0000    0.0000 C   0  0
    0.0000    0.0000    0.0000 C   0  0
  1  2  1  0
  2  3  2  3
  3  4  1  0
  4  5  2  3
  5  6  1  0
  6  7  1  0
  7  8  1  0
  8  9  1  0
  9 10  2  3
 10 11  1  0
 11 12  2  3
 12 13  1  0
 13 14  2  3
 14  9  1  0
 14 15  1  0
 15 16  2  0
 15 17  1  0
 17 18  1  0
 18 19  2  3
 19 20  1  0
 20 21  2  3
 21 17  1  0
  6 22  2  3
 22  2  1  0
M  END
> <Name>
Croconazole HCl

> <SMILES>
Clc3cccc(COc1ccccc1C(=C)n2ccnc2)c3

> <Reference>
Contact Dermatitis (1991) 25:39

> <Id>
77175-51-0

> <Activity>
POS

> <Predicted Value>
0.998  POS

> <Used>
1

> <Status>
Sensitizer

> <isSensitizer>
1

$$$$
Sodium 4-phenol sulfonate
  SciTegic06161615552D

 11 11  0  0  0  0            999 V2000
    0.0000    0.0000    0.0000 O   0  0
    0.0000    0.0000    0.0000 C   0  0
    0.0000    0.0000    0.0000 C   0  0
    0.0000    0.0000    0.0000 C   0  0
    0.0000    0.0000    0.0000 C   0  0
    0.0000    0.0000    0.0000 C   0  0
    0.0000    0.0000    0.0000 C   0  0
    0.0000    0.0000    0.0000 S   0  0
    0.0000    0.0000    0.0000 O   0  0
    0.0000    0.0000    0.0000 O   0  0
    0.0000    0.0000    0.0000 O   0  0
  1  2  1  0
  2  3  2  3
  3  4  1  0
  4  5  2  3
  5  6  1  0
  6  7  2  3
  7  2  1  0
  5  8  1  0
  8  9  1  0
  8 10  2  0
  8 11  2  0
M  END
> <Name>
Sodium 4-phenol sulfonate

> <SMILES>
Oc1ccc(cc1)S(O)(=O)=O

> <Reference>
SAR and QSAR in Env Res (1994) 2:159

> <Id>
CRO-168

> <Activity>
NEG

> <Predicted Value>
0.001  NEG

> <Used>
1

> <Status>
Non-Sensitizer

> <isSensitizer>
0

$$$$
Benzyl peroxide
  SciTegic06161615552D

 16 17  0  0  0  0            999 V2000
    0.0000    0.0000    0.0000 C   0  0
    0.0000    0.0000    0.0000 O   0  0
    0.0000    0.0000    0.0000 O   0  0
    0.0000    0.0000    0.0000 C   0  0
    0.0000    0.0000    0.0000 C   0  0
    0.0000    0.0000    0.0000 C   0  0
    0.0000    0.0000    0.0000 C   0  0
    0.0000    0.0000    0.0000 C   0  0
    0.0000    0.0000    0.0000 C   0  0
    0.0000    0.0000    0.0000 C   0  0
    0.0000    0.0000    0.0000 C   0  0
    0.0000    0.0000    0.0000 C   0  0
    0.0000    0.0000    0.0000 C   0  0
    0.0000    0.0000    0.0000 C   0  0
    0.0000    0.0000    0.0000 C   0  0
    0.0000    0.0000    0.0000 C   0  0
  1  2  1  0
  2  3  1  0
  3  4  1  0
  4  5  1  0
  5  6  2  3
  6  7  1  0
  7  8  2  3
  8  9  1  0
  9 10  2  3
 10  5  1  0
  1 11  1  0
 11 12  2  3
 12 13  1  0
 13 14  2  3
 14 15  1  0
 15 16  2  3
 16 11  1  0
M  END
> <Name>
Benzyl peroxide

> <SMILES>
C(OOCc1ccccc1)c2ccccc2

> <Reference>
SAR and QSAR in Env Res (1994) 2:159

> <Id>
13822-09-8

> <Activity>
POS

> <Predicted Value>
0.977  POS

> <Used>
1

> <Status>
Sensitizer

> <isSensitizer>
1

$$$$
Anethole
  SciTegic06161615552D

 11 11  0  0  0  0            999 V2000
    0.0000    0.0000    0.0000 C   0  0
    0.0000    0.0000    0.0000 O   0  0
    0.0000    0.0000    0.0000 C   0  0
    0.0000    0.0000    0.0000 C   0  0
    0.0000    0.0000    0.0000 C   0  0
    0.0000    0.0000    0.0000 C   0  0
    0.0000    0.0000    0.0000 C   0  0
    0.0000    0.0000    0.0000 C   0  0
    0.0000    0.0000    0.0000 C   0  0
    0.0000    0.0000    0.0000 C   0  0
    0.0000    0.0000    0.0000 C   0  0
  1  2  1  0
  2  3  1  0
  3  4  2  3
  4  5  1  0
  5  6  2  3
  6  7  1  0
  7  8  2  3
  8  9  1  0
  6 10  1  0
 10 11  2  3
 11  3  1  0
M  END
> <Name>
Anethole

> <SMILES>
COc1ccc(C=CC)cc1

> <Reference>
Contact Dermatitis (1992) 27:98

> <Id>
104-46-1

> <Activity>
POS

> <Predicted Value>
0.998  POS

> <Used>
1

> <Status>
Sensitizer

> <isSensitizer>
1

$$$$
Benzoyloxy-3;5-benzenedicarboxylic acid
  SciTegic06161615552D

 21 22  0  0  0  0            999 V2000
    0.0000    0.0000    0.0000 O   0  0
    0.0000    0.0000    0.0000 C   0  0
    0.0000    0.0000    0.0000 O   0  0
    0.0000    0.0000    0.0000 C   0  0
    0.0000    0.0000    0.0000 C   0  0
    0.0000    0.0000    0.0000 C   0  0
    0.0000    0.0000    0.0000 C   0  0
    0.0000    0.0000    0.0000 C   0  0
    0.0000    0.0000    0.0000 C   0  0
    0.0000    0.0000    0.0000 C   0  0
    0.0000    0.0000    0.0000 O   0  0
    0.0000    0.0000    0.0000 O   0  0
    0.0000    0.0000    0.0000 C   0  0
    0.0000    0.0000    0.0000 C   0  0
    0.0000    0.0000    0.0000 C   0  0
    0.0000    0.0000    0.0000 C   0  0
    0.0000    0.0000    0.0000 C   0  0
    0.0000    0.0000    0.0000 C   0  0
    0.0000    0.0000    0.0000 C   0  0
    0.0000    0.0000    0.0000 O   0  0
    0.0000    0.0000    0.0000 O   0  0
  1  2  1  0
  2  3  2  0
  2  4  1  0
  4  5  2  3
  5  6  1  0
  6  7  2  3
  7  8  1  0
  8  9  2  3
  9  4  1  0
  8 10  1  0
 10 11  2  0
 10 12  1  0
 12 13  1  0
 13 14  2  3
 14 15  1  0
 15 16  2  3
 16 17  1  0
 17 18  2  3
 18 13  1  0
  6 19  1  0
 19 20  1  0
 19 21  2  0
M  END
> <Name>
Benzoyloxy-3;5-benzenedicarboxylic acid

> <SMILES>
OC(=O)c1cc(cc(c1)C(=O)Oc2ccccc2)C(O)=O

> <Reference>
SAR and QSAR in Env Res (1994) 2:159

> <Id>
CRO-225

> <Activity>
POS

> <Predicted Value>
1      POS

> <Used>
1

> <Status>
Sensitizer

> <isSensitizer>
1

$$$$
Octopirox
  SciTegic06161615552D

 17 17  0  0  0  0            999 V2000
    0.0000    0.0000    0.0000 C   0  0
    0.0000    0.0000    0.0000 C   0  0
    0.0000    0.0000    0.0000 C   0  0
    0.0000    0.0000    0.0000 C   0  0
    0.0000    0.0000    0.0000 C   0  0
    0.0000    0.0000    0.0000 C   0  0
    0.0000    0.0000    0.0000 C   0  0
    0.0000    0.0000    0.0000 C   0  0
    0.0000    0.0000    0.0000 C   0  0
    0.0000    0.0000    0.0000 O   0  0
    0.0000    0.0000    0.0000 N   0  0
    0.0000    0.0000    0.0000 O   0  0
    0.0000    0.0000    0.0000 C   0  0
    0.0000    0.0000    0.0000 C   0  0
    0.0000    0.0000    0.0000 C   0  0
    0.0000    0.0000    0.0000 C   0  0
    0.0000    0.0000    0.0000 C   0  0
  1  2  1  0
  2  3  1  0
  3  4  1  0
  4  5  2  3
  5  6  1  0
  6  7  1  0
  6  8  2  3
  8  9  1  0
  9 10  2  0
  9 11  1  0
 11  4  1  0
 11 12  1  0
  2 13  1  0
 13 14  1  0
 14 15  1  0
 14 16  1  0
 14 17  1  0
M  END
> <Name>
Octopirox

> <SMILES>
CC(Cc1cc(C)cc(=O)n1O)CC(C)(C)C

> <Reference>
SAR and QSAR in Env Res (1994) 2:159

> <Id>
50650-76-5

> <Activity>
POS

> <Predicted Value>
1      POS

> <Used>
1

> <Status>
Sensitizer

> <isSensitizer>
1

$$$$
4-Amino-2-hydroxytoluene
  SciTegic06161615552D

  9  9  0  0  0  0            999 V2000
    0.0000    0.0000    0.0000 C   0  0
    0.0000    0.0000    0.0000 C   0  0
    0.0000    0.0000    0.0000 C   0  0
    0.0000    0.0000    0.0000 C   0  0
    0.0000    0.0000    0.0000 C   0  0
    0.0000    0.0000    0.0000 N   0  0
    0.0000    0.0000    0.0000 C   0  0
    0.0000    0.0000    0.0000 C   0  0
    0.0000    0.0000    0.0000 O   0  0
  1  2  1  0
  2  3  2  3
  3  4  1  0
  4  5  2  3
  5  6  1  0
  5  7  1  0
  7  8  2  3
  8  2  1  0
  8  9  1  0
M  END
> <Name>
4-Amino-2-hydroxytoluene

> <SMILES>
Cc1ccc(N)cc1O

> <Reference>
J Am Coll Toxicol (1989) 8(4):569

> <Id>
2835-95-2

> <Activity>
POS

> <Predicted Value>
1      POS

> <Used>
1

> <Status>
Sensitizer

> <isSensitizer>
1

$$$$
Norbornanacetyloxy-4-benzene sulfonate
  SciTegic06161615552D

 21 23  0  0  0  0            999 V2000
    0.0000    0.0000    0.0000 O   0  0
    0.0000    0.0000    0.0000 S   0  0
    0.0000    0.0000    0.0000 O   0  0
    0.0000    0.0000    0.0000 O   0  0
    0.0000    0.0000    0.0000 C   0  0
    0.0000    0.0000    0.0000 C   0  0
    0.0000    0.0000    0.0000 C   0  0
    0.0000    0.0000    0.0000 C   0  0
    0.0000    0.0000    0.0000 O   0  0
    0.0000    0.0000    0.0000 C   0  0
    0.0000    0.0000    0.0000 O   0  0
    0.0000    0.0000    0.0000 C   0  0
    0.0000    0.0000    0.0000 C   0  0
    0.0000    0.0000    0.0000 C   0  0
    0.0000    0.0000    0.0000 C   0  0
    0.0000    0.0000    0.0000 C   0  0
    0.0000    0.0000    0.0000 C   0  0
    0.0000    0.0000    0.0000 C   0  0
    0.0000    0.0000    0.0000 C   0  0
    0.0000    0.0000    0.0000 C   0  0
    0.0000    0.0000    0.0000 C   0  0
  1  2  1  0
  2  3  2  0
  2  4  2  0
  2  5  1  0
  5  6  2  3
  6  7  1  0
  7  8  2  3
  8  9  1  0
  9 10  1  0
 10 11  2  0
 10 12  1  0
 12 13  1  0
 13 14  1  0
 14 15  1  0
 15 16  1  0
 16 17  1  0
 17 18  1  0
 18 13  1  0
 18 19  1  0
 19 15  1  0
  8 20  1  0
 20 21  2  3
 21  5  1  0
M  END
> <Name>
Norbornanacetyloxy-4-benzene sulfonate

> <SMILES>
OS(=O)(=O)c3ccc(OC(=O)CC1CC2CCC1C2)cc3

> <Reference>
SAR and QSAR in Env Res (1994) 2:159

> <Id>
CRO-146

> <Activity>
POS

> <Predicted Value>
1      POS

> <Used>
1

> <Status>
Sensitizer

> <isSensitizer>
1

$$$$
Musk xylene
  SciTegic06161615552D

 21 21  0  0  0  0            999 V2000
    0.0000    0.0000    0.0000 C   0  0
    0.0000    0.0000    0.0000 C   0  0
    0.0000    0.0000    0.0000 C   0  0
    0.0000    0.0000    0.0000 N   0  0
    0.0000    0.0000    0.0000 O   0  0
    0.0000    0.0000    0.0000 O   0  0
    0.0000    0.0000    0.0000 C   0  0
    0.0000    0.0000    0.0000 C   0  0
    0.0000    0.0000    0.0000 C   0  0
    0.0000    0.0000    0.0000 N   0  0
    0.0000    0.0000    0.0000 O   0  0
    0.0000    0.0000    0.0000 O   0  0
    0.0000    0.0000    0.0000 C   0  0
    0.0000    0.0000    0.0000 C   0  0
    0.0000    0.0000    0.0000 N   0  0
    0.0000    0.0000    0.0000 O   0  0
    0.0000    0.0000    0.0000 O   0  0
    0.0000    0.0000    0.0000 C   0  0
    0.0000    0.0000    0.0000 C   0  0
    0.0000    0.0000    0.0000 C   0  0
    0.0000    0.0000    0.0000 C   0  0
  1  2  1  0
  2  3  2  3
  3  4  1  0
  4  5  2  0
  4  6  2  0
  3  7  1  0
  7  8  1  0
  7  9  2  3
  9 10  1  0
 10 11  2  0
 10 12  2  0
  9 13  1  0
 13 14  2  3
 14  2  1  0
 14 15  1  0
 15 16  2  0
 15 17  2  0
 13 18  1  0
 18 19  1  0
 18 20  1  0
 18 21  1  0
M  END
> <Name>
Musk xylene

> <SMILES>
Cc1c(N(=O)=O)c(C)c(N(=O)=O)c(c1N(=O)=O)C(C)(C)C

> <Reference>
SAR and QSAR in Env Res (1994) 2:159

> <Id>
81-15-2

> <Activity>
NEG

> <Predicted Value>
0      NEG

> <Used>
1

> <Status>
Non-Sensitizer

> <isSensitizer>
0

$$$$
7-Methoxycoumarin
  SciTegic06161615552D

 13 14  0  0  0  0            999 V2000
    0.0000    0.0000    0.0000 C   0  0
    0.0000    0.0000    0.0000 O   0  0
    0.0000    0.0000    0.0000 C   0  0
    0.0000    0.0000    0.0000 C   0  0
    0.0000    0.0000    0.0000 C   0  0
    0.0000    0.0000    0.0000 C   0  0
    0.0000    0.0000    0.0000 C   0  0
    0.0000    0.0000    0.0000 C   0  0
    0.0000    0.0000    0.0000 C   0  0
    0.0000    0.0000    0.0000 O   0  0
    0.0000    0.0000    0.0000 O   0  0
    0.0000    0.0000    0.0000 C   0  0
    0.0000    0.0000    0.0000 C   0  0
  1  2  1  0
  2  3  1  0
  3  4  2  3
  4  5  1  0
  5  6  2  3
  6  7  1  0
  7  8  2  3
  8  9  1  0
  9 10  2  0
  9 11  1  0
 11 12  1  0
 12  6  1  0
 12 13  2  3
 13  3  1  0
M  END
> <Name>
7-Methoxycoumarin

> <SMILES>
COc2ccc1ccc(=O)oc1c2

> <Reference>
Contact Dermatitis (1986) 15:157

> <Id>
531-59-9

> <Activity>
NEG

> <Predicted Value>
0      NEG

> <Used>
1

> <Status>
Non-Sensitizer

> <isSensitizer>
0

$$$$
4-tert-butyl-4'-methoxybenzoylmethane
  SciTegic06161615552D

 23 24  0  0  0  0            999 V2000
    0.0000    0.0000    0.0000 C   0  0
    0.0000    0.0000    0.0000 O   0  0
    0.0000    0.0000    0.0000 C   0  0
    0.0000    0.0000    0.0000 C   0  0
    0.0000    0.0000    0.0000 C   0  0
    0.0000    0.0000    0.0000 C   0  0
    0.0000    0.0000    0.0000 C   0  0
    0.0000    0.0000    0.0000 C   0  0
    0.0000    0.0000    0.0000 C   0  0
    0.0000    0.0000    0.0000 O   0  0
    0.0000    0.0000    0.0000 C   0  0
    0.0000    0.0000    0.0000 C   0  0
    0.0000    0.0000    0.0000 O   0  0
    0.0000    0.0000    0.0000 C   0  0
    0.0000    0.0000    0.0000 C   0  0
    0.0000    0.0000    0.0000 C   0  0
    0.0000    0.0000    0.0000 C   0  0
    0.0000    0.0000    0.0000 C   0  0
    0.0000    0.0000    0.0000 C   0  0
    0.0000    0.0000    0.0000 C   0  0
    0.0000    0.0000    0.0000 C   0  0
    0.0000    0.0000    0.0000 C   0  0
    0.0000    0.0000    0.0000 C   0  0
  1  2  1  0
  2  3  1  0
  3  4  2  3
  4  5  1  0
  5  6  2  3
  6  7  1  0
  7  8  2  3
  8  3  1  0
  6  9  1  0
  9 10  2  0
  9 11  1  0
 11 12  1  0
 12 13  2  0
 12 14  1  0
 14 15  2  3
 15 16  1  0
 16 17  2  3
 17 18  1  0
 18 19  2  3
 19 14  1  0
 17 20  1  0
 20 21  1  0
 20 22  1  0
 20 23  1  0
M  END
> <Name>
4-tert-butyl-4'-methoxybenzoylmethane

> <SMILES>
COc1ccc(cc1)C(=O)CC(=O)c2ccc(cc2)C(C)(C)C

> <Reference>
SAR and QSAR in Env Res (1994) 2:159

> <Id>
70356-09-1

> <Activity>
POS

> <Predicted Value>
0.951  POS

> <Used>
1

> <Status>
Sensitizer

> <isSensitizer>
1

$$$$
3-Methoxyphenyl benzoate
  SciTegic06161615552D

 17 18  0  0  0  0            999 V2000
    0.0000    0.0000    0.0000 C   0  0
    0.0000    0.0000    0.0000 O   0  0
    0.0000    0.0000    0.0000 C   0  0
    0.0000    0.0000    0.0000 C   0  0
    0.0000    0.0000    0.0000 C   0  0
    0.0000    0.0000    0.0000 C   0  0
    0.0000    0.0000    0.0000 C   0  0
    0.0000    0.0000    0.0000 O   0  0
    0.0000    0.0000    0.0000 C   0  0
    0.0000    0.0000    0.0000 O   0  0
    0.0000    0.0000    0.0000 C   0  0
    0.0000    0.0000    0.0000 C   0  0
    0.0000    0.0000    0.0000 C   0  0
    0.0000    0.0000    0.0000 C   0  0
    0.0000    0.0000    0.0000 C   0  0
    0.0000    0.0000    0.0000 C   0  0
    0.0000    0.0000    0.0000 C   0  0
  1  2  1  0
  2  3  1  0
  3  4  2  3
  4  5  1  0
  5  6  2  3
  6  7  1  0
  7  8  1  0
  8  9  1  0
  9 10  2  0
  9 11  1  0
 11 12  2  3
 12 13  1  0
 13 14  2  3
 14 15  1  0
 15 16  2  3
 16 11  1  0
  7 17  2  3
 17  3  1  0
M  END
> <Name>
3-Methoxyphenyl benzoate

> <SMILES>
COc2cccc(OC(=O)c1ccccc1)c2

> <Reference>
SAR and QSAR in Env Res (1994) 2:159

> <Id>
CRO-266

> <Activity>
POS

> <Predicted Value>
1      POS

> <Used>
1

> <Status>
Sensitizer

> <isSensitizer>
1

$$$$
2-Chloro-p-phenylenediamine
  SciTegic06161615552D

  9  9  0  0  0  0            999 V2000
    0.0000    0.0000    0.0000 N   0  0
    0.0000    0.0000    0.0000 C   0  0
    0.0000    0.0000    0.0000 C   0  0
    0.0000    0.0000    0.0000 C   0  0
    0.0000    0.0000    0.0000 C   0  0
    0.0000    0.0000    0.0000 N   0  0
    0.0000    0.0000    0.0000 C   0  0
    0.0000    0.0000    0.0000 Cl  0  0
    0.0000    0.0000    0.0000 C   0  0
  1  2  1  0
  2  3  2  3
  3  4  1  0
  4  5  2  3
  5  6  1  0
  5  7  1  0
  7  8  1  0
  7  9  2  3
  9  2  1  0
M  END
> <Name>
2-Chloro-p-phenylenediamine

> <SMILES>
Nc1ccc(N)c(Cl)c1

> <Reference>
J Am Coll Toxicol (1992) 11(4):521

> <Id>
615-66-7

> <Activity>
POS

> <Predicted Value>
1      POS

> <Used>
1

> <Status>
Sensitizer

> <isSensitizer>
1

$$$$
4-Aminobenzoic acid
  SciTegic06161615552D

 10 10  0  0  0  0            999 V2000
    0.0000    0.0000    0.0000 N   0  0
    0.0000    0.0000    0.0000 C   0  0
    0.0000    0.0000    0.0000 C   0  0
    0.0000    0.0000    0.0000 C   0  0
    0.0000    0.0000    0.0000 C   0  0
    0.0000    0.0000    0.0000 C   0  0
    0.0000    0.0000    0.0000 C   0  0
    0.0000    0.0000    0.0000 C   0  0
    0.0000    0.0000    0.0000 O   0  0
    0.0000    0.0000    0.0000 O   0  0
  1  2  1  0
  2  3  2  3
  3  4  1  0
  4  5  2  3
  5  6  1  0
  6  7  2  3
  7  2  1  0
  5  8  1  0
  8  9  1  0
  8 10  2  0
M  END
> <Name>
4-Aminobenzoic acid

> <SMILES>
Nc1ccc(cc1)C(O)=O

> <Reference>
Contact Dermatitis (1981) 7:248

> <Id>
150-13-0

> <Activity>
NEG

> <Predicted Value>
1      POS

> <Used>
0

> <Status>
Non-Sensitizer

> <isSensitizer>
0

$$$$
3-tert-Butylphenylbenzoate
  SciTegic06161615552D

 19 20  0  0  0  0            999 V2000
    0.0000    0.0000    0.0000 C   0  0
    0.0000    0.0000    0.0000 C   0  0
    0.0000    0.0000    0.0000 C   0  0
    0.0000    0.0000    0.0000 C   0  0
    0.0000    0.0000    0.0000 C   0  0
    0.0000    0.0000    0.0000 C   0  0
    0.0000    0.0000    0.0000 C   0  0
    0.0000    0.0000    0.0000 C   0  0
    0.0000    0.0000    0.0000 C   0  0
    0.0000    0.0000    0.0000 O   0  0
    0.0000    0.0000    0.0000 C   0  0
    0.0000    0.0000    0.0000 O   0  0
    0.0000    0.0000    0.0000 C   0  0
    0.0000    0.0000    0.0000 C   0  0
    0.0000    0.0000    0.0000 C   0  0
    0.0000    0.0000    0.0000 C   0  0
    0.0000    0.0000    0.0000 C   0  0
    0.0000    0.0000    0.0000 C   0  0
    0.0000    0.0000    0.0000 C   0  0
  1  2  1  0
  2  3  1  0
  2  4  1  0
  2  5  1  0
  5  6  2  3
  6  7  1  0
  7  8  2  3
  8  9  1  0
  9 10  1  0
 10 11  1  0
 11 12  2  0
 11 13  1  0
 13 14  2  3
 14 15  1  0
 15 16  2  3
 16 17  1  0
 17 18  2  3
 18 13  1  0
  9 19  2  3
 19  5  1  0
M  END
> <Name>
3-tert-Butylphenylbenzoate

> <SMILES>
CC(C)(C)c2cccc(OC(=O)c1ccccc1)c2

> <Reference>
SAR and QSAR in Env Res (1994) 2:159

> <Id>
CRO-273

> <Activity>
POS

> <Predicted Value>
1      POS

> <Used>
1

> <Status>
Sensitizer

> <isSensitizer>
1

$$$$
Hexylcinnamic aldehyde
  SciTegic06161615552D

 16 16  0  0  0  0            999 V2000
    0.0000    0.0000    0.0000 C   0  0
    0.0000    0.0000    0.0000 C   0  0
    0.0000    0.0000    0.0000 C   0  0
    0.0000    0.0000    0.0000 C   0  0
    0.0000    0.0000    0.0000 C   0  0
    0.0000    0.0000    0.0000 C   0  0
    0.0000    0.0000    0.0000 C   0  0
    0.0000    0.0000    0.0000 C   0  0
    0.0000    0.0000    0.0000 O   0  0
    0.0000    0.0000    0.0000 C   0  0
    0.0000    0.0000    0.0000 C   0  0
    0.0000    0.0000    0.0000 C   0  0
    0.0000    0.0000    0.0000 C   0  0
    0.0000    0.0000    0.0000 C   0  0
    0.0000    0.0000    0.0000 C   0  0
    0.0000    0.0000    0.0000 C   0  0
  1  2  1  0
  2  3  1  0
  3  4  1  0
  4  5  1  0
  5  6  1  0
  6  7  1  0
  7  8  1  0
  8  9  2  0
  7 10  2  3
 10 11  1  0
 11 12  2  3
 12 13  1  0
 13 14  2  3
 14 15  1  0
 15 16  2  3
 16 11  1  0
M  END
> <Name>
Hexylcinnamic aldehyde

> <SMILES>
CCCCCCC(C=O)=Cc1ccccc1

> <Reference>
SAR and QSAR in Env Res (1994) 2:159

> <Id>
101-86-0

> <Activity>
POS

> <Predicted Value>
1      POS

> <Used>
1

> <Status>
Sensitizer

> <isSensitizer>
1

$$$$
4-Methyl catechol
  SciTegic06161615552D

  9  9  0  0  0  0            999 V2000
    0.0000    0.0000    0.0000 C   0  0
    0.0000    0.0000    0.0000 C   0  0
    0.0000    0.0000    0.0000 C   0  0
    0.0000    0.0000    0.0000 C   0  0
    0.0000    0.0000    0.0000 C   0  0
    0.0000    0.0000    0.0000 O   0  0
    0.0000    0.0000    0.0000 C   0  0
    0.0000    0.0000    0.0000 O   0  0
    0.0000    0.0000    0.0000 C   0  0
  1  2  1  0
  2  3  2  3
  3  4  1  0
  4  5  2  3
  5  6  1  0
  5  7  1  0
  7  8  1  0
  7  9  2  3
  9  2  1  0
M  END
> <Name>
4-Methyl catechol

> <SMILES>
Cc1ccc(O)c(O)c1

> <Reference>
Contact Dermatitis (1992) 27:98

> <Id>
452-86-8

> <Activity>
POS

> <Predicted Value>
0.999  POS

> <Used>
1

> <Status>
Sensitizer

> <isSensitizer>
1

$$$$
4-Hydroxybenzoic acid
  SciTegic06161615552D

 10 10  0  0  0  0            999 V2000
    0.0000    0.0000    0.0000 O   0  0
    0.0000    0.0000    0.0000 C   0  0
    0.0000    0.0000    0.0000 O   0  0
    0.0000    0.0000    0.0000 C   0  0
    0.0000    0.0000    0.0000 C   0  0
    0.0000    0.0000    0.0000 C   0  0
    0.0000    0.0000    0.0000 C   0  0
    0.0000    0.0000    0.0000 O   0  0
    0.0000    0.0000    0.0000 C   0  0
    0.0000    0.0000    0.0000 C   0  0
  1  2  1  0
  2  3  2  0
  2  4  1  0
  4  5  2  3
  5  6  1  0
  6  7  2  3
  7  8  1  0
  7  9  1  0
  9 10  2  3
 10  4  1  0
M  END
> <Name>
4-Hydroxybenzoic acid

> <SMILES>
OC(=O)c1ccc(O)cc1

> <Reference>
Contact Dermatitis (1981) 7:248

> <Id>
99-96-7

> <Activity>
POS

> <Predicted Value>
0.004  NEG

> <Used>
0

> <Status>
Sensitizer

> <isSensitizer>
1

$$$$
Amyl cinnamic aldehyde
  SciTegic06161615552D

 15 15  0  0  0  0            999 V2000
    0.0000    0.0000    0.0000 C   0  0
    0.0000    0.0000    0.0000 C   0  0
    0.0000    0.0000    0.0000 C   0  0
    0.0000    0.0000    0.0000 C   0  0
    0.0000    0.0000    0.0000 C   0  0
    0.0000    0.0000    0.0000 C   0  0
    0.0000    0.0000    0.0000 C   0  0
    0.0000    0.0000    0.0000 O   0  0
    0.0000    0.0000    0.0000 C   0  0
    0.0000    0.0000    0.0000 C   0  0
    0.0000    0.0000    0.0000 C   0  0
    0.0000    0.0000    0.0000 C   0  0
    0.0000    0.0000    0.0000 C   0  0
    0.0000    0.0000    0.0000 C   0  0
    0.0000    0.0000    0.0000 C   0  0
  1  2  1  0
  2  3  1  0
  3  4  1  0
  4  5  1  0
  5  6  1  0
  6  7  1  0
  7  8  2  0
  6  9  2  3
  9 10  1  0
 10 11  2  3
 11 12  1  0
 12 13  2  3
 13 14  1  0
 14 15  2  3
 15 10  1  0
M  END
> <Name>
Amyl cinnamic aldehyde

> <SMILES>
CCCCCC(C=O)=Cc1ccccc1

> <Reference>
Howard I Maibach (priv comm)

> <Id>
122-40-7

> <Activity>
POS

> <Predicted Value>
1      POS

> <Used>
1

> <Status>
Sensitizer

> <isSensitizer>
1

$$$$
o-Aminophenol
  SciTegic06161615552D

  8  8  0  0  0  0            999 V2000
    0.0000    0.0000    0.0000 N   0  0
    0.0000    0.0000    0.0000 C   0  0
    0.0000    0.0000    0.0000 C   0  0
    0.0000    0.0000    0.0000 C   0  0
    0.0000    0.0000    0.0000 C   0  0
    0.0000    0.0000    0.0000 C   0  0
    0.0000    0.0000    0.0000 C   0  0
    0.0000    0.0000    0.0000 O   0  0
  1  2  1  0
  2  3  2  3
  3  4  1  0
  4  5  2  3
  5  6  1  0
  6  7  2  3
  7  2  1  0
  7  8  1  0
M  END
> <Name>
o-Aminophenol

> <SMILES>
Nc1ccccc1O

> <Reference>
Contact Dermatitis (1985) 13:226

> <Id>
95-55-6

> <Activity>
POS

> <Predicted Value>
0.998  POS

> <Used>
1

> <Status>
Sensitizer

> <isSensitizer>
1

$$$$
Benzyl cinnamate
  SciTegic06161615552D

 18 19  0  0  0  0            999 V2000
    0.0000    0.0000    0.0000 O   0  0
    0.0000    0.0000    0.0000 C   0  0
    0.0000    0.0000    0.0000 O   0  0
    0.0000    0.0000    0.0000 C   0  0
    0.0000    0.0000    0.0000 C   0  0
    0.0000    0.0000    0.0000 C   0  0
    0.0000    0.0000    0.0000 C   0  0
    0.0000    0.0000    0.0000 C   0  0
    0.0000    0.0000    0.0000 C   0  0
    0.0000    0.0000    0.0000 C   0  0
    0.0000    0.0000    0.0000 C   0  0
    0.0000    0.0000    0.0000 C   0  0
    0.0000    0.0000    0.0000 C   0  0
    0.0000    0.0000    0.0000 C   0  0
    0.0000    0.0000    0.0000 C   0  0
    0.0000    0.0000    0.0000 C   0  0
    0.0000    0.0000    0.0000 C   0  0
    0.0000    0.0000    0.0000 C   0  0
  1  2  2  0
  2  3  1  0
  3  4  1  0
  4  5  1  0
  5  6  2  3
  6  7  1  0
  7  8  2  3
  8  9  1  0
  9 10  2  3
 10  5  1  0
  2 11  1  0
 11 12  2  3
 12 13  1  0
 13 14  2  3
 14 15  1  0
 15 16  2  3
 16 17  1  0
 17 18  2  3
 18 13  1  0
M  END
> <Name>
Benzyl cinnamate

> <SMILES>
O=C(OCc1ccccc1)C=Cc2ccccc2

> <Reference>
Contact Dermatitis (1988) 19:296

> <Id>
103-41-3

> <Activity>
POS

> <Predicted Value>
0.999  POS

> <Used>
1

> <Status>
Sensitizer

> <isSensitizer>
1

$$$$
3-Aminophenol
  SciTegic06161615552D

  8  8  0  0  0  0            999 V2000
    0.0000    0.0000    0.0000 N   0  0
    0.0000    0.0000    0.0000 C   0  0
    0.0000    0.0000    0.0000 C   0  0
    0.0000    0.0000    0.0000 C   0  0
    0.0000    0.0000    0.0000 C   0  0
    0.0000    0.0000    0.0000 C   0  0
    0.0000    0.0000    0.0000 O   0  0
    0.0000    0.0000    0.0000 C   0  0
  1  2  1  0
  2  3  2  3
  3  4  1  0
  4  5  2  3
  5  6  1  0
  6  7  1  0
  6  8  2  3
  8  2  1  0
M  END
> <Name>
3-Aminophenol

> <SMILES>
Nc1cccc(O)c1

> <Reference>
SAR and QSAR in Env Res (1994) 2:159

> <Id>
591-27-5

> <Activity>
POS

> <Predicted Value>
1      POS

> <Used>
1

> <Status>
Sensitizer

> <isSensitizer>
1

$$$$
4-Chloro-3-methylphenol
  SciTegic06161615552D

  9  9  0  0  0  0            999 V2000
    0.0000    0.0000    0.0000 C   0  0
    0.0000    0.0000    0.0000 C   0  0
    0.0000    0.0000    0.0000 C   0  0
    0.0000    0.0000    0.0000 C   0  0
    0.0000    0.0000    0.0000 O   0  0
    0.0000    0.0000    0.0000 C   0  0
    0.0000    0.0000    0.0000 C   0  0
    0.0000    0.0000    0.0000 C   0  0
    0.0000    0.0000    0.0000 Cl  0  0
  1  2  1  0
  2  3  2  3
  3  4  1  0
  4  5  1  0
  4  6  2  3
  6  7  1  0
  7  8  2  3
  8  2  1  0
  8  9  1  0
M  END
> <Name>
4-Chloro-3-methylphenol

> <SMILES>
Cc1cc(O)ccc1Cl

> <Reference>
Contact Dermatitis (1984) 11:11

> <Id>
59-50-7

> <Activity>
POS

> <Predicted Value>
0.002  NEG

> <Used>
0

> <Status>
Sensitizer

> <isSensitizer>
1

$$$$
Syringaaldehyde
  SciTegic06161615552D

 13 13  0  0  0  0            999 V2000
    0.0000    0.0000    0.0000 C   0  0
    0.0000    0.0000    0.0000 O   0  0
    0.0000    0.0000    0.0000 C   0  0
    0.0000    0.0000    0.0000 C   0  0
    0.0000    0.0000    0.0000 C   0  0
    0.0000    0.0000    0.0000 C   0  0
    0.0000    0.0000    0.0000 O   0  0
    0.0000    0.0000    0.0000 C   0  0
    0.0000    0.0000    0.0000 C   0  0
    0.0000    0.0000    0.0000 O   0  0
    0.0000    0.0000    0.0000 C   0  0
    0.0000    0.0000    0.0000 C   0  0
    0.0000    0.0000    0.0000 O   0  0
  1  2  1  0
  2  3  1  0
  3  4  2  3
  4  5  1  0
  5  6  1  0
  6  7  2  0
  5  8  2  3
  8  9  1  0
  9 10  1  0
 10 11  1  0
  9 12  2  3
 12  3  1  0
 12 13  1  0
M  END
> <Name>
Syringaaldehyde

> <SMILES>
COc1cc(C=O)cc(OC)c1O

> <Reference>
SAR and QSAR in Env Res (1994) 2:159

> <Id>
134-96-3

> <Activity>
POS

> <Predicted Value>
0.964  POS

> <Used>
1

> <Status>
Sensitizer

> <isSensitizer>
1

$$$$
Sodium benzoate
  SciTegic06161615552D

  9  9  0  0  0  0            999 V2000
    0.0000    0.0000    0.0000 O   0  0
    0.0000    0.0000    0.0000 C   0  0
    0.0000    0.0000    0.0000 O   0  0
    0.0000    0.0000    0.0000 C   0  0
    0.0000    0.0000    0.0000 C   0  0
    0.0000    0.0000    0.0000 C   0  0
    0.0000    0.0000    0.0000 C   0  0
    0.0000    0.0000    0.0000 C   0  0
    0.0000    0.0000    0.0000 C   0  0
  1  2  1  0
  2  3  2  0
  2  4  1  0
  4  5  2  3
  5  6  1  0
  6  7  2  3
  7  8  1  0
  8  9  2  3
  9  4  1  0
M  END
> <Name>
Sodium benzoate

> <SMILES>
OC(=O)c1ccccc1

> <Reference>
SAR and QSAR in Env Res (1994) 2:159

> <Id>
532-32-1

> <Activity>
NEG

> <Predicted Value>
0.141  NEG

> <Used>
1

> <Status>
Non-Sensitizer

> <isSensitizer>
0

$$$$
Carboxymethyl-4-hydroxythiobenzoate
  SciTegic06161615552D

 14 14  0  0  0  0            999 V2000
    0.0000    0.0000    0.0000 O   0  0
    0.0000    0.0000    0.0000 C   0  0
    0.0000    0.0000    0.0000 O   0  0
    0.0000    0.0000    0.0000 C   0  0
    0.0000    0.0000    0.0000 S   0  0
    0.0000    0.0000    0.0000 C   0  0
    0.0000    0.0000    0.0000 S   0  0
    0.0000    0.0000    0.0000 C   0  0
    0.0000    0.0000    0.0000 C   0  0
    0.0000    0.0000    0.0000 C   0  0
    0.0000    0.0000    0.0000 C   0  0
    0.0000    0.0000    0.0000 O   0  0
    0.0000    0.0000    0.0000 C   0  0
    0.0000    0.0000    0.0000 C   0  0
  1  2  1  0
  2  3  2  0
  2  4  1  0
  4  5  1  0
  5  6  1  0
  6  7  2  0
  6  8  1  0
  8  9  2  3
  9 10  1  0
 10 11  2  3
 11 12  1  0
 11 13  1  0
 13 14  2  3
 14  8  1  0
M  END
> <Name>
Carboxymethyl-4-hydroxythiobenzoate

> <SMILES>
OC(=O)CSC(=S)c1ccc(O)cc1

> <Reference>
SAR and QSAR in Env Res (1994) 2:159

> <Id>
CRO-242

> <Activity>
POS

> <Predicted Value>
0.942  POS

> <Used>
1

> <Status>
Sensitizer

> <isSensitizer>
1

$$$$
Mometasone furoate
  SciTegic06161615552D

 34 38  0  0  0  0            999 V2000
    0.0000    0.0000    0.0000 C   0  0
    0.0000    0.0000    0.0000 C   0  0
    0.0000    0.0000    0.0000 C   0  0
    0.0000    0.0000    0.0000 C   0  0
    0.0000    0.0000    0.0000 C   0  0
    0.0000    0.0000    0.0000 C   0  0
    0.0000    0.0000    0.0000 C   0  0
    0.0000    0.0000    0.0000 C   0  0
    0.0000    0.0000    0.0000 C   0  0
    0.0000    0.0000    0.0000 C   0  0
    0.0000    0.0000    0.0000 O   0  0
    0.0000    0.0000    0.0000 C   0  0
    0.0000    0.0000    0.0000 C   0  0
    0.0000    0.0000    0.0000 C   0  0
    0.0000    0.0000    0.0000 C   0  0
    0.0000    0.0000    0.0000 C   0  0
    0.0000    0.0000    0.0000 C   0  0
    0.0000    0.0000    0.0000 O   0  0
    0.0000    0.0000    0.0000 C   0  0
    0.0000    0.0000    0.0000 C   0  0
    0.0000    0.0000    0.0000 C   0  0
    0.0000    0.0000    0.0000 C   0  0
    0.0000    0.0000    0.0000 O   0  0
    0.0000    0.0000    0.0000 C   0  0
    0.0000    0.0000    0.0000 O   0  0
    0.0000    0.0000    0.0000 C   0  0
    0.0000    0.0000    0.0000 C   0  0
    0.0000    0.0000    0.0000 C   0  0
    0.0000    0.0000    0.0000 C   0  0
    0.0000    0.0000    0.0000 O   0  0
    0.0000    0.0000    0.0000 C   0  0
    0.0000    0.0000    0.0000 O   0  0
    0.0000    0.0000    0.0000 C   0  0
    0.0000    0.0000    0.0000 Cl  0  0
  1  2  1  0
  2  3  1  0
  3  4  1  0
  4  5  1  0
  5  6  1  0
  6  7  1  0
  7  8  1  0
  8  9  2  3
  9 10  1  0
 10 11  2  0
 10 12  1  0
 12 13  2  3
 13 14  1  0
 14  8  1  0
 14 15  1  0
 14 16  1  0
 16  5  1  0
 16 17  1  0
 17 18  1  0
 17 19  1  0
 19 20  1  0
 20  4  1  0
 20 21  1  0
 20 22  1  0
 22  2  1  0
 22 23  1  0
 23 24  1  0
 24 25  2  0
 24 26  1  0
 26 27  2  3
 27 28  1  0
 28 29  2  3
 29 30  1  0
 30 26  1  0
 22 31  1  0
 31 32  2  0
 31 33  1  0
 33 34  1  0
M  END
> <Name>
Mometasone furoate

> <SMILES>
CC4CC3C2CCC1=CC(=O)C=CC1(C)C2C(O)CC3(C)C4(OC(=O)c5ccco5)C(=O)CCl

> <Reference>
Contact Dermatitis (1996) 34:161

> <Id>
83919-23-7

> <Activity>
POS

> <Predicted Value>
1      POS

> <Used>
1

> <Status>
Sensitizer

> <isSensitizer>
1

$$$$
4-Methoxyphenyl benzoate
  SciTegic06161615552D

 17 18  0  0  0  0            999 V2000
    0.0000    0.0000    0.0000 C   0  0
    0.0000    0.0000    0.0000 O   0  0
    0.0000    0.0000    0.0000 C   0  0
    0.0000    0.0000    0.0000 C   0  0
    0.0000    0.0000    0.0000 C   0  0
    0.0000    0.0000    0.0000 C   0  0
    0.0000    0.0000    0.0000 O   0  0
    0.0000    0.0000    0.0000 C   0  0
    0.0000    0.0000    0.0000 O   0  0
    0.0000    0.0000    0.0000 C   0  0
    0.0000    0.0000    0.0000 C   0  0
    0.0000    0.0000    0.0000 C   0  0
    0.0000    0.0000    0.0000 C   0  0
    0.0000    0.0000    0.0000 C   0  0
    0.0000    0.0000    0.0000 C   0  0
    0.0000    0.0000    0.0000 C   0  0
    0.0000    0.0000    0.0000 C   0  0
  1  2  1  0
  2  3  1  0
  3  4  2  3
  4  5  1  0
  5  6  2  3
  6  7  1  0
  7  8  1  0
  8  9  2  0
  8 10  1  0
 10 11  2  3
 11 12  1  0
 12 13  2  3
 13 14  1  0
 14 15  2  3
 15 10  1  0
  6 16  1  0
 16 17  2  3
 17  3  1  0
M  END
> <Name>
4-Methoxyphenyl benzoate

> <SMILES>
COc2ccc(OC(=O)c1ccccc1)cc2

> <Reference>
SAR and QSAR in Env Res (1994) 2:159

> <Id>
CRO-267

> <Activity>
POS

> <Predicted Value>
1      POS

> <Used>
1

> <Status>
Sensitizer

> <isSensitizer>
1

$$$$
Amlexanox
  SciTegic06161615552D

 22 24  0  0  0  0            999 V2000
    0.0000    0.0000    0.0000 C   0  0
    0.0000    0.0000    0.0000 C   0  0
    0.0000    0.0000    0.0000 C   0  0
    0.0000    0.0000    0.0000 C   0  0
    0.0000    0.0000    0.0000 C   0  0
    0.0000    0.0000    0.0000 C   0  0
    0.0000    0.0000    0.0000 C   0  0
    0.0000    0.0000    0.0000 O   0  0
    0.0000    0.0000    0.0000 C   0  0
    0.0000    0.0000    0.0000 N   0  0
    0.0000    0.0000    0.0000 C   0  0
    0.0000    0.0000    0.0000 N   0  0
    0.0000    0.0000    0.0000 C   0  0
    0.0000    0.0000    0.0000 C   0  0
    0.0000    0.0000    0.0000 C   0  0
    0.0000    0.0000    0.0000 C   0  0
    0.0000    0.0000    0.0000 O   0  0
    0.0000    0.0000    0.0000 C   0  0
    0.0000    0.0000    0.0000 C   0  0
    0.0000    0.0000    0.0000 C   0  0
    0.0000    0.0000    0.0000 O   0  0
    0.0000    0.0000    0.0000 O   0  0
  1  2  1  0
  2  3  1  0
  2  4  1  0
  4  5  2  3
  5  6  1  0
  6  7  2  3
  7  8  1  0
  8  9  1  0
  9 10  2  3
 10 11  1  0
 11 12  1  0
 11 13  2  3
 13 14  1  0
 14 15  2  3
 15  9  1  0
 15 16  1  0
 16 17  2  0
 16 18  1  0
 18  7  1  0
 18 19  2  3
 19  4  1  0
 13 20  1  0
 20 21  1  0
 20 22  2  0
M  END
> <Name>
Amlexanox

> <SMILES>
CC(C)c3ccc2oc1nc(N)c(cc1c(=O)c2c3)C(O)=O

> <Reference>
Contact Dermatitis (1994) 31:31

> <Id>
68302-57-8

> <Activity>
POS

> <Predicted Value>
1      POS

> <Used>
1

> <Status>
Sensitizer

> <isSensitizer>
1

$$$$
Trimethylammonium-3-toluyloxybenzene chloride
  SciTegic06161615552D

 20 21  0  0  0  0            999 V2000
    0.0000    0.0000    0.0000 C   0  0
    0.0000    0.0000    0.0000 N   0  3
    0.0000    0.0000    0.0000 C   0  0
    0.0000    0.0000    0.0000 C   0  0
    0.0000    0.0000    0.0000 C   0  0
    0.0000    0.0000    0.0000 C   0  0
    0.0000    0.0000    0.0000 C   0  0
    0.0000    0.0000    0.0000 C   0  0
    0.0000    0.0000    0.0000 C   0  0
    0.0000    0.0000    0.0000 C   0  0
    0.0000    0.0000    0.0000 C   0  0
    0.0000    0.0000    0.0000 C   0  0
    0.0000    0.0000    0.0000 O   0  0
    0.0000    0.0000    0.0000 O   0  0
    0.0000    0.0000    0.0000 C   0  0
    0.0000    0.0000    0.0000 C   0  0
    0.0000    0.0000    0.0000 C   0  0
    0.0000    0.0000    0.0000 C   0  0
    0.0000    0.0000    0.0000 C   0  0
    0.0000    0.0000    0.0000 C   0  0
  1  2  1  0
  2  3  1  0
  2  4  1  0
  2  5  1  0
  5  6  1  0
  6  7  2  3
  7  8  1  0
  8  9  2  3
  9 10  1  0
 10 11  2  3
 11  6  1  0
  9 12  1  0
 12 13  2  0
 12 14  1  0
 14 15  1  0
 15 16  2  3
 16 17  1  0
 17 18  2  3
 18 19  1  0
 19 20  2  3
 20 15  1  0
M  CHG  1   2   1
M  END
> <Name>
Trimethylammonium-3-toluyloxybenzene chloride

> <SMILES>
C[N+](C)(C)Cc1ccc(cc1)C(=O)Oc2ccccc2

> <Reference>
SAR and QSAR in Env Res (1994) 2:159

> <Id>
CRO-294

> <Activity>
POS

> <Predicted Value>
0.999  POS

> <Used>
1

> <Status>
Sensitizer

> <isSensitizer>
1

$$$$
Metol
  SciTegic06161615552D

  9  9  0  0  0  0            999 V2000
    0.0000    0.0000    0.0000 C   0  0
    0.0000    0.0000    0.0000 N   0  0
    0.0000    0.0000    0.0000 C   0  0
    0.0000    0.0000    0.0000 C   0  0
    0.0000    0.0000    0.0000 C   0  0
    0.0000    0.0000    0.0000 C   0  0
    0.0000    0.0000    0.0000 O   0  0
    0.0000    0.0000    0.0000 C   0  0
    0.0000    0.0000    0.0000 C   0  0
  1  2  1  0
  2  3  1  0
  3  4  2  3
  4  5  1  0
  5  6  2  3
  6  7  1  0
  6  8  1  0
  8  9  2  3
  9  3  1  0
M  END
> <Name>
Metol

> <SMILES>
CNc1ccc(O)cc1

> <Reference>
SAR and QSAR in Env Res (1994) 2:159

> <Id>
CRO-81

> <Activity>
POS

> <Predicted Value>
0.035  NEG

> <Used>
1

> <Status>
Sensitizer

> <isSensitizer>
1

$$$$
4-tert-Butylphenylbenzoate
  SciTegic06161615552D

 19 20  0  0  0  0            999 V2000
    0.0000    0.0000    0.0000 C   0  0
    0.0000    0.0000    0.0000 C   0  0
    0.0000    0.0000    0.0000 C   0  0
    0.0000    0.0000    0.0000 C   0  0
    0.0000    0.0000    0.0000 C   0  0
    0.0000    0.0000    0.0000 C   0  0
    0.0000    0.0000    0.0000 C   0  0
    0.0000    0.0000    0.0000 C   0  0
    0.0000    0.0000    0.0000 O   0  0
    0.0000    0.0000    0.0000 C   0  0
    0.0000    0.0000    0.0000 O   0  0
    0.0000    0.0000    0.0000 C   0  0
    0.0000    0.0000    0.0000 C   0  0
    0.0000    0.0000    0.0000 C   0  0
    0.0000    0.0000    0.0000 C   0  0
    0.0000    0.0000    0.0000 C   0  0
    0.0000    0.0000    0.0000 C   0  0
    0.0000    0.0000    0.0000 C   0  0
    0.0000    0.0000    0.0000 C   0  0
  1  2  1  0
  2  3  1  0
  2  4  1  0
  2  5  1  0
  5  6  2  3
  6  7  1  0
  7  8  2  3
  8  9  1  0
  9 10  1  0
 10 11  2  0
 10 12  1  0
 12 13  2  3
 13 14  1  0
 14 15  2  3
 15 16  1  0
 16 17  2  3
 17 12  1  0
  8 18  1  0
 18 19  2  3
 19  5  1  0
M  END
> <Name>
4-tert-Butylphenylbenzoate

> <SMILES>
CC(C)(C)c2ccc(OC(=O)c1ccccc1)cc2

> <Reference>
SAR and QSAR in Env Res (1994) 2:159

> <Id>
CRO-272

> <Activity>
POS

> <Predicted Value>
1      POS

> <Used>
1

> <Status>
Sensitizer

> <isSensitizer>
1

$$$$
N;N-Dimethyl-1;4-phenylenediamine
  SciTegic06161615552D

 10 10  0  0  0  0            999 V2000
    0.0000    0.0000    0.0000 C   0  0
    0.0000    0.0000    0.0000 N   0  0
    0.0000    0.0000    0.0000 C   0  0
    0.0000    0.0000    0.0000 C   0  0
    0.0000    0.0000    0.0000 C   0  0
    0.0000    0.0000    0.0000 C   0  0
    0.0000    0.0000    0.0000 C   0  0
    0.0000    0.0000    0.0000 N   0  0
    0.0000    0.0000    0.0000 C   0  0
    0.0000    0.0000    0.0000 C   0  0
  1  2  1  0
  2  3  1  0
  2  4  1  0
  4  5  2  3
  5  6  1  0
  6  7  2  3
  7  8  1  0
  7  9  1  0
  9 10  2  3
 10  4  1  0
M  END
> <Name>
N;N-Dimethyl-1;4-phenylenediamine

> <SMILES>
CN(C)c1ccc(N)cc1

> <Reference>
Contact Dermatitis (1985) 13:226

> <Id>
99-98-9

> <Activity>
POS

> <Predicted Value>
0.975  POS

> <Used>
1

> <Status>
Sensitizer

> <isSensitizer>
1

$$$$
Methyl cinnamate
  SciTegic06161615552D

 12 12  0  0  0  0            999 V2000
    0.0000    0.0000    0.0000 C   0  0
    0.0000    0.0000    0.0000 O   0  0
    0.0000    0.0000    0.0000 C   0  0
    0.0000    0.0000    0.0000 O   0  0
    0.0000    0.0000    0.0000 C   0  0
    0.0000    0.0000    0.0000 C   0  0
    0.0000    0.0000    0.0000 C   0  0
    0.0000    0.0000    0.0000 C   0  0
    0.0000    0.0000    0.0000 C   0  0
    0.0000    0.0000    0.0000 C   0  0
    0.0000    0.0000    0.0000 C   0  0
    0.0000    0.0000    0.0000 C   0  0
  1  2  1  0
  2  3  1  0
  3  4  2  0
  3  5  1  0
  5  6  2  3
  6  7  1  0
  7  8  2  3
  8  9  1  0
  9 10  2  3
 10 11  1  0
 11 12  2  3
 12  7  1  0
M  END
> <Name>
Methyl cinnamate

> <SMILES>
COC(=O)C=Cc1ccccc1

> <Reference>
SAR and QSAR in Env Res (1994) 2:159

> <Id>
103-26-4

> <Activity>
NEG

> <Predicted Value>
0.006  NEG

> <Used>
1

> <Status>
Non-Sensitizer

> <isSensitizer>
0

$$$$
Benzoyl chloride
  SciTegic06161615552D

  9  9  0  0  0  0            999 V2000
    0.0000    0.0000    0.0000 Cl  0  0
    0.0000    0.0000    0.0000 C   0  0
    0.0000    0.0000    0.0000 O   0  0
    0.0000    0.0000    0.0000 C   0  0
    0.0000    0.0000    0.0000 C   0  0
    0.0000    0.0000    0.0000 C   0  0
    0.0000    0.0000    0.0000 C   0  0
    0.0000    0.0000    0.0000 C   0  0
    0.0000    0.0000    0.0000 C   0  0
  1  2  1  0
  2  3  2  0
  2  4  1  0
  4  5  2  3
  5  6  1  0
  6  7  2  3
  7  8  1  0
  8  9  2  3
  9  4  1  0
M  END
> <Name>
Benzoyl chloride

> <SMILES>
ClC(=O)c1ccccc1

> <Reference>
David A Basketter (priv comm)

> <Id>
98-88-4

> <Activity>
POS

> <Predicted Value>
0.999  POS

> <Used>
1

> <Status>
Sensitizer

> <isSensitizer>
1

$$$$
Carboxymethyldithiobenzoate
  SciTegic06161615552D

 13 13  0  0  0  0            999 V2000
    0.0000    0.0000    0.0000 O   0  0
    0.0000    0.0000    0.0000 C   0  0
    0.0000    0.0000    0.0000 O   0  0
    0.0000    0.0000    0.0000 C   0  0
    0.0000    0.0000    0.0000 S   0  0
    0.0000    0.0000    0.0000 C   0  0
    0.0000    0.0000    0.0000 S   0  0
    0.0000    0.0000    0.0000 C   0  0
    0.0000    0.0000    0.0000 C   0  0
    0.0000    0.0000    0.0000 C   0  0
    0.0000    0.0000    0.0000 C   0  0
    0.0000    0.0000    0.0000 C   0  0
    0.0000    0.0000    0.0000 C   0  0
  1  2  1  0
  2  3  2  0
  2  4  1  0
  4  5  1  0
  5  6  1  0
  6  7  2  0
  6  8  1  0
  8  9  2  3
  9 10  1  0
 10 11  2  3
 11 12  1  0
 12 13  2  3
 13  8  1  0
M  END
> <Name>
Carboxymethyldithiobenzoate

> <SMILES>
OC(=O)CSC(=S)c1ccccc1

> <Reference>
SAR and QSAR in Env Res (1994) 2:159

> <Id>
CRO-240

> <Activity>
POS

> <Predicted Value>
1      POS

> <Used>
1

> <Status>
Sensitizer

> <isSensitizer>
1

$$$$
Scoparone
  SciTegic06161615552D

 15 16  0  0  0  0            999 V2000
    0.0000    0.0000    0.0000 C   0  0
    0.0000    0.0000    0.0000 O   0  0
    0.0000    0.0000    0.0000 C   0  0
    0.0000    0.0000    0.0000 C   0  0
    0.0000    0.0000    0.0000 C   0  0
    0.0000    0.0000    0.0000 C   0  0
    0.0000    0.0000    0.0000 C   0  0
    0.0000    0.0000    0.0000 C   0  0
    0.0000    0.0000    0.0000 O   0  0
    0.0000    0.0000    0.0000 O   0  0
    0.0000    0.0000    0.0000 C   0  0
    0.0000    0.0000    0.0000 C   0  0
    0.0000    0.0000    0.0000 C   0  0
    0.0000    0.0000    0.0000 O   0  0
    0.0000    0.0000    0.0000 C   0  0
  1  2  1  0
  2  3  1  0
  3  4  2  3
  4  5  1  0
  5  6  1  0
  6  7  2  3
  7  8  1  0
  8  9  2  0
  8 10  1  0
 10 11  1  0
 11  5  2  3
 11 12  1  0
 12 13  2  3
 13  3  1  0
 13 14  1  0
 14 15  1  0
M  END
> <Name>
Scoparone

> <SMILES>
COc2cc1ccc(=O)oc1cc2OC

> <Reference>
Contact Dermatitis (1989) 21:41

> <Id>
120-08-1

> <Activity>
POS

> <Predicted Value>
0      NEG

> <Used>
0

> <Status>
Sensitizer

> <isSensitizer>
1

$$$$
6-Methoxy-7-hydroxycoumarin
  SciTegic06161615552D

 14 15  0  0  0  0            999 V2000
    0.0000    0.0000    0.0000 C   0  0
    0.0000    0.0000    0.0000 O   0  0
    0.0000    0.0000    0.0000 C   0  0
    0.0000    0.0000    0.0000 C   0  0
    0.0000    0.0000    0.0000 C   0  0
    0.0000    0.0000    0.0000 C   0  0
    0.0000    0.0000    0.0000 C   0  0
    0.0000    0.0000    0.0000 C   0  0
    0.0000    0.0000    0.0000 O   0  0
    0.0000    0.0000    0.0000 O   0  0
    0.0000    0.0000    0.0000 C   0  0
    0.0000    0.0000    0.0000 C   0  0
    0.0000    0.0000    0.0000 C   0  0
    0.0000    0.0000    0.0000 O   0  0
  1  2  1  0
  2  3  1  0
  3  4  2  3
  4  5  1  0
  5  6  1  0
  6  7  2  3
  7  8  1  0
  8  9  2  0
  8 10  1  0
 10 11  1  0
 11  5  2  3
 11 12  1  0
 12 13  2  3
 13  3  1  0
 13 14  1  0
M  END
> <Name>
6-Methoxy-7-hydroxycoumarin

> <SMILES>
COc2cc1ccc(=O)oc1cc2O

> <Reference>
Contact Dermatitis (1986) 15:157

> <Id>
92-61-5

> <Activity>
NEG

> <Predicted Value>
0.037  NEG

> <Used>
1

> <Status>
Non-Sensitizer

> <isSensitizer>
0

$$$$
Dansyl chloride
  SciTegic06161615552D

 17 18  0  0  0  0            999 V2000
    0.0000    0.0000    0.0000 C   0  0
    0.0000    0.0000    0.0000 N   0  0
    0.0000    0.0000    0.0000 C   0  0
    0.0000    0.0000    0.0000 C   0  0
    0.0000    0.0000    0.0000 C   0  0
    0.0000    0.0000    0.0000 C   0  0
    0.0000    0.0000    0.0000 C   0  0
    0.0000    0.0000    0.0000 C   0  0
    0.0000    0.0000    0.0000 C   0  0
    0.0000    0.0000    0.0000 C   0  0
    0.0000    0.0000    0.0000 C   0  0
    0.0000    0.0000    0.0000 C   0  0
    0.0000    0.0000    0.0000 C   0  0
    0.0000    0.0000    0.0000 S   0  0
    0.0000    0.0000    0.0000 Cl  0  0
    0.0000    0.0000    0.0000 O   0  0
    0.0000    0.0000    0.0000 O   0  0
  1  2  1  0
  2  3  1  0
  2  4  1  0
  4  5  2  3
  5  6  1  0
  6  7  2  3
  7  8  1  0
  8  9  2  3
  9 10  1  0
 10 11  2  3
 11 12  1  0
 12 13  2  3
 13  4  1  0
 13  8  1  0
  9 14  1  0
 14 15  1  0
 14 16  2  0
 14 17  2  0
M  END
> <Name>
Dansyl chloride

> <SMILES>
CN(C)c1cccc2c(cccc12)S(Cl)(=O)=O

> <Reference>
SAR and QSAR in Env Res (1994) 2:159

> <Id>
605-65-2

> <Activity>
POS

> <Predicted Value>
1      POS

> <Used>
1

> <Status>
Sensitizer

> <isSensitizer>
1

$$$$
Phenylsalicylate
  SciTegic06161615552D

 16 17  0  0  0  0            999 V2000
    0.0000    0.0000    0.0000 O   0  0
    0.0000    0.0000    0.0000 C   0  0
    0.0000    0.0000    0.0000 C   0  0
    0.0000    0.0000    0.0000 C   0  0
    0.0000    0.0000    0.0000 C   0  0
    0.0000    0.0000    0.0000 C   0  0
    0.0000    0.0000    0.0000 C   0  0
    0.0000    0.0000    0.0000 C   0  0
    0.0000    0.0000    0.0000 O   0  0
    0.0000    0.0000    0.0000 O   0  0
    0.0000    0.0000    0.0000 C   0  0
    0.0000    0.0000    0.0000 C   0  0
    0.0000    0.0000    0.0000 C   0  0
    0.0000    0.0000    0.0000 C   0  0
    0.0000    0.0000    0.0000 C   0  0
    0.0000    0.0000    0.0000 C   0  0
  1  2  1  0
  2  3  2  3
  3  4  1  0
  4  5  2  3
  5  6  1  0
  6  7  2  3
  7  2  1  0
  7  8  1  0
  8  9  2  0
  8 10  1  0
 10 11  1  0
 11 12  2  3
 12 13  1  0
 13 14  2  3
 14 15  1  0
 15 16  2  3
 16 11  1  0
M  END
> <Name>
Phenylsalicylate

> <SMILES>
Oc1ccccc1C(=O)Oc2ccccc2

> <Reference>
Arch Derm Res (1982) 272:61

> <Id>
118-55-8

> <Activity>
POS

> <Predicted Value>
1      POS

> <Used>
1

> <Status>
Sensitizer

> <isSensitizer>
1

$$$$
7-Methylcoumarin
  SciTegic06161615552D

 12 13  0  0  0  0            999 V2000
    0.0000    0.0000    0.0000 C   0  0
    0.0000    0.0000    0.0000 C   0  0
    0.0000    0.0000    0.0000 C   0  0
    0.0000    0.0000    0.0000 C   0  0
    0.0000    0.0000    0.0000 C   0  0
    0.0000    0.0000    0.0000 C   0  0
    0.0000    0.0000    0.0000 C   0  0
    0.0000    0.0000    0.0000 C   0  0
    0.0000    0.0000    0.0000 O   0  0
    0.0000    0.0000    0.0000 O   0  0
    0.0000    0.0000    0.0000 C   0  0
    0.0000    0.0000    0.0000 C   0  0
  1  2  1  0
  2  3  2  3
  3  4  1  0
  4  5  2  3
  5  6  1  0
  6  7  2  3
  7  8  1  0
  8  9  2  0
  8 10  1  0
 10 11  1  0
 11  5  1  0
 11 12  2  3
 12  2  1  0
M  END
> <Name>
7-Methylcoumarin

> <SMILES>
Cc2ccc1ccc(=O)oc1c2

> <Reference>
Contact Dermatitis (1986) 15:289

> <Id>
2445-83-2

> <Activity>
NEG

> <Predicted Value>
0      NEG

> <Used>
1

> <Status>
Non-Sensitizer

> <isSensitizer>
0

$$$$
N-Benzoyl pyrrolidone
  SciTegic06161615552D

 14 15  0  0  0  0            999 V2000
    0.0000    0.0000    0.0000 O   0  0
    0.0000    0.0000    0.0000 C   0  0
    0.0000    0.0000    0.0000 C   0  0
    0.0000    0.0000    0.0000 C   0  0
    0.0000    0.0000    0.0000 C   0  0
    0.0000    0.0000    0.0000 N   0  0
    0.0000    0.0000    0.0000 C   0  0
    0.0000    0.0000    0.0000 O   0  0
    0.0000    0.0000    0.0000 C   0  0
    0.0000    0.0000    0.0000 C   0  0
    0.0000    0.0000    0.0000 C   0  0
    0.0000    0.0000    0.0000 C   0  0
    0.0000    0.0000    0.0000 C   0  0
    0.0000    0.0000    0.0000 C   0  0
  1  2  2  0
  2  3  1  0
  3  4  1  0
  4  5  1  0
  5  6  1  0
  6  2  1  0
  6  7  1  0
  7  8  2  0
  7  9  1  0
  9 10  2  3
 10 11  1  0
 11 12  2  3
 12 13  1  0
 13 14  2  3
 14  9  1  0
M  END
> <Name>
N-Benzoyl pyrrolidone

> <SMILES>
O=C1CCCN1C(=O)c2ccccc2

> <Reference>
SAR and QSAR in Env Res (1994) 2:159

> <Id>
CRO-208

> <Activity>
NEG

> <Predicted Value>
0.001  NEG

> <Used>
1

> <Status>
Non-Sensitizer

> <isSensitizer>
0

$$$$
6-Methyl coumarin
  SciTegic06161615552D

 12 13  0  0  0  0            999 V2000
    0.0000    0.0000    0.0000 C   0  0
    0.0000    0.0000    0.0000 C   0  0
    0.0000    0.0000    0.0000 C   0  0
    0.0000    0.0000    0.0000 C   0  0
    0.0000    0.0000    0.0000 C   0  0
    0.0000    0.0000    0.0000 O   0  0
    0.0000    0.0000    0.0000 C   0  0
    0.0000    0.0000    0.0000 O   0  0
    0.0000    0.0000    0.0000 C   0  0
    0.0000    0.0000    0.0000 C   0  0
    0.0000    0.0000    0.0000 C   0  0
    0.0000    0.0000    0.0000 C   0  0
  1  2  1  0
  2  3  2  3
  3  4  1  0
  4  5  2  3
  5  6  1  0
  6  7  1  0
  7  8  2  0
  7  9  1  0
  9 10  2  3
 10 11  1  0
 11  5  1  0
 11 12  2  3
 12  2  1  0
M  END
> <Name>
6-Methyl coumarin

> <SMILES>
Cc2ccc1oc(=O)ccc1c2

> <Reference>
Contact Dermatitis (1986) 15:157

> <Id>
92-48-8

> <Activity>
NEG

> <Predicted Value>
0      NEG

> <Used>
1

> <Status>
Non-Sensitizer

> <isSensitizer>
0

$$$$
Phenylpropionaldehyde
  SciTegic06161615552D

 10 10  0  0  0  0            999 V2000
    0.0000    0.0000    0.0000 C   0  0
    0.0000    0.0000    0.0000 C   0  0
    0.0000    0.0000    0.0000 C   0  0
    0.0000    0.0000    0.0000 O   0  0
    0.0000    0.0000    0.0000 C   0  0
    0.0000    0.0000    0.0000 C   0  0
    0.0000    0.0000    0.0000 C   0  0
    0.0000    0.0000    0.0000 C   0  0
    0.0000    0.0000    0.0000 C   0  0
    0.0000    0.0000    0.0000 C   0  0
  1  2  1  0
  2  3  1  0
  3  4  2  0
  2  5  1  0
  5  6  2  3
  6  7  1  0
  7  8  2  3
  8  9  1  0
  9 10  2  3
 10  5  1  0
M  END
> <Name>
Phenylpropionaldehyde

> <SMILES>
CC(C=O)c1ccccc1

> <Reference>
SAR and QSAR in Env Res (1994) 2:159

> <Id>
CRO-94

> <Activity>
POS

> <Predicted Value>
0.989  POS

> <Used>
1

> <Status>
Sensitizer

> <isSensitizer>
1

$$$$
p-Cresol
  SciTegic06161615552D

  8  8  0  0  0  0            999 V2000
    0.0000    0.0000    0.0000 C   0  0
    0.0000    0.0000    0.0000 C   0  0
    0.0000    0.0000    0.0000 C   0  0
    0.0000    0.0000    0.0000 C   0  0
    0.0000    0.0000    0.0000 C   0  0
    0.0000    0.0000    0.0000 O   0  0
    0.0000    0.0000    0.0000 C   0  0
    0.0000    0.0000    0.0000 C   0  0
  1  2  1  0
  2  3  2  3
  3  4  1  0
  4  5  2  3
  5  6  1  0
  5  7  1  0
  7  8  2  3
  8  2  1  0
M  END
> <Name>
p-Cresol

> <SMILES>
Cc1ccc(O)cc1

> <Reference>
Howard I Maibach (priv comm)

> <Id>
106-44-5

> <Activity>
NEG

> <Predicted Value>
0.003  NEG

> <Used>
1

> <Status>
Non-Sensitizer

> <isSensitizer>
0

$$$$
1;2-Dihydroxy-3;5-benzenedisulfate
  SciTegic06161615552D

 16 16  0  0  0  0            999 V2000
    0.0000    0.0000    0.0000 O   0  0
    0.0000    0.0000    0.0000 C   0  0
    0.0000    0.0000    0.0000 C   0  0
    0.0000    0.0000    0.0000 C   0  0
    0.0000    0.0000    0.0000 C   0  0
    0.0000    0.0000    0.0000 C   0  0
    0.0000    0.0000    0.0000 C   0  0
    0.0000    0.0000    0.0000 O   0  0
    0.0000    0.0000    0.0000 S   0  0
    0.0000    0.0000    0.0000 O   0  5
    0.0000    0.0000    0.0000 O   0  0
    0.0000    0.0000    0.0000 O   0  0
    0.0000    0.0000    0.0000 S   0  0
    0.0000    0.0000    0.0000 O   0  5
    0.0000    0.0000    0.0000 O   0  0
    0.0000    0.0000    0.0000 O   0  0
  1  2  1  0
  2  3  2  3
  3  4  1  0
  4  5  2  3
  5  6  1  0
  6  7  2  3
  7  2  1  0
  7  8  1  0
  6  9  1  0
  9 10  1  0
  9 11  2  0
  9 12  2  0
  4 13  1  0
 13 14  1  0
 13 15  2  0
 13 16  2  0
M  CHG  2  10  -1  14  -1
M  END
> <Name>
1;2-Dihydroxy-3;5-benzenedisulfate

> <SMILES>
Oc1cc(cc(c1O)S([O-])(=O)=O)S([O-])(=O)=O

> <Reference>
SAR and QSAR in Env Res (1994) 2:159

> <Id>
149-45-1

> <Activity>
POS

> <Predicted Value>
1      POS

> <Used>
1

> <Status>
Sensitizer

> <isSensitizer>
1

$$$$
Phenylisothiocyanate
  SciTegic06161615552D

  9  9  0  0  0  0            999 V2000
    0.0000    0.0000    0.0000 S   0  0
    0.0000    0.0000    0.0000 C   0  0
    0.0000    0.0000    0.0000 N   0  0
    0.0000    0.0000    0.0000 C   0  0
    0.0000    0.0000    0.0000 C   0  0
    0.0000    0.0000    0.0000 C   0  0
    0.0000    0.0000    0.0000 C   0  0
    0.0000    0.0000    0.0000 C   0  0
    0.0000    0.0000    0.0000 C   0  0
  1  2  2  0
  2  3  2  3
  3  4  1  0
  4  5  2  3
  5  6  1  0
  6  7  2  3
  7  8  1  0
  8  9  2  3
  9  4  1  0
M  END
> <Name>
Phenylisothiocyanate

> <SMILES>
S=C=Nc1ccccc1

> <Reference>
Contact Dermatitis (1994) 31:72

> <Id>
103-72-0

> <Activity>
POS

> <Predicted Value>
1      POS

> <Used>
1

> <Status>
Sensitizer

> <isSensitizer>
1

$$$$
Phthalic anhydride
  SciTegic06161615552D

 11 12  0  0  0  0            999 V2000
    0.0000    0.0000    0.0000 O   0  0
    0.0000    0.0000    0.0000 C   0  0
    0.0000    0.0000    0.0000 O   0  0
    0.0000    0.0000    0.0000 C   0  0
    0.0000    0.0000    0.0000 O   0  0
    0.0000    0.0000    0.0000 C   0  0
    0.0000    0.0000    0.0000 C   0  0
    0.0000    0.0000    0.0000 C   0  0
    0.0000    0.0000    0.0000 C   0  0
    0.0000    0.0000    0.0000 C   0  0
    0.0000    0.0000    0.0000 C   0  0
  1  2  2  0
  2  3  1  0
  3  4  1  0
  4  5  2  0
  4  6  1  0
  6  7  2  3
  7  8  1  0
  8  9  2  3
  9 10  1  0
 10 11  2  3
 11  2  1  0
 11  6  1  0
M  END
> <Name>
Phthalic anhydride

> <SMILES>
O=C1OC(=O)c2ccccc12

> <Reference>
SAR and QSAR in Env Res (1994) 2:159

> <Id>
85-44-9

> <Activity>
POS

> <Predicted Value>
1      POS

> <Used>
1

> <Status>
Sensitizer

> <isSensitizer>
1

$$$$
Disperse orange
  SciTegic06161615552D

 18 19  0  0  0  0            999 V2000
    0.0000    0.0000    0.0000 N   0  0
    0.0000    0.0000    0.0000 C   0  0
    0.0000    0.0000    0.0000 C   0  0
    0.0000    0.0000    0.0000 C   0  0
    0.0000    0.0000    0.0000 C   0  0
    0.0000    0.0000    0.0000 N   0  0
    0.0000    0.0000    0.0000 N   0  0
    0.0000    0.0000    0.0000 C   0  0
    0.0000    0.0000    0.0000 C   0  0
    0.0000    0.0000    0.0000 C   0  0
    0.0000    0.0000    0.0000 C   0  0
    0.0000    0.0000    0.0000 C   0  0
    0.0000    0.0000    0.0000 C   0  0
    0.0000    0.0000    0.0000 N   0  0
    0.0000    0.0000    0.0000 O   0  0
    0.0000    0.0000    0.0000 O   0  0
    0.0000    0.0000    0.0000 C   0  0
    0.0000    0.0000    0.0000 C   0  0
  1  2  1  0
  2  3  2  3
  3  4  1  0
  4  5  2  3
  5  6  1  0
  6  7  2  3
  7  8  1  0
  8  9  2  3
  9 10  1  0
 10 11  2  3
 11 12  1  0
 12 13  2  3
 13  8  1  0
 11 14  1  0
 14 15  2  0
 14 16  2  0
  5 17  1  0
 17 18  2  3
 18  2  1  0
M  END
> <Name>
Disperse orange

> <SMILES>
Nc2ccc(N=Nc1ccc(cc1)N(=O)=O)cc2

> <Reference>
Contact Dermatitis (1989) 20:27

> <Id>
730-40-5

> <Activity>
POS

> <Predicted Value>
1      POS

> <Used>
1

> <Status>
Sensitizer

> <isSensitizer>
1

$$$$
Phenylbenzoate
  SciTegic06161615552D

 15 16  0  0  0  0            999 V2000
    0.0000    0.0000    0.0000 O   0  0
    0.0000    0.0000    0.0000 C   0  0
    0.0000    0.0000    0.0000 O   0  0
    0.0000    0.0000    0.0000 C   0  0
    0.0000    0.0000    0.0000 C   0  0
    0.0000    0.0000    0.0000 C   0  0
    0.0000    0.0000    0.0000 C   0  0
    0.0000    0.0000    0.0000 C   0  0
    0.0000    0.0000    0.0000 C   0  0
    0.0000    0.0000    0.0000 C   0  0
    0.0000    0.0000    0.0000 C   0  0
    0.0000    0.0000    0.0000 C   0  0
    0.0000    0.0000    0.0000 C   0  0
    0.0000    0.0000    0.0000 C   0  0
    0.0000    0.0000    0.0000 C   0  0
  1  2  2  0
  2  3  1  0
  3  4  1  0
  4  5  2  3
  5  6  1  0
  6  7  2  3
  7  8  1  0
  8  9  2  3
  9  4  1  0
  2 10  1  0
 10 11  2  3
 11 12  1  0
 12 13  2  3
 13 14  1  0
 14 15  2  3
 15 10  1  0
M  END
> <Name>
Phenylbenzoate

> <SMILES>
O=C(Oc1ccccc1)c2ccccc2

> <Reference>
SAR and QSAR in Env Res (1994) 2:159

> <Id>
93-99-2

> <Activity>
POS

> <Predicted Value>
1      POS

> <Used>
1

> <Status>
Sensitizer

> <isSensitizer>
1

$$$$
4-tert-Butylphenylacetone
  SciTegic06161615552D

 14 14  0  0  0  0            999 V2000
    0.0000    0.0000    0.0000 C   0  0
    0.0000    0.0000    0.0000 C   0  0
    0.0000    0.0000    0.0000 O   0  0
    0.0000    0.0000    0.0000 C   0  0
    0.0000    0.0000    0.0000 C   0  0
    0.0000    0.0000    0.0000 C   0  0
    0.0000    0.0000    0.0000 C   0  0
    0.0000    0.0000    0.0000 C   0  0
    0.0000    0.0000    0.0000 C   0  0
    0.0000    0.0000    0.0000 C   0  0
    0.0000    0.0000    0.0000 C   0  0
    0.0000    0.0000    0.0000 C   0  0
    0.0000    0.0000    0.0000 C   0  0
    0.0000    0.0000    0.0000 C   0  0
  1  2  1  0
  2  3  2  0
  2  4  1  0
  4  5  1  0
  5  6  2  3
  6  7  1  0
  7  8  2  3
  8  9  1  0
  9 10  2  3
 10  5  1  0
  8 11  1  0
 11 12  1  0
 11 13  1  0
 11 14  1  0
M  END
> <Name>
4-tert-Butylphenylacetone

> <SMILES>
CC(=O)Cc1ccc(cc1)C(C)(C)C

> <Reference>
SAR and QSAR in Env Res (1994) 2:159

> <Id>
CRO-227

> <Activity>
POS

> <Predicted Value>
0.956  POS

> <Used>
1

> <Status>
Sensitizer

> <isSensitizer>
1

$$$$
Coumarin
  SciTegic06161615552D

 11 12  0  0  0  0            999 V2000
    0.0000    0.0000    0.0000 O   0  0
    0.0000    0.0000    0.0000 C   0  0
    0.0000    0.0000    0.0000 C   0  0
    0.0000    0.0000    0.0000 C   0  0
    0.0000    0.0000    0.0000 C   0  0
    0.0000    0.0000    0.0000 C   0  0
    0.0000    0.0000    0.0000 C   0  0
    0.0000    0.0000    0.0000 C   0  0
    0.0000    0.0000    0.0000 C   0  0
    0.0000    0.0000    0.0000 C   0  0
    0.0000    0.0000    0.0000 O   0  0
  1  2  2  0
  2  3  1  0
  3  4  2  3
  4  5  1  0
  5  6  2  3
  6  7  1  0
  7  8  2  3
  8  9  1  0
  9 10  2  3
 10  5  1  0
 10 11  1  0
 11  2  1  0
M  END
> <Name>
Coumarin

> <SMILES>
O=c2ccc1ccccc1o2

> <Reference>
Contact Dermatitis (1986) 15:157

> <Id>
91-64-5

> <Activity>
NEG

> <Predicted Value>
0      NEG

> <Used>
1

> <Status>
Non-Sensitizer

> <isSensitizer>
0

$$$$
3-Chlorophenylbenzoate
  SciTegic06161615552D

 16 17  0  0  0  0            999 V2000
    0.0000    0.0000    0.0000 Cl  0  0
    0.0000    0.0000    0.0000 C   0  0
    0.0000    0.0000    0.0000 C   0  0
    0.0000    0.0000    0.0000 C   0  0
    0.0000    0.0000    0.0000 C   0  0
    0.0000    0.0000    0.0000 C   0  0
    0.0000    0.0000    0.0000 O   0  0
    0.0000    0.0000    0.0000 C   0  0
    0.0000    0.0000    0.0000 O   0  0
    0.0000    0.0000    0.0000 C   0  0
    0.0000    0.0000    0.0000 C   0  0
    0.0000    0.0000    0.0000 C   0  0
    0.0000    0.0000    0.0000 C   0  0
    0.0000    0.0000    0.0000 C   0  0
    0.0000    0.0000    0.0000 C   0  0
    0.0000    0.0000    0.0000 C   0  0
  1  2  1  0
  2  3  2  3
  3  4  1  0
  4  5  2  3
  5  6  1  0
  6  7  1  0
  7  8  1  0
  8  9  2  0
  8 10  1  0
 10 11  2  3
 11 12  1  0
 12 13  2  3
 13 14  1  0
 14 15  2  3
 15 10  1  0
  6 16  2  3
 16  2  1  0
M  END
> <Name>
3-Chlorophenylbenzoate

> <SMILES>
Clc2cccc(OC(=O)c1ccccc1)c2

> <Reference>
SAR and QSAR in Env Res (1994) 2:159

> <Id>
CRO-269

> <Activity>
POS

> <Predicted Value>
1      POS

> <Used>
1

> <Status>
Sensitizer

> <isSensitizer>
1

$$$$
Phenylisocyanate
  SciTegic06161615552D

  9  9  0  0  0  0            999 V2000
    0.0000    0.0000    0.0000 O   0  0
    0.0000    0.0000    0.0000 C   0  0
    0.0000    0.0000    0.0000 N   0  0
    0.0000    0.0000    0.0000 C   0  0
    0.0000    0.0000    0.0000 C   0  0
    0.0000    0.0000    0.0000 C   0  0
    0.0000    0.0000    0.0000 C   0  0
    0.0000    0.0000    0.0000 C   0  0
    0.0000    0.0000    0.0000 C   0  0
  1  2  2  0
  2  3  2  3
  3  4  1  0
  4  5  2  3
  5  6  1  0
  6  7  2  3
  7  8  1  0
  8  9  2  3
  9  4  1  0
M  END
> <Name>
Phenylisocyanate

> <SMILES>
O=C=Nc1ccccc1

> <Reference>
Contact Dermatitis (1994) 31:72

> <Id>
103-71-9

> <Activity>
POS

> <Predicted Value>
0.987  POS

> <Used>
1

> <Status>
Sensitizer

> <isSensitizer>
1

$$$$
Bromostyrene
  SciTegic06161615552D

  9  9  0  0  0  0            999 V2000
    0.0000    0.0000    0.0000 Br  0  0
    0.0000    0.0000    0.0000 C   0  0
    0.0000    0.0000    0.0000 C   0  0
    0.0000    0.0000    0.0000 C   0  0
    0.0000    0.0000    0.0000 C   0  0
    0.0000    0.0000    0.0000 C   0  0
    0.0000    0.0000    0.0000 C   0  0
    0.0000    0.0000    0.0000 C   0  0
    0.0000    0.0000    0.0000 C   0  0
  1  2  1  0
  2  3  2  3
  3  4  1  0
  4  5  2  3
  5  6  1  0
  6  7  2  3
  7  8  1  0
  8  9  2  3
  9  4  1  0
M  END
> <Name>
Bromostyrene

> <SMILES>
BrC=Cc1ccccc1

> <Reference>
Contact Dermatitis (1993) 28:235

> <Id>
103-64-0

> <Activity>
POS

> <Predicted Value>
1      POS

> <Used>
1

> <Status>
Sensitizer

> <isSensitizer>
1

$$$$
Disperse yellow 3
  SciTegic06161615552D

 20 21  0  0  0  0            999 V2000
    0.0000    0.0000    0.0000 C   0  0
    0.0000    0.0000    0.0000 C   0  0
    0.0000    0.0000    0.0000 O   0  0
    0.0000    0.0000    0.0000 N   0  0
    0.0000    0.0000    0.0000 C   0  0
    0.0000    0.0000    0.0000 C   0  0
    0.0000    0.0000    0.0000 C   0  0
    0.0000    0.0000    0.0000 C   0  0
    0.0000    0.0000    0.0000 N   0  0
    0.0000    0.0000    0.0000 N   0  0
    0.0000    0.0000    0.0000 C   0  0
    0.0000    0.0000    0.0000 C   0  0
    0.0000    0.0000    0.0000 C   0  0
    0.0000    0.0000    0.0000 C   0  0
    0.0000    0.0000    0.0000 C   0  0
    0.0000    0.0000    0.0000 C   0  0
    0.0000    0.0000    0.0000 C   0  0
    0.0000    0.0000    0.0000 O   0  0
    0.0000    0.0000    0.0000 C   0  0
    0.0000    0.0000    0.0000 C   0  0
  1  2  1  0
  2  3  2  0
  2  4  1  0
  4  5  1  0
  5  6  2  3
  6  7  1  0
  7  8  2  3
  8  9  1  0
  9 10  2  3
 10 11  1  0
 11 12  2  3
 12 13  1  0
 13 14  1  0
 13 15  2  3
 15 16  1  0
 16 17  2  3
 17 11  1  0
 17 18  1  0
  8 19  1  0
 19 20  2  3
 20  5  1  0
M  END
> <Name>
Disperse yellow 3

> <SMILES>
CC(=O)Nc2ccc(N=Nc1cc(C)ccc1O)cc2

> <Reference>
Contact Dermatitis (1989) 20:7

> <Id>
2832-40-8

> <Activity>
POS

> <Predicted Value>
0.956  POS

> <Used>
1

> <Status>
Sensitizer

> <isSensitizer>
1

$$$$
Methyl gallate
  SciTegic06161615552D

 13 13  0  0  0  0            999 V2000
    0.0000    0.0000    0.0000 C   0  0
    0.0000    0.0000    0.0000 O   0  0
    0.0000    0.0000    0.0000 C   0  0
    0.0000    0.0000    0.0000 O   0  0
    0.0000    0.0000    0.0000 C   0  0
    0.0000    0.0000    0.0000 C   0  0
    0.0000    0.0000    0.0000 C   0  0
    0.0000    0.0000    0.0000 O   0  0
    0.0000    0.0000    0.0000 C   0  0
    0.0000    0.0000    0.0000 O   0  0
    0.0000    0.0000    0.0000 C   0  0
    0.0000    0.0000    0.0000 O   0  0
    0.0000    0.0000    0.0000 C   0  0
  1  2  1  0
  2  3  1  0
  3  4  2  0
  3  5  1  0
  5  6  2  3
  6  7  1  0
  7  8  1  0
  7  9  2  3
  9 10  1  0
  9 11  1  0
 11 12  1  0
 11 13  2  3
 13  5  1  0
M  END
> <Name>
Methyl gallate

> <SMILES>
COC(=O)c1cc(O)c(O)c(O)c1

> <Reference>
Contact Dermatitis (1992) 26:253

> <Id>
99-24-1

> <Activity>
POS

> <Predicted Value>
1      POS

> <Used>
1

> <Status>
Sensitizer

> <isSensitizer>
1

$$$$
Benzaldehyde
  SciTegic06161615552D

  8  8  0  0  0  0            999 V2000
    0.0000    0.0000    0.0000 O   0  0
    0.0000    0.0000    0.0000 C   0  0
    0.0000    0.0000    0.0000 C   0  0
    0.0000    0.0000    0.0000 C   0  0
    0.0000    0.0000    0.0000 C   0  0
    0.0000    0.0000    0.0000 C   0  0
    0.0000    0.0000    0.0000 C   0  0
    0.0000    0.0000    0.0000 C   0  0
  1  2  2  0
  2  3  1  0
  3  4  2  3
  4  5  1  0
  5  6  2  3
  6  7  1  0
  7  8  2  3
  8  3  1  0
M  END
> <Name>
Benzaldehyde

> <SMILES>
O=Cc1ccccc1

> <Reference>
Howard I Maibach (priv comm)

> <Id>
100-52-7

> <Activity>
POS

> <Predicted Value>
0.961  POS

> <Used>
1

> <Status>
Sensitizer

> <isSensitizer>
1

$$$$
p-Aminophenol
  SciTegic06161615552D

  8  8  0  0  0  0            999 V2000
    0.0000    0.0000    0.0000 N   0  0
    0.0000    0.0000    0.0000 C   0  0
    0.0000    0.0000    0.0000 C   0  0
    0.0000    0.0000    0.0000 C   0  0
    0.0000    0.0000    0.0000 C   0  0
    0.0000    0.0000    0.0000 O   0  0
    0.0000    0.0000    0.0000 C   0  0
    0.0000    0.0000    0.0000 C   0  0
  1  2  1  0
  2  3  2  3
  3  4  1  0
  4  5  2  3
  5  6  1  0
  5  7  1  0
  7  8  2  3
  8  2  1  0
M  END
> <Name>
p-Aminophenol

> <SMILES>
Nc1ccc(O)cc1

> <Reference>
Contact Dermatitis (1985) 13:226

> <Id>
123-30-8

> <Activity>
POS

> <Predicted Value>
0.999  POS

> <Used>
1

> <Status>
Sensitizer

> <isSensitizer>
1

$$$$
Lilial-p
  SciTegic06161615552D

 15 15  0  0  0  0            999 V2000
    0.0000    0.0000    0.0000 C   0  0
    0.0000    0.0000    0.0000 C   0  0
    0.0000    0.0000    0.0000 C   0  0
    0.0000    0.0000    0.0000 C   0  0
    0.0000    0.0000    0.0000 C   0  0
    0.0000    0.0000    0.0000 C   0  0
    0.0000    0.0000    0.0000 C   0  0
    0.0000    0.0000    0.0000 C   0  0
    0.0000    0.0000    0.0000 C   0  0
    0.0000    0.0000    0.0000 C   0  0
    0.0000    0.0000    0.0000 C   0  0
    0.0000    0.0000    0.0000 C   0  0
    0.0000    0.0000    0.0000 C   0  0
    0.0000    0.0000    0.0000 C   0  0
    0.0000    0.0000    0.0000 O   0  0
  1  2  1  0
  2  3  1  0
  3  4  1  0
  4  5  2  3
  5  6  1  0
  6  7  2  3
  7  8  1  0
  8  9  2  3
  9  4  1  0
  7 10  1  0
 10 11  1  0
 10 12  1  0
 10 13  1  0
  2 14  1  0
 14 15  2  0
M  END
> <Name>
Lilial-p

> <SMILES>
CC(Cc1ccc(cc1)C(C)(C)C)C=O

> <Reference>
SAR and QSAR in Env Res (1994) 2:159

> <Id>
80-54-6

> <Activity>
POS

> <Predicted Value>
1      POS

> <Used>
1

> <Status>
Sensitizer

> <isSensitizer>
1

$$$$
4-tert-Butyldihydrocinnamic aldehyde
  SciTegic06161615552D

 14 14  0  0  0  0            999 V2000
    0.0000    0.0000    0.0000 C   0  0
    0.0000    0.0000    0.0000 C   0  0
    0.0000    0.0000    0.0000 C   0  0
    0.0000    0.0000    0.0000 C   0  0
    0.0000    0.0000    0.0000 C   0  0
    0.0000    0.0000    0.0000 C   0  0
    0.0000    0.0000    0.0000 C   0  0
    0.0000    0.0000    0.0000 C   0  0
    0.0000    0.0000    0.0000 C   0  0
    0.0000    0.0000    0.0000 C   0  0
    0.0000    0.0000    0.0000 C   0  0
    0.0000    0.0000    0.0000 O   0  0
    0.0000    0.0000    0.0000 C   0  0
    0.0000    0.0000    0.0000 C   0  0
  1  2  1  0
  2  3  1  0
  2  4  1  0
  2  5  1  0
  5  6  2  3
  6  7  1  0
  7  8  2  3
  8  9  1  0
  9 10  1  0
 10 11  1  0
 11 12  2  0
  8 13  1  0
 13 14  2  3
 14  5  1  0
M  END
> <Name>
4-tert-Butyldihydrocinnamic aldehyde

> <SMILES>
CC(C)(C)c1ccc(CCC=O)cc1

> <Reference>
SAR and QSAR in Env Res (1994) 2:159

> <Id>
CRO-131

> <Activity>
POS

> <Predicted Value>
0.998  POS

> <Used>
1

> <Status>
Sensitizer

> <isSensitizer>
1

$$$$
Aspartame
  SciTegic06161615552D

 21 21  0  0  0  0            999 V2000
    0.0000    0.0000    0.0000 C   0  0
    0.0000    0.0000    0.0000 O   0  0
    0.0000    0.0000    0.0000 C   0  0
    0.0000    0.0000    0.0000 O   0  0
    0.0000    0.0000    0.0000 C   0  0
    0.0000    0.0000    0.0000 C   0  0
    0.0000    0.0000    0.0000 C   0  0
    0.0000    0.0000    0.0000 C   0  0
    0.0000    0.0000    0.0000 C   0  0
    0.0000    0.0000    0.0000 C   0  0
    0.0000    0.0000    0.0000 C   0  0
    0.0000    0.0000    0.0000 C   0  0
    0.0000    0.0000    0.0000 N   0  0
    0.0000    0.0000    0.0000 C   0  0
    0.0000    0.0000    0.0000 O   0  0
    0.0000    0.0000    0.0000 C   0  0
    0.0000    0.0000    0.0000 N   0  0
    0.0000    0.0000    0.0000 C   0  0
    0.0000    0.0000    0.0000 C   0  0
    0.0000    0.0000    0.0000 O   0  0
    0.0000    0.0000    0.0000 O   0  0
  1  2  1  0
  2  3  1  0
  3  4  2  0
  3  5  1  0
  5  6  1  0
  6  7  1  0
  7  8  2  3
  8  9  1  0
  9 10  2  3
 10 11  1  0
 11 12  2  3
 12  7  1  0
  5 13  1  0
 13 14  1  0
 14 15  2  0
 14 16  1  0
 16 17  1  0
 16 18  1  0
 18 19  1  0
 19 20  1  0
 19 21  2  0
M  END
> <Name>
Aspartame

> <SMILES>
COC(=O)C(Cc1ccccc1)NC(=O)C(N)CC(O)=O

> <Reference>
SAR and QSAR in Env Res (1994) 2:159

> <Id>
22839-47-0

> <Activity>
POS

> <Predicted Value>
0.999  POS

> <Used>
1

> <Status>
Sensitizer

> <isSensitizer>
1

$$$$
4-Hydroxycoumarin
  SciTegic06161615552D

 12 13  0  0  0  0            999 V2000
    0.0000    0.0000    0.0000 O   0  0
    0.0000    0.0000    0.0000 C   0  0
    0.0000    0.0000    0.0000 C   0  0
    0.0000    0.0000    0.0000 C   0  0
    0.0000    0.0000    0.0000 O   0  0
    0.0000    0.0000    0.0000 O   0  0
    0.0000    0.0000    0.0000 C   0  0
    0.0000    0.0000    0.0000 C   0  0
    0.0000    0.0000    0.0000 C   0  0
    0.0000    0.0000    0.0000 C   0  0
    0.0000    0.0000    0.0000 C   0  0
    0.0000    0.0000    0.0000 C   0  0
  1  2  1  0
  2  3  2  3
  3  4  1  0
  4  5  2  0
  4  6  1  0
  6  7  1  0
  7  8  2  3
  8  9  1  0
  9 10  2  3
 10 11  1  0
 11 12  2  3
 12  2  1  0
 12  7  1  0
M  END
> <Name>
4-Hydroxycoumarin

> <SMILES>
Oc1cc(=O)oc2ccccc12

> <Reference>
Contact Dermatitis (1989) 21:141

> <Id>
1076-38-6

> <Activity>
POS

> <Predicted Value>
0.715  POS

> <Used>
1

> <Status>
Sensitizer

> <isSensitizer>
1

$$$$
2-Methylresorcinol
  SciTegic06161615552D

  9  9  0  0  0  0            999 V2000
    0.0000    0.0000    0.0000 C   0  0
    0.0000    0.0000    0.0000 C   0  0
    0.0000    0.0000    0.0000 C   0  0
    0.0000    0.0000    0.0000 O   0  0
    0.0000    0.0000    0.0000 C   0  0
    0.0000    0.0000    0.0000 C   0  0
    0.0000    0.0000    0.0000 C   0  0
    0.0000    0.0000    0.0000 C   0  0
    0.0000    0.0000    0.0000 O   0  0
  1  2  1  0
  2  3  2  3
  3  4  1  0
  3  5  1  0
  5  6  2  3
  6  7  1  0
  7  8  2  3
  8  2  1  0
  8  9  1  0
M  END
> <Name>
2-Methylresorcinol

> <SMILES>
Cc1c(O)cccc1O

> <Reference>
J Am Coll Toxicol (1986) 5(3):167

> <Id>
608-25-3

> <Activity>
NEG

> <Predicted Value>
0.024  NEG

> <Used>
1

> <Status>
Non-Sensitizer

> <isSensitizer>
0

$$$$
Picryl chloride
  SciTegic06161615552D

 16 16  0  0  0  0            999 V2000
    0.0000    0.0000    0.0000 Cl  0  0
    0.0000    0.0000    0.0000 C   0  0
    0.0000    0.0000    0.0000 C   0  0
    0.0000    0.0000    0.0000 C   0  0
    0.0000    0.0000    0.0000 C   0  0
    0.0000    0.0000    0.0000 C   0  0
    0.0000    0.0000    0.0000 C   0  0
    0.0000    0.0000    0.0000 N   0  0
    0.0000    0.0000    0.0000 O   0  0
    0.0000    0.0000    0.0000 O   0  0
    0.0000    0.0000    0.0000 N   0  0
    0.0000    0.0000    0.0000 O   0  0
    0.0000    0.0000    0.0000 O   0  0
    0.0000    0.0000    0.0000 N   0  0
    0.0000    0.0000    0.0000 O   0  0
    0.0000    0.0000    0.0000 O   0  0
  1  2  1  0
  2  3  2  3
  3  4  1  0
  4  5  2  3
  5  6  1  0
  6  7  2  3
  7  2  1  0
  7  8  1  0
  8  9  2  0
  8 10  2  0
  5 11  1  0
 11 12  2  0
 11 13  2  0
  3 14  1  0
 14 15  2  0
 14 16  2  0
M  END
> <Name>
Picryl chloride

> <SMILES>
Clc1c(cc(cc1N(=O)=O)N(=O)=O)N(=O)=O

> <Reference>
Contact Dermatitis (1981) 7:248

> <Id>
88-88-0

> <Activity>
POS

> <Predicted Value>
1      POS

> <Used>
1

> <Status>
Sensitizer

> <isSensitizer>
1

$$$$
m-Phenylenediamine
  SciTegic06161615552D

  8  8  0  0  0  0            999 V2000
    0.0000    0.0000    0.0000 N   0  0
    0.0000    0.0000    0.0000 C   0  0
    0.0000    0.0000    0.0000 C   0  0
    0.0000    0.0000    0.0000 C   0  0
    0.0000    0.0000    0.0000 C   0  0
    0.0000    0.0000    0.0000 C   0  0
    0.0000    0.0000    0.0000 N   0  0
    0.0000    0.0000    0.0000 C   0  0
  1  2  1  0
  2  3  2  3
  3  4  1  0
  4  5  2  3
  5  6  1  0
  6  7  1  0
  6  8  2  3
  8  2  1  0
M  END
> <Name>
m-Phenylenediamine

> <SMILES>
Nc1cccc(N)c1

> <Reference>
Contact Dermatitis (1985) 13:226

> <Id>
108-45-2

> <Activity>
NEG

> <Predicted Value>
1      POS

> <Used>
0

> <Status>
Non-Sensitizer

> <isSensitizer>
0

$$$$
Cyclomenaldehyde
  SciTegic06161615552D

 14 14  0  0  0  0            999 V2000
    0.0000    0.0000    0.0000 C   0  0
    0.0000    0.0000    0.0000 C   0  0
    0.0000    0.0000    0.0000 C   0  0
    0.0000    0.0000    0.0000 C   0  0
    0.0000    0.0000    0.0000 C   0  0
    0.0000    0.0000    0.0000 C   0  0
    0.0000    0.0000    0.0000 C   0  0
    0.0000    0.0000    0.0000 C   0  0
    0.0000    0.0000    0.0000 C   0  0
    0.0000    0.0000    0.0000 C   0  0
    0.0000    0.0000    0.0000 C   0  0
    0.0000    0.0000    0.0000 C   0  0
    0.0000    0.0000    0.0000 C   0  0
    0.0000    0.0000    0.0000 O   0  0
  1  2  1  0
  2  3  1  0
  3  4  1  0
  4  5  2  3
  5  6  1  0
  6  7  2  3
  7  8  1  0
  8  9  2  3
  9  4  1  0
  7 10  1  0
 10 11  1  0
 10 12  1  0
  2 13  1  0
 13 14  2  0
M  END
> <Name>
Cyclomenaldehyde

> <SMILES>
CC(Cc1ccc(cc1)C(C)C)C=O

> <Reference>
SAR and QSAR in Env Res (1994) 2:159

> <Id>
103-95-7

> <Activity>
POS

> <Predicted Value>
1      POS

> <Used>
1

> <Status>
Sensitizer

> <isSensitizer>
1

$$$$
7-Hydroxycoumarin
  SciTegic06161615552D

 12 13  0  0  0  0            999 V2000
    0.0000    0.0000    0.0000 O   0  0
    0.0000    0.0000    0.0000 C   0  0
    0.0000    0.0000    0.0000 C   0  0
    0.0000    0.0000    0.0000 C   0  0
    0.0000    0.0000    0.0000 C   0  0
    0.0000    0.0000    0.0000 C   0  0
    0.0000    0.0000    0.0000 C   0  0
    0.0000    0.0000    0.0000 C   0  0
    0.0000    0.0000    0.0000 O   0  0
    0.0000    0.0000    0.0000 O   0  0
    0.0000    0.0000    0.0000 C   0  0
    0.0000    0.0000    0.0000 C   0  0
  1  2  1  0
  2  3  2  3
  3  4  1  0
  4  5  2  3
  5  6  1  0
  6  7  2  3
  7  8  1  0
  8  9  2  0
  8 10  1  0
 10 11  1  0
 11  5  1  0
 11 12  2  3
 12  2  1  0
M  END
> <Name>
7-Hydroxycoumarin

> <SMILES>
Oc2ccc1ccc(=O)oc1c2

> <Reference>
Contact Dermatitis (1986) 15:157

> <Id>
93-35-6

> <Activity>
POS

> <Predicted Value>
0      NEG

> <Used>
0

> <Status>
Sensitizer

> <isSensitizer>
1

$$$$
Evernic acid
  SciTegic06161615552D

 24 25  0  0  0  0            999 V2000
    0.0000    0.0000    0.0000 C   0  0
    0.0000    0.0000    0.0000 O   0  0
    0.0000    0.0000    0.0000 C   0  0
    0.0000    0.0000    0.0000 C   0  0
    0.0000    0.0000    0.0000 C   0  0
    0.0000    0.0000    0.0000 C   0  0
    0.0000    0.0000    0.0000 C   0  0
    0.0000    0.0000    0.0000 C   0  0
    0.0000    0.0000    0.0000 O   0  0
    0.0000    0.0000    0.0000 O   0  0
    0.0000    0.0000    0.0000 C   0  0
    0.0000    0.0000    0.0000 C   0  0
    0.0000    0.0000    0.0000 C   0  0
    0.0000    0.0000    0.0000 C   0  0
    0.0000    0.0000    0.0000 C   0  0
    0.0000    0.0000    0.0000 C   0  0
    0.0000    0.0000    0.0000 O   0  0
    0.0000    0.0000    0.0000 O   0  0
    0.0000    0.0000    0.0000 C   0  0
    0.0000    0.0000    0.0000 O   0  0
    0.0000    0.0000    0.0000 C   0  0
    0.0000    0.0000    0.0000 C   0  0
    0.0000    0.0000    0.0000 O   0  0
    0.0000    0.0000    0.0000 C   0  0
  1  2  1  0
  2  3  1  0
  3  4  2  3
  4  5  1  0
  5  6  1  0
  5  7  2  3
  7  8  1  0
  8  9  2  0
  8 10  1  0
 10 11  1  0
 11 12  2  3
 12 13  1  0
 13 14  1  0
 13 15  2  3
 15 16  1  0
 16 17  1  0
 16 18  2  0
 15 19  1  0
 19 20  1  0
 19 21  2  3
 21 11  1  0
  7 22  1  0
 22 23  1  0
 22 24  2  3
 24  3  1  0
M  END
> <Name>
Evernic acid

> <SMILES>
COc2cc(C)c(C(=O)Oc1cc(C)c(C(O)=O)c(O)c1)c(O)c2

> <Reference>
Contact Dermatitis (1993) 28:70

> <Id>
537-09-7

> <Activity>
POS

> <Predicted Value>
1      POS

> <Used>
1

> <Status>
Sensitizer

> <isSensitizer>
1

$$$$
Phenyl acetic aldehyde
  SciTegic06161615552D

  9  9  0  0  0  0            999 V2000
    0.0000    0.0000    0.0000 O   0  0
    0.0000    0.0000    0.0000 C   0  0
    0.0000    0.0000    0.0000 C   0  0
    0.0000    0.0000    0.0000 C   0  0
    0.0000    0.0000    0.0000 C   0  0
    0.0000    0.0000    0.0000 C   0  0
    0.0000    0.0000    0.0000 C   0  0
    0.0000    0.0000    0.0000 C   0  0
    0.0000    0.0000    0.0000 C   0  0
  1  2  2  0
  2  3  1  0
  3  4  1  0
  4  5  2  3
  5  6  1  0
  6  7  2  3
  7  8  1  0
  8  9  2  3
  9  4  1  0
M  END
> <Name>
Phenyl acetic aldehyde

> <SMILES>
O=CCc1ccccc1

> <Reference>
SAR and QSAR in Env Res (1994) 2:159

> <Id>
122-78-1

> <Activity>
POS

> <Predicted Value>
0.97   POS

> <Used>
1

> <Status>
Sensitizer

> <isSensitizer>
1

$$$$
4-Chlorophenyl benzoate
  SciTegic06161615552D

 16 17  0  0  0  0            999 V2000
    0.0000    0.0000    0.0000 Cl  0  0
    0.0000    0.0000    0.0000 C   0  0
    0.0000    0.0000    0.0000 C   0  0
    0.0000    0.0000    0.0000 C   0  0
    0.0000    0.0000    0.0000 C   0  0
    0.0000    0.0000    0.0000 O   0  0
    0.0000    0.0000    0.0000 C   0  0
    0.0000    0.0000    0.0000 O   0  0
    0.0000    0.0000    0.0000 C   0  0
    0.0000    0.0000    0.0000 C   0  0
    0.0000    0.0000    0.0000 C   0  0
    0.0000    0.0000    0.0000 C   0  0
    0.0000    0.0000    0.0000 C   0  0
    0.0000    0.0000    0.0000 C   0  0
    0.0000    0.0000    0.0000 C   0  0
    0.0000    0.0000    0.0000 C   0  0
  1  2  1  0
  2  3  2  3
  3  4  1  0
  4  5  2  3
  5  6  1  0
  6  7  1  0
  7  8  2  0
  7  9  1  0
  9 10  2  3
 10 11  1  0
 11 12  2  3
 12 13  1  0
 13 14  2  3
 14  9  1  0
  5 15  1  0
 15 16  2  3
 16  2  1  0
M  END
> <Name>
4-Chlorophenyl benzoate

> <SMILES>
Clc2ccc(OC(=O)c1ccccc1)cc2

> <Reference>
SAR and QSAR in Env Res (1994) 2:159

> <Id>
CRO-268

> <Activity>
POS

> <Predicted Value>
0.997  POS

> <Used>
1

> <Status>
Sensitizer

> <isSensitizer>
1

$$$$
4-Chloroaniline
  SciTegic06161615552D

  8  8  0  0  0  0            999 V2000
    0.0000    0.0000    0.0000 N   0  0
    0.0000    0.0000    0.0000 C   0  0
    0.0000    0.0000    0.0000 C   0  0
    0.0000    0.0000    0.0000 C   0  0
    0.0000    0.0000    0.0000 C   0  0
    0.0000    0.0000    0.0000 Cl  0  0
    0.0000    0.0000    0.0000 C   0  0
    0.0000    0.0000    0.0000 C   0  0
  1  2  1  0
  2  3  2  3
  3  4  1  0
  4  5  2  3
  5  6  1  0
  5  7  1  0
  7  8  2  3
  8  2  1  0
M  END
> <Name>
4-Chloroaniline

> <SMILES>
Nc1ccc(Cl)cc1

> <Reference>
Contact Dermatitis (1982) 7:248

> <Id>
106-47-8

> <Activity>
POS

> <Predicted Value>
1      POS

> <Used>
1

> <Status>
Sensitizer

> <isSensitizer>
1

$$$$
N-(Fluorodichloromethylthio)phthalamide
  SciTegic06161615552D

 16 17  0  0  0  0            999 V2000
    0.0000    0.0000    0.0000 F   0  0
    0.0000    0.0000    0.0000 C   0  0
    0.0000    0.0000    0.0000 Cl  0  0
    0.0000    0.0000    0.0000 Cl  0  0
    0.0000    0.0000    0.0000 S   0  0
    0.0000    0.0000    0.0000 N   0  0
    0.0000    0.0000    0.0000 C   0  0
    0.0000    0.0000    0.0000 O   0  0
    0.0000    0.0000    0.0000 C   0  0
    0.0000    0.0000    0.0000 C   0  0
    0.0000    0.0000    0.0000 C   0  0
    0.0000    0.0000    0.0000 C   0  0
    0.0000    0.0000    0.0000 C   0  0
    0.0000    0.0000    0.0000 C   0  0
    0.0000    0.0000    0.0000 C   0  0
    0.0000    0.0000    0.0000 O   0  0
  1  2  1  0
  2  3  1  0
  2  4  1  0
  2  5  1  0
  5  6  1  0
  6  7  1  0
  7  8  2  0
  7  9  1  0
  9 10  2  3
 10 11  1  0
 11 12  2  3
 12 13  1  0
 13 14  2  3
 14  9  1  0
 14 15  1  0
 15  6  1  0
 15 16  2  0
M  END
> <Name>
N-(Fluorodichloromethylthio)phthalamide

> <SMILES>
FC(Cl)(Cl)SN2C(=O)c1ccccc1C2=O

> <Reference>
SAR and QSAR in Env Res (1994) 2:159

> <Id>
CRO-188

> <Activity>
POS

> <Predicted Value>
1      POS

> <Used>
1

> <Status>
Sensitizer

> <isSensitizer>
1

$$$$
Phenyl ethyl alcohol
  SciTegic06161615552D

  9  9  0  0  0  0            999 V2000
    0.0000    0.0000    0.0000 O   0  0
    0.0000    0.0000    0.0000 C   0  0
    0.0000    0.0000    0.0000 C   0  0
    0.0000    0.0000    0.0000 C   0  0
    0.0000    0.0000    0.0000 C   0  0
    0.0000    0.0000    0.0000 C   0  0
    0.0000    0.0000    0.0000 C   0  0
    0.0000    0.0000    0.0000 C   0  0
    0.0000    0.0000    0.0000 C   0  0
  1  2  1  0
  2  3  1  0
  3  4  1  0
  4  5  2  3
  5  6  1  0
  6  7  2  3
  7  8  1  0
  8  9  2  3
  9  4  1  0
M  END
> <Name>
Phenyl ethyl alcohol

> <SMILES>
OCCc1ccccc1

> <Reference>
SAR and QSAR in Env Res (1994) 2:159

> <Id>
CRO-92

> <Activity>
POS

> <Predicted Value>
1      POS

> <Used>
1

> <Status>
Sensitizer

> <isSensitizer>
1

$$$$
Drometizole
  SciTegic06161615552D

 17 19  0  0  0  0            999 V2000
    0.0000    0.0000    0.0000 C   0  0
    0.0000    0.0000    0.0000 C   0  0
    0.0000    0.0000    0.0000 C   0  0
    0.0000    0.0000    0.0000 C   0  0
    0.0000    0.0000    0.0000 C   0  0
    0.0000    0.0000    0.0000 O   0  0
    0.0000    0.0000    0.0000 C   0  0
    0.0000    0.0000    0.0000 C   0  0
    0.0000    0.0000    0.0000 N   0  0
    0.0000    0.0000    0.0000 N   0  0
    0.0000    0.0000    0.0000 C   0  0
    0.0000    0.0000    0.0000 C   0  0
    0.0000    0.0000    0.0000 C   0  0
    0.0000    0.0000    0.0000 C   0  0
    0.0000    0.0000    0.0000 C   0  0
    0.0000    0.0000    0.0000 C   0  0
    0.0000    0.0000    0.0000 N   0  0
  1  2  1  0
  2  3  2  3
  3  4  1  0
  4  5  2  3
  5  6  1  0
  5  7  1  0
  7  8  2  3
  8  2  1  0
  7  9  1  0
  9 10  1  0
 10 11  2  3
 11 12  1  0
 12 13  2  3
 13 14  1  0
 14 15  2  3
 15 16  1  0
 16 11  1  0
 16 17  2  3
 17  9  1  0
M  END
> <Name>
Drometizole

> <SMILES>
Cc1ccc(O)c(c1)n3nc2ccccc2n3

> <Reference>
J Am Coll Toxicol (1986) 5(5):455

> <Id>
2440-22-4

> <Activity>
NEG

> <Predicted Value>
0      NEG

> <Used>
1

> <Status>
Non-Sensitizer

> <isSensitizer>
0

$$$$
Cinnamic alcohol
  SciTegic06161615552D

 10 10  0  0  0  0            999 V2000
    0.0000    0.0000    0.0000 O   0  0
    0.0000    0.0000    0.0000 C   0  0
    0.0000    0.0000    0.0000 C   0  0
    0.0000    0.0000    0.0000 C   0  0
    0.0000    0.0000    0.0000 C   0  0
    0.0000    0.0000    0.0000 C   0  0
    0.0000    0.0000    0.0000 C   0  0
    0.0000    0.0000    0.0000 C   0  0
    0.0000    0.0000    0.0000 C   0  0
    0.0000    0.0000    0.0000 C   0  0
  1  2  1  0
  2  3  1  0
  3  4  2  3
  4  5  1  0
  5  6  2  3
  6  7  1  0
  7  8  2  3
  8  9  1  0
  9 10  2  3
 10  5  1  0
M  END
> <Name>
Cinnamic alcohol

> <SMILES>
OCC=Cc1ccccc1

> <Reference>
SAR and QSAR in Env Res (1994) 2:159

> <Id>
CRO-32

> <Activity>
POS

> <Predicted Value>
1      POS

> <Used>
1

> <Status>
Sensitizer

> <isSensitizer>
1

$$$$
N-Isopropyl-N'-phenylphenylene diamine
  SciTegic06161615552D

 17 18  0  0  0  0            999 V2000
    0.0000    0.0000    0.0000 C   0  0
    0.0000    0.0000    0.0000 C   0  0
    0.0000    0.0000    0.0000 C   0  0
    0.0000    0.0000    0.0000 N   0  0
    0.0000    0.0000    0.0000 C   0  0
    0.0000    0.0000    0.0000 C   0  0
    0.0000    0.0000    0.0000 C   0  0
    0.0000    0.0000    0.0000 C   0  0
    0.0000    0.0000    0.0000 N   0  0
    0.0000    0.0000    0.0000 C   0  0
    0.0000    0.0000    0.0000 C   0  0
    0.0000    0.0000    0.0000 C   0  0
    0.0000    0.0000    0.0000 C   0  0
    0.0000    0.0000    0.0000 C   0  0
    0.0000    0.0000    0.0000 C   0  0
    0.0000    0.0000    0.0000 C   0  0
    0.0000    0.0000    0.0000 C   0  0
  1  2  1  0
  2  3  1  0
  2  4  1  0
  4  5  1  0
  5  6  2  3
  6  7  1  0
  7  8  2  3
  8  9  1  0
  9 10  1  0
 10 11  2  3
 11 12  1  0
 12 13  2  3
 13 14  1  0
 14 15  2  3
 15 10  1  0
  8 16  1  0
 16 17  2  3
 17  5  1  0
M  END
> <Name>
N-Isopropyl-N'-phenylphenylene diamine

> <SMILES>
CC(C)Nc2ccc(Nc1ccccc1)cc2

> <Reference>
Contact Dermatitis (1994) 31:72

> <Id>
101-72-4

> <Activity>
POS

> <Predicted Value>
1      POS

> <Used>
1

> <Status>
Sensitizer

> <isSensitizer>
1

$$$$
Cinnamic aldehyde
  SciTegic06161615552D

 10 10  0  0  0  0            999 V2000
    0.0000    0.0000    0.0000 O   0  0
    0.0000    0.0000    0.0000 C   0  0
    0.0000    0.0000    0.0000 C   0  0
    0.0000    0.0000    0.0000 C   0  0
    0.0000    0.0000    0.0000 C   0  0
    0.0000    0.0000    0.0000 C   0  0
    0.0000    0.0000    0.0000 C   0  0
    0.0000    0.0000    0.0000 C   0  0
    0.0000    0.0000    0.0000 C   0  0
    0.0000    0.0000    0.0000 C   0  0
  1  2  2  0
  2  3  1  0
  3  4  2  3
  4  5  1  0
  5  6  2  3
  6  7  1  0
  7  8  2  3
  8  9  1  0
  9 10  2  3
 10  5  1  0
M  END
> <Name>
Cinnamic aldehyde

> <SMILES>
O=CC=Cc1ccccc1

> <Reference>
Contact Dermatitis (1991) 25:160

> <Id>
104-55-2

> <Activity>
POS

> <Predicted Value>
1      POS

> <Used>
1

> <Status>
Sensitizer

> <isSensitizer>
1

$$$$
1;3-bis(4-Methoxyphenyl)-propane-1;3-dione
  SciTegic06161615552D

 21 22  0  0  0  0            999 V2000
    0.0000    0.0000    0.0000 C   0  0
    0.0000    0.0000    0.0000 O   0  0
    0.0000    0.0000    0.0000 C   0  0
    0.0000    0.0000    0.0000 C   0  0
    0.0000    0.0000    0.0000 C   0  0
    0.0000    0.0000    0.0000 C   0  0
    0.0000    0.0000    0.0000 C   0  0
    0.0000    0.0000    0.0000 C   0  0
    0.0000    0.0000    0.0000 C   0  0
    0.0000    0.0000    0.0000 O   0  0
    0.0000    0.0000    0.0000 C   0  0
    0.0000    0.0000    0.0000 C   0  0
    0.0000    0.0000    0.0000 O   0  0
    0.0000    0.0000    0.0000 C   0  0
    0.0000    0.0000    0.0000 C   0  0
    0.0000    0.0000    0.0000 C   0  0
    0.0000    0.0000    0.0000 C   0  0
    0.0000    0.0000    0.0000 O   0  0
    0.0000    0.0000    0.0000 C   0  0
    0.0000    0.0000    0.0000 C   0  0
    0.0000    0.0000    0.0000 C   0  0
  1  2  1  0
  2  3  1  0
  3  4  2  3
  4  5  1  0
  5  6  2  3
  6  7  1  0
  7  8  2  3
  8  3  1  0
  6  9  1  0
  9 10  2  0
  9 11  1  0
 11 12  1  0
 12 13  2  0
 12 14  1  0
 14 15  2  3
 15 16  1  0
 16 17  2  3
 17 18  1  0
 18 19  1  0
 17 20  1  0
 20 21  2  3
 21 14  1  0
M  END
> <Name>
1;3-bis(4-Methoxyphenyl)-propane-1;3-dione

> <SMILES>
COc1ccc(cc1)C(=O)CC(=O)c2ccc(OC)cc2

> <Reference>
SAR and QSAR in Env Res (1994) 2:159

> <Id>
CRO-150

> <Activity>
NEG

> <Predicted Value>
0.008  NEG

> <Used>
1

> <Status>
Non-Sensitizer

> <isSensitizer>
0

$$$$
Aniline
  SciTegic06161615552D

  7  7  0  0  0  0            999 V2000
    0.0000    0.0000    0.0000 N   0  0
    0.0000    0.0000    0.0000 C   0  0
    0.0000    0.0000    0.0000 C   0  0
    0.0000    0.0000    0.0000 C   0  0
    0.0000    0.0000    0.0000 C   0  0
    0.0000    0.0000    0.0000 C   0  0
    0.0000    0.0000    0.0000 C   0  0
  1  2  1  0
  2  3  2  3
  3  4  1  0
  4  5  2  3
  5  6  1  0
  6  7  2  3
  7  2  1  0
M  END
> <Name>
Aniline

> <SMILES>
Nc1ccccc1

> <Reference>
Contact Dermatitis (1981) 7:248

> <Id>
62-53-3

> <Activity>
POS

> <Predicted Value>
1      POS

> <Used>
1

> <Status>
Sensitizer

> <isSensitizer>
1

$$$$
1-(4-Methoxy-5-benzofuranyl)-3-phenyl-1;3-propanediol
  SciTegic06161615552D

 22 24  0  0  0  0            999 V2000
    0.0000    0.0000    0.0000 C   0  0
    0.0000    0.0000    0.0000 O   0  0
    0.0000    0.0000    0.0000 C   0  0
    0.0000    0.0000    0.0000 C   0  0
    0.0000    0.0000    0.0000 C   0  0
    0.0000    0.0000    0.0000 C   0  0
    0.0000    0.0000    0.0000 C   0  0
    0.0000    0.0000    0.0000 O   0  0
    0.0000    0.0000    0.0000 C   0  0
    0.0000    0.0000    0.0000 C   0  0
    0.0000    0.0000    0.0000 C   0  0
    0.0000    0.0000    0.0000 C   0  0
    0.0000    0.0000    0.0000 O   0  0
    0.0000    0.0000    0.0000 C   0  0
    0.0000    0.0000    0.0000 C   0  0
    0.0000    0.0000    0.0000 O   0  0
    0.0000    0.0000    0.0000 C   0  0
    0.0000    0.0000    0.0000 C   0  0
    0.0000    0.0000    0.0000 C   0  0
    0.0000    0.0000    0.0000 C   0  0
    0.0000    0.0000    0.0000 C   0  0
    0.0000    0.0000    0.0000 C   0  0
  1  2  1  0
  2  3  1  0
  3  4  2  3
  4  5  1  0
  5  6  2  3
  6  7  1  0
  7  8  1  0
  8  9  1  0
  9 10  2  3
 10 11  1  0
 11  3  1  0
 11  7  2  3
  4 12  1  0
 12 13  1  0
 12 14  1  0
 14 15  1  0
 15 16  1  0
 15 17  1  0
 17 18  2  3
 18 19  1  0
 19 20  2  3
 20 21  1  0
 21 22  2  3
 22 17  1  0
M  END
> <Name>
1-(4-Methoxy-5-benzofuranyl)-3-phenyl-1;3-propanediol

> <SMILES>
COc1c(ccc2occc12)C(O)CC(O)c3ccccc3

> <Reference>
SAR and QSAR in Env Res (1994) 2:159

> <Id>
CRO-306

> <Activity>
NEG

> <Predicted Value>
0      NEG

> <Used>
1

> <Status>
Non-Sensitizer

> <isSensitizer>
0

$$$$
C.I.14700
  SciTegic06161615552D

 29 31  0  0  0  0            999 V2000
    0.0000    0.0000    0.0000 C   0  0
    0.0000    0.0000    0.0000 C   0  0
    0.0000    0.0000    0.0000 C   0  0
    0.0000    0.0000    0.0000 C   0  0
    0.0000    0.0000    0.0000 C   0  0
    0.0000    0.0000    0.0000 C   0  0
    0.0000    0.0000    0.0000 C   0  0
    0.0000    0.0000    0.0000 C   0  0
    0.0000    0.0000    0.0000 N   0  0
    0.0000    0.0000    0.0000 N   0  0
    0.0000    0.0000    0.0000 C   0  0
    0.0000    0.0000    0.0000 C   0  0
    0.0000    0.0000    0.0000 C   0  0
    0.0000    0.0000    0.0000 C   0  0
    0.0000    0.0000    0.0000 C   0  0
    0.0000    0.0000    0.0000 C   0  0
    0.0000    0.0000    0.0000 C   0  0
    0.0000    0.0000    0.0000 C   0  0
    0.0000    0.0000    0.0000 C   0  0
    0.0000    0.0000    0.0000 C   0  0
    0.0000    0.0000    0.0000 O   0  0
    0.0000    0.0000    0.0000 S   0  0
    0.0000    0.0000    0.0000 O   0  0
    0.0000    0.0000    0.0000 O   0  0
    0.0000    0.0000    0.0000 O   0  0
    0.0000    0.0000    0.0000 S   0  0
    0.0000    0.0000    0.0000 O   0  0
    0.0000    0.0000    0.0000 O   0  0
    0.0000    0.0000    0.0000 O   0  0
  1  2  1  0
  2  3  2  3
  3  4  1  0
  4  5  1  0
  4  6  2  3
  6  7  1  0
  7  8  2  3
  8  2  1  0
  8  9  1  0
  9 10  2  3
 10 11  1  0
 11 12  2  3
 12 13  1  0
 13 14  2  3
 14 15  1  0
 15 16  2  3
 16 17  1  0
 17 18  2  3
 18 19  1  0
 19 14  1  0
 19 20  2  3
 20 11  1  0
 20 21  1  0
 13 22  1  0
 22 23  1  0
 22 24  2  0
 22 25  2  0
  6 26  1  0
 26 27  1  0
 26 28  2  0
 26 29  2  0
M  END
> <Name>
C.I.14700

> <SMILES>
Cc1cc(C)c(cc1N=Nc3cc(c2ccccc2c3O)S(O)(=O)=O)S(O)(=O)=O

> <Reference>
SAR and QSAR in Env Res (1994) 2:159

> <Id>
4548-53-2

> <Activity>
NEG

> <Predicted Value>
0.001  NEG

> <Used>
1

> <Status>
Non-Sensitizer

> <isSensitizer>
0

$$$$
2;2'-[[4-[(4-Aminophenyl)azo]phenyl]imino]-bis-ethanol
  SciTegic06161615552D

 22 23  0  0  0  0            999 V2000
    0.0000    0.0000    0.0000 N   0  0
    0.0000    0.0000    0.0000 C   0  0
    0.0000    0.0000    0.0000 C   0  0
    0.0000    0.0000    0.0000 C   0  0
    0.0000    0.0000    0.0000 C   0  0
    0.0000    0.0000    0.0000 N   0  0
    0.0000    0.0000    0.0000 N   0  0
    0.0000    0.0000    0.0000 C   0  0
    0.0000    0.0000    0.0000 C   0  0
    0.0000    0.0000    0.0000 C   0  0
    0.0000    0.0000    0.0000 C   0  0
    0.0000    0.0000    0.0000 C   0  0
    0.0000    0.0000    0.0000 C   0  0
    0.0000    0.0000    0.0000 N   0  0
    0.0000    0.0000    0.0000 C   0  0
    0.0000    0.0000    0.0000 C   0  0
    0.0000    0.0000    0.0000 O   0  0
    0.0000    0.0000    0.0000 C   0  0
    0.0000    0.0000    0.0000 C   0  0
    0.0000    0.0000    0.0000 O   0  0
    0.0000    0.0000    0.0000 C   0  0
    0.0000    0.0000    0.0000 C   0  0
  1  2  1  0
  2  3  2  3
  3  4  1  0
  4  5  2  3
  5  6  1  0
  6  7  2  3
  7  8  1  0
  8  9  2  3
  9 10  1  0
 10 11  2  3
 11 12  1  0
 12 13  2  3
 13  8  1  0
 11 14  1  0
 14 15  1  0
 15 16  1  0
 16 17  1  0
 14 18  1  0
 18 19  1  0
 19 20  1  0
  5 21  1  0
 21 22  2  3
 22  2  1  0
M  END
> <Name>
2;2'-[[4-[(4-Aminophenyl)azo]phenyl]imino]-bis-ethanol

> <SMILES>
Nc2ccc(N=Nc1ccc(cc1)N(CCO)CCO)cc2

> <Reference>
SAR and QSAR in Env Res (1994) 2:159

> <Id>
12222-69-4

> <Activity>
POS

> <Predicted Value>
1      POS

> <Used>
1

> <Status>
Sensitizer

> <isSensitizer>
1

$$$$
Chlorobenzene
  SciTegic06161615552D

  7  7  0  0  0  0            999 V2000
    0.0000    0.0000    0.0000 Cl  0  0
    0.0000    0.0000    0.0000 C   0  0
    0.0000    0.0000    0.0000 C   0  0
    0.0000    0.0000    0.0000 C   0  0
    0.0000    0.0000    0.0000 C   0  0
    0.0000    0.0000    0.0000 C   0  0
    0.0000    0.0000    0.0000 C   0  0
  1  2  1  0
  2  3  2  3
  3  4  1  0
  4  5  2  3
  5  6  1  0
  6  7  2  3
  7  2  1  0
M  END
> <Name>
Chlorobenzene

> <SMILES>
Clc1ccccc1

> <Reference>
SAR and QSAR in Env Res (1994) 2:159

> <Id>
108-90-7

> <Activity>
NEG

> <Predicted Value>
0.015  NEG

> <Used>
1

> <Status>
Non-Sensitizer

> <isSensitizer>
0

$$$$
4;4'-Isopropylidene diphenol
  SciTegic06161615552D

 27 28  0  0  0  0            999 V2000
    0.0000    0.0000    0.0000 C   0  0
    0.0000    0.0000    0.0000 C   0  0
    0.0000    0.0000    0.0000 C   0  0
    0.0000    0.0000    0.0000 C   0  0
    0.0000    0.0000    0.0000 O   0  0
    0.0000    0.0000    0.0000 O   0  0
    0.0000    0.0000    0.0000 C   0  0
    0.0000    0.0000    0.0000 C   0  0
    0.0000    0.0000    0.0000 C   0  0
    0.0000    0.0000    0.0000 C   0  0
    0.0000    0.0000    0.0000 C   0  0
    0.0000    0.0000    0.0000 C   0  0
    0.0000    0.0000    0.0000 C   0  0
    0.0000    0.0000    0.0000 C   0  0
    0.0000    0.0000    0.0000 C   0  0
    0.0000    0.0000    0.0000 C   0  0
    0.0000    0.0000    0.0000 C   0  0
    0.0000    0.0000    0.0000 C   0  0
    0.0000    0.0000    0.0000 C   0  0
    0.0000    0.0000    0.0000 O   0  0
    0.0000    0.0000    0.0000 C   0  0
    0.0000    0.0000    0.0000 O   0  0
    0.0000    0.0000    0.0000 C   0  0
    0.0000    0.0000    0.0000 C   0  0
    0.0000    0.0000    0.0000 C   0  0
    0.0000    0.0000    0.0000 C   0  0
    0.0000    0.0000    0.0000 C   0  0
  1  2  1  0
  2  3  2  0
  2  4  1  0
  4  5  2  0
  4  6  1  0
  6  7  1  0
  7  8  2  3
  8  9  1  0
  9 10  2  3
 10 11  1  0
 11 12  2  3
 12  7  1  0
 10 13  1  0
 13 14  1  0
 13 15  1  0
 13 16  1  0
 16 17  2  3
 17 18  1  0
 18 19  2  3
 19 20  1  0
 20 21  1  0
 21 22  2  0
 21 23  1  0
 23 24  1  0
 23 25  2  0
 19 26  1  0
 26 27  2  3
 27 16  1  0
M  END
> <Name>
4;4'-Isopropylidene diphenol

> <SMILES>
CC(=C)C(=O)Oc1ccc(cc1)C(C)(C)c2ccc(OC(=O)C(C)=C)cc2

> <Reference>
Howard I Maibach (priv comm)

> <Id>
3253-39-2

> <Activity>
POS

> <Predicted Value>
1      POS

> <Used>
1

> <Status>
Sensitizer

> <isSensitizer>
1

$$$$
6-Methoxy-7;8-dihydroxycoumarin
  SciTegic06161615552D

 15 16  0  0  0  0            999 V2000
    0.0000    0.0000    0.0000 C   0  0
    0.0000    0.0000    0.0000 O   0  0
    0.0000    0.0000    0.0000 C   0  0
    0.0000    0.0000    0.0000 C   0  0
    0.0000    0.0000    0.0000 C   0  0
    0.0000    0.0000    0.0000 C   0  0
    0.0000    0.0000    0.0000 C   0  0
    0.0000    0.0000    0.0000 C   0  0
    0.0000    0.0000    0.0000 O   0  0
    0.0000    0.0000    0.0000 O   0  0
    0.0000    0.0000    0.0000 C   0  0
    0.0000    0.0000    0.0000 C   0  0
    0.0000    0.0000    0.0000 O   0  0
    0.0000    0.0000    0.0000 C   0  0
    0.0000    0.0000    0.0000 O   0  0
  1  2  1  0
  2  3  1  0
  3  4  2  3
  4  5  1  0
  5  6  1  0
  6  7  2  3
  7  8  1  0
  8  9  2  0
  8 10  1  0
 10 11  1  0
 11  5  2  3
 11 12  1  0
 12 13  1  0
 12 14  2  3
 14  3  1  0
 14 15  1  0
M  END
> <Name>
6-Methoxy-7;8-dihydroxycoumarin

> <SMILES>
COc2cc1ccc(=O)oc1c(O)c2O

> <Reference>
Contact Dermatitis (1986) 15:289

> <Id>
574-84-5

> <Activity>
POS

> <Predicted Value>
1      POS

> <Used>
1

> <Status>
Sensitizer

> <isSensitizer>
1

$$$$
meta-Hydroxybenzylphenol
  SciTegic06161615552D

 15 16  0  0  0  0            999 V2000
    0.0000    0.0000    0.0000 O   0  0
    0.0000    0.0000    0.0000 C   0  0
    0.0000    0.0000    0.0000 C   0  0
    0.0000    0.0000    0.0000 C   0  0
    0.0000    0.0000    0.0000 C   0  0
    0.0000    0.0000    0.0000 C   0  0
    0.0000    0.0000    0.0000 C   0  0
    0.0000    0.0000    0.0000 C   0  0
    0.0000    0.0000    0.0000 C   0  0
    0.0000    0.0000    0.0000 C   0  0
    0.0000    0.0000    0.0000 C   0  0
    0.0000    0.0000    0.0000 C   0  0
    0.0000    0.0000    0.0000 C   0  0
    0.0000    0.0000    0.0000 O   0  0
    0.0000    0.0000    0.0000 C   0  0
  1  2  1  0
  2  3  2  3
  3  4  1  0
  4  5  2  3
  5  6  1  0
  6  7  1  0
  7  8  1  0
  8  9  2  3
  9 10  1  0
 10 11  2  3
 11 12  1  0
 12 13  2  3
 13  8  1  0
 13 14  1  0
  6 15  2  3
 15  2  1  0
M  END
> <Name>
meta-Hydroxybenzylphenol

> <SMILES>
Oc2cccc(Cc1ccccc1O)c2

> <Id>
99999-10-0

> <Activity>
POS

> <Predicted Value>
1      POS

> <Used>
1

> <Status>
Sensitizer

> <isSensitizer>
1

$$$$
1-Naphthol
  SciTegic06161615552D

 11 12  0  0  0  0            999 V2000
    0.0000    0.0000    0.0000 O   0  0
    0.0000    0.0000    0.0000 C   0  0
    0.0000    0.0000    0.0000 C   0  0
    0.0000    0.0000    0.0000 C   0  0
    0.0000    0.0000    0.0000 C   0  0
    0.0000    0.0000    0.0000 C   0  0
    0.0000    0.0000    0.0000 C   0  0
    0.0000    0.0000    0.0000 C   0  0
    0.0000    0.0000    0.0000 C   0  0
    0.0000    0.0000    0.0000 C   0  0
    0.0000    0.0000    0.0000 C   0  0
  1  2  1  0
  2  3  2  3
  3  4  1  0
  4  5  2  3
  5  6  1  0
  6  7  2  3
  7  8  1  0
  8  9  2  3
  9 10  1  0
 10 11  2  3
 11  2  1  0
 11  6  1  0
M  END
> <Name>
1-Naphthol

> <SMILES>
Oc1cccc2ccccc12

> <Reference>
J Am Coll Toxicol (1989) 8(4):749

> <Id>
90-15-3

> <Activity>
NEG

> <Predicted Value>
0      NEG

> <Used>
1

> <Status>
Non-Sensitizer

> <isSensitizer>
0

$$$$
4-Methylesculetin
  SciTegic06161615552D

 14 15  0  0  0  0            999 V2000
    0.0000    0.0000    0.0000 C   0  0
    0.0000    0.0000    0.0000 C   0  0
    0.0000    0.0000    0.0000 C   0  0
    0.0000    0.0000    0.0000 C   0  0
    0.0000    0.0000    0.0000 O   0  0
    0.0000    0.0000    0.0000 O   0  0
    0.0000    0.0000    0.0000 C   0  0
    0.0000    0.0000    0.0000 C   0  0
    0.0000    0.0000    0.0000 C   0  0
    0.0000    0.0000    0.0000 O   0  0
    0.0000    0.0000    0.0000 C   0  0
    0.0000    0.0000    0.0000 O   0  0
    0.0000    0.0000    0.0000 C   0  0
    0.0000    0.0000    0.0000 C   0  0
  1  2  1  0
  2  3  2  3
  3  4  1  0
  4  5  2  0
  4  6  1  0
  6  7  1  0
  7  8  2  3
  8  9  1  0
  9 10  1  0
  9 11  2  3
 11 12  1  0
 11 13  1  0
 13 14  2  3
 14  2  1  0
 14  7  1  0
M  END
> <Name>
4-Methylesculetin

> <SMILES>
Cc1cc(=O)oc2cc(O)c(O)cc12

> <Reference>
Contact Dermatitis (1986) 15:157

> <Id>
529-84-0

> <Activity>
POS

> <Predicted Value>
1      POS

> <Used>
1

> <Status>
Sensitizer

> <isSensitizer>
1

$$$$
Butylated hydroxytoluene
  SciTegic06161615552D

 16 16  0  0  0  0            999 V2000
    0.0000    0.0000    0.0000 C   0  0
    0.0000    0.0000    0.0000 C   0  0
    0.0000    0.0000    0.0000 C   0  0
    0.0000    0.0000    0.0000 C   0  0
    0.0000    0.0000    0.0000 C   0  0
    0.0000    0.0000    0.0000 O   0  0
    0.0000    0.0000    0.0000 C   0  0
    0.0000    0.0000    0.0000 C   0  0
    0.0000    0.0000    0.0000 C   0  0
    0.0000    0.0000    0.0000 C   0  0
    0.0000    0.0000    0.0000 C   0  0
    0.0000    0.0000    0.0000 C   0  0
    0.0000    0.0000    0.0000 C   0  0
    0.0000    0.0000    0.0000 C   0  0
    0.0000    0.0000    0.0000 C   0  0
    0.0000    0.0000    0.0000 C   0  0
  1  2  1  0
  2  3  2  3
  3  4  1  0
  4  5  2  3
  5  6  1  0
  5  7  1  0
  7  8  2  3
  8  2  1  0
  7  9  1  0
  9 10  1  0
  9 11  1  0
  9 12  1  0
  4 13  1  0
 13 14  1  0
 13 15  1  0
 13 16  1  0
M  END
> <Name>
Butylated hydroxytoluene

> <SMILES>
Cc1cc(c(O)c(c1)C(C)(C)C)C(C)(C)C

> <Reference>
SAR and QSAR in Env Res (1994) 2:159

> <Id>
128-37-0

> <Activity>
NEG

> <Predicted Value>
0      NEG

> <Used>
1

> <Status>
Non-Sensitizer

> <isSensitizer>
0

$$$$
4-(para-Hydroxybenzyl)-2-hydroxymethylphenol
  SciTegic06161615552D

 17 18  0  0  0  0            999 V2000
    0.0000    0.0000    0.0000 O   0  0
    0.0000    0.0000    0.0000 C   0  0
    0.0000    0.0000    0.0000 C   0  0
    0.0000    0.0000    0.0000 C   0  0
    0.0000    0.0000    0.0000 C   0  0
    0.0000    0.0000    0.0000 C   0  0
    0.0000    0.0000    0.0000 C   0  0
    0.0000    0.0000    0.0000 C   0  0
    0.0000    0.0000    0.0000 C   0  0
    0.0000    0.0000    0.0000 C   0  0
    0.0000    0.0000    0.0000 O   0  0
    0.0000    0.0000    0.0000 C   0  0
    0.0000    0.0000    0.0000 C   0  0
    0.0000    0.0000    0.0000 C   0  0
    0.0000    0.0000    0.0000 C   0  0
    0.0000    0.0000    0.0000 C   0  0
    0.0000    0.0000    0.0000 O   0  0
  1  2  1  0
  2  3  1  0
  3  4  2  3
  4  5  1  0
  5  6  1  0
  6  7  1  0
  7  8  2  3
  8  9  1  0
  9 10  2  3
 10 11  1  0
 10 12  1  0
 12 13  2  3
 13  7  1  0
  5 14  2  3
 14 15  1  0
 15 16  2  3
 16  3  1  0
 16 17  1  0
M  END
> <Name>
4-(para-Hydroxybenzyl)-2-hydroxymethylphenol

> <SMILES>
OCc2cc(Cc1ccc(O)cc1)ccc2O

> <Id>
99999-14-0

> <Activity>
POS

> <Predicted Value>
1      POS

> <Used>
1

> <Status>
Sensitizer

> <isSensitizer>
1

$$$$
Phenyl acetaldehyde dimethyl acetal
  SciTegic06161615552D

 12 12  0  0  0  0            999 V2000
    0.0000    0.0000    0.0000 O   0  0
    0.0000    0.0000    0.0000 C   0  0
    0.0000    0.0000    0.0000 C   0  0
    0.0000    0.0000    0.0000 C   0  0
    0.0000    0.0000    0.0000 C   0  0
    0.0000    0.0000    0.0000 C   0  0
    0.0000    0.0000    0.0000 C   0  0
    0.0000    0.0000    0.0000 C   0  0
    0.0000    0.0000    0.0000 C   0  0
    0.0000    0.0000    0.0000 C   0  0
    0.0000    0.0000    0.0000 C   0  0
    0.0000    0.0000    0.0000 O   0  0
  1  2  2  0
  2  3  1  0
  3  4  1  0
  4  5  1  0
  5  6  2  3
  6  7  1  0
  7  8  2  3
  8  9  1  0
  9 10  2  3
 10  5  1  0
  3 11  1  0
 11 12  2  0
M  END
> <Name>
Phenyl acetaldehyde dimethyl acetal

> <SMILES>
O=CC(Cc1ccccc1)C=O

> <Reference>
SAR and QSAR in Env Res (1994) 2:159

> <Id>
CRO-90

> <Activity>
POS

> <Predicted Value>
1      POS

> <Used>
1

> <Status>
Sensitizer

> <isSensitizer>
1

$$$$
o-Phenylenediamine
  SciTegic06161615552D

  8  8  0  0  0  0            999 V2000
    0.0000    0.0000    0.0000 N   0  0
    0.0000    0.0000    0.0000 C   0  0
    0.0000    0.0000    0.0000 C   0  0
    0.0000    0.0000    0.0000 C   0  0
    0.0000    0.0000    0.0000 C   0  0
    0.0000    0.0000    0.0000 C   0  0
    0.0000    0.0000    0.0000 C   0  0
    0.0000    0.0000    0.0000 N   0  0
  1  2  1  0
  2  3  2  3
  3  4  1  0
  4  5  2  3
  5  6  1  0
  6  7  2  3
  7  2  1  0
  7  8  1  0
M  END
> <Name>
o-Phenylenediamine

> <SMILES>
Nc1ccccc1N

> <Reference>
Contact Dermatitis (1985) 13:226

> <Id>
95-54-5

> <Activity>
POS

> <Predicted Value>
0.999  POS

> <Used>
1

> <Status>
Sensitizer

> <isSensitizer>
1

$$$$
1;4-Diaminoanthraqionone
  SciTegic06161615552D

 18 20  0  0  0  0            999 V2000
    0.0000    0.0000    0.0000 N   0  0
    0.0000    0.0000    0.0000 C   0  0
    0.0000    0.0000    0.0000 C   0  0
    0.0000    0.0000    0.0000 C   0  0
    0.0000    0.0000    0.0000 C   0  0
    0.0000    0.0000    0.0000 N   0  0
    0.0000    0.0000    0.0000 C   0  0
    0.0000    0.0000    0.0000 C   0  0
    0.0000    0.0000    0.0000 O   0  0
    0.0000    0.0000    0.0000 C   0  0
    0.0000    0.0000    0.0000 C   0  0
    0.0000    0.0000    0.0000 C   0  0
    0.0000    0.0000    0.0000 C   0  0
    0.0000    0.0000    0.0000 C   0  0
    0.0000    0.0000    0.0000 C   0  0
    0.0000    0.0000    0.0000 C   0  0
    0.0000    0.0000    0.0000 O   0  0
    0.0000    0.0000    0.0000 C   0  0
  1  2  1  0
  2  3  2  3
  3  4  1  0
  4  5  2  3
  5  6  1  0
  5  7  1  0
  7  8  1  0
  8  9  2  0
  8 10  1  0
 10 11  2  3
 11 12  1  0
 12 13  2  3
 13 14  1  0
 14 15  2  3
 15 10  1  0
 15 16  1  0
 16 17  2  0
 16 18  1  0
 18  2  1  0
 18  7  2  3
M  END
> <Name>
1;4-Diaminoanthraqionone

> <SMILES>
Nc2ccc(N)c3C(=O)c1ccccc1C(=O)c23

> <Reference>
SAR and QSAR in Env Res (1994) 2:159

> <Id>
128-95-0

> <Activity>
POS

> <Predicted Value>
1      POS

> <Used>
1

> <Status>
Sensitizer

> <isSensitizer>
1

$$$$
6;7-Dihydroxycoumarin
  SciTegic06161615552D

 13 14  0  0  0  0            999 V2000
    0.0000    0.0000    0.0000 O   0  0
    0.0000    0.0000    0.0000 C   0  0
    0.0000    0.0000    0.0000 C   0  0
    0.0000    0.0000    0.0000 C   0  0
    0.0000    0.0000    0.0000 C   0  0
    0.0000    0.0000    0.0000 C   0  0
    0.0000    0.0000    0.0000 C   0  0
    0.0000    0.0000    0.0000 O   0  0
    0.0000    0.0000    0.0000 O   0  0
    0.0000    0.0000    0.0000 C   0  0
    0.0000    0.0000    0.0000 C   0  0
    0.0000    0.0000    0.0000 C   0  0
    0.0000    0.0000    0.0000 O   0  0
  1  2  1  0
  2  3  2  3
  3  4  1  0
  4  5  1  0
  5  6  2  3
  6  7  1  0
  7  8  2  0
  7  9  1  0
  9 10  1  0
 10  4  2  3
 10 11  1  0
 11 12  2  3
 12  2  1  0
 12 13  1  0
M  END
> <Name>
6;7-Dihydroxycoumarin

> <SMILES>
Oc2cc1ccc(=O)oc1cc2O

> <Reference>
Contact Dermatitis (1986) 15:239

> <Id>
305-01-1

> <Activity>
POS

> <Predicted Value>
0.885  POS

> <Used>
1

> <Status>
Sensitizer

> <isSensitizer>
1

$$$$
7;8-Dihydroxycoumarin
  SciTegic06161615552D

 13 14  0  0  0  0            999 V2000
    0.0000    0.0000    0.0000 O   0  0
    0.0000    0.0000    0.0000 C   0  0
    0.0000    0.0000    0.0000 C   0  0
    0.0000    0.0000    0.0000 C   0  0
    0.0000    0.0000    0.0000 C   0  0
    0.0000    0.0000    0.0000 C   0  0
    0.0000    0.0000    0.0000 C   0  0
    0.0000    0.0000    0.0000 C   0  0
    0.0000    0.0000    0.0000 O   0  0
    0.0000    0.0000    0.0000 O   0  0
    0.0000    0.0000    0.0000 C   0  0
    0.0000    0.0000    0.0000 C   0  0
    0.0000    0.0000    0.0000 O   0  0
  1  2  1  0
  2  3  2  3
  3  4  1  0
  4  5  2  3
  5  6  1  0
  6  7  2  3
  7  8  1  0
  8  9  2  0
  8 10  1  0
 10 11  1  0
 11  5  1  0
 11 12  2  3
 12  2  1  0
 12 13  1  0
M  END
> <Name>
7;8-Dihydroxycoumarin

> <SMILES>
Oc2ccc1ccc(=O)oc1c2O

> <Reference>
Contact Dermatitis (1986) 15:289

> <Id>
486-35-1

> <Activity>
POS

> <Predicted Value>
1      POS

> <Used>
1

> <Status>
Sensitizer

> <isSensitizer>
1

$$$$
para-Hydroxybenzyl-3-phenol
  SciTegic06161615552D

 15 16  0  0  0  0            999 V2000
    0.0000    0.0000    0.0000 O   0  0
    0.0000    0.0000    0.0000 C   0  0
    0.0000    0.0000    0.0000 C   0  0
    0.0000    0.0000    0.0000 C   0  0
    0.0000    0.0000    0.0000 C   0  0
    0.0000    0.0000    0.0000 C   0  0
    0.0000    0.0000    0.0000 C   0  0
    0.0000    0.0000    0.0000 C   0  0
    0.0000    0.0000    0.0000 C   0  0
    0.0000    0.0000    0.0000 C   0  0
    0.0000    0.0000    0.0000 C   0  0
    0.0000    0.0000    0.0000 O   0  0
    0.0000    0.0000    0.0000 C   0  0
    0.0000    0.0000    0.0000 C   0  0
    0.0000    0.0000    0.0000 C   0  0
  1  2  1  0
  2  3  2  3
  3  4  1  0
  4  5  2  3
  5  6  1  0
  6  7  1  0
  7  8  2  3
  8  9  1  0
  9 10  2  3
 10 11  1  0
 11 12  1  0
 11 13  2  3
 13  7  1  0
  5 14  1  0
 14 15  2  3
 15  2  1  0
M  END
> <Name>
para-Hydroxybenzyl-3-phenol

> <SMILES>
Oc2ccc(Cc1cccc(O)c1)cc2

> <Id>
99999-09-0

> <Activity>
POS

> <Predicted Value>
1      POS

> <Used>
1

> <Status>
Sensitizer

> <isSensitizer>
1

$$$$
4-(2-Hydroxy-1-naphthylazo)benzene sulfonic acid; sodium salt
  SciTegic06161615552D

 23 25  0  0  0  0            999 V2000
    0.0000    0.0000    0.0000 O   0  0
    0.0000    0.0000    0.0000 C   0  0
    0.0000    0.0000    0.0000 C   0  0
    0.0000    0.0000    0.0000 C   0  0
    0.0000    0.0000    0.0000 C   0  0
    0.0000    0.0000    0.0000 C   0  0
    0.0000    0.0000    0.0000 C   0  0
    0.0000    0.0000    0.0000 C   0  0
    0.0000    0.0000    0.0000 C   0  0
    0.0000    0.0000    0.0000 C   0  0
    0.0000    0.0000    0.0000 C   0  0
    0.0000    0.0000    0.0000 N   0  0
    0.0000    0.0000    0.0000 N   0  0
    0.0000    0.0000    0.0000 C   0  0
    0.0000    0.0000    0.0000 C   0  0
    0.0000    0.0000    0.0000 C   0  0
    0.0000    0.0000    0.0000 C   0  0
    0.0000    0.0000    0.0000 C   0  0
    0.0000    0.0000    0.0000 C   0  0
    0.0000    0.0000    0.0000 S   0  0
    0.0000    0.0000    0.0000 O   0  5
    0.0000    0.0000    0.0000 O   0  0
    0.0000    0.0000    0.0000 O   0  0
  1  2  1  0
  2  3  2  3
  3  4  1  0
  4  5  2  3
  5  6  1  0
  6  7  2  3
  7  8  1  0
  8  9  2  3
  9 10  1  0
 10  5  1  0
 10 11  2  3
 11  2  1  0
 11 12  1  0
 12 13  2  3
 13 14  1  0
 14 15  2  3
 15 16  1  0
 16 17  2  3
 17 18  1  0
 18 19  2  3
 19 14  1  0
 17 20  1  0
 20 21  1  0
 20 22  2  0
 20 23  2  0
M  CHG  1  21  -1
M  END
> <Name>
4-(2-Hydroxy-1-naphthylazo)benzene sulfonic acid; sodium salt

> <SMILES>
Oc2ccc1ccccc1c2N=Nc3ccc(cc3)S([O-])(=O)=O

> <Reference>
SAR and QSAR in Env Res (1994) 2:159

> <Id>
CRO-89

> <Activity>
NEG

> <Predicted Value>
0      NEG

> <Used>
1

> <Status>
Non-Sensitizer

> <isSensitizer>
0

$$$$
4-Hydroxystilbene
  SciTegic06161615552D

 15 16  0  0  0  0            999 V2000
    0.0000    0.0000    0.0000 O   0  0
    0.0000    0.0000    0.0000 C   0  0
    0.0000    0.0000    0.0000 C   0  0
    0.0000    0.0000    0.0000 C   0  0
    0.0000    0.0000    0.0000 C   0  0
    0.0000    0.0000    0.0000 C   0  0
    0.0000    0.0000    0.0000 C   0  0
    0.0000    0.0000    0.0000 C   0  0
    0.0000    0.0000    0.0000 C   0  0
    0.0000    0.0000    0.0000 C   0  0
    0.0000    0.0000    0.0000 C   0  0
    0.0000    0.0000    0.0000 C   0  0
    0.0000    0.0000    0.0000 C   0  0
    0.0000    0.0000    0.0000 C   0  0
    0.0000    0.0000    0.0000 C   0  0
  1  2  1  0
  2  3  2  3
  3  4  1  0
  4  5  2  3
  5  6  1  0
  6  7  2  3
  7  8  1  0
  8  9  2  3
  9 10  1  0
 10 11  2  3
 11 12  1  0
 12 13  2  3
 13  8  1  0
  5 14  1  0
 14 15  2  3
 15  2  1  0
M  END
> <Name>
4-Hydroxystilbene

> <SMILES>
Oc2ccc(C=Cc1ccccc1)cc2

> <Reference>
SAR and QSAR in Env Res (1994) 2:159

> <Id>
CRO-64

> <Activity>
POS

> <Predicted Value>
1      POS

> <Used>
1

> <Status>
Sensitizer

> <isSensitizer>
1

$$$$
Dehydroabietic Acid
  SciTegic06161615552D

 22 24  0  0  0  0            999 V2000
    0.0000    0.0000    0.0000 C   0  0
    0.0000    0.0000    0.0000 C   0  0
    0.0000    0.0000    0.0000 C   0  0
    0.0000    0.0000    0.0000 C   0  0
    0.0000    0.0000    0.0000 C   0  0
    0.0000    0.0000    0.0000 C   0  0
    0.0000    0.0000    0.0000 C   0  0
    0.0000    0.0000    0.0000 C   0  0
    0.0000    0.0000    0.0000 C   0  0
    0.0000    0.0000    0.0000 C   0  0
    0.0000    0.0000    0.0000 C   0  0
    0.0000    0.0000    0.0000 C   0  0
    0.0000    0.0000    0.0000 C   0  0
    0.0000    0.0000    0.0000 C   0  0
    0.0000    0.0000    0.0000 C   0  0
    0.0000    0.0000    0.0000 C   0  0
    0.0000    0.0000    0.0000 C   0  0
    0.0000    0.0000    0.0000 C   0  0
    0.0000    0.0000    0.0000 C   0  0
    0.0000    0.0000    0.0000 O   0  0
    0.0000    0.0000    0.0000 O   0  0
    0.0000    0.0000    0.0000 C   0  0
  1  2  1  0
  2  3  1  0
  2  4  1  0
  4  5  2  3
  5  6  1  0
  6  7  2  3
  7  8  1  0
  8  9  1  0
  9 10  1  0
 10 11  1  0
 11 12  1  0
 12 13  1  0
 12 14  1  0
 14 15  1  0
 15 16  1  0
 16 17  1  0
 17  7  1  0
 17 11  1  0
 17 18  1  0
 12 19  1  0
 19 20  1  0
 19 21  2  0
  8 22  2  3
 22  4  1  0
M  END
> <Name>
Dehydroabietic Acid

> <SMILES>
CC(C)c3ccc1c(CCC2C(C)(CCCC12C)C(O)=O)c3

> <Reference>
Contact Dermatitis (1989) 20:41

> <Id>
1740-19-8

> <Activity>
POS

> <Predicted Value>
0.999  POS

> <Used>
1

> <Status>
Sensitizer

> <isSensitizer>
1

$$$$
Pyrogallol
  SciTegic06161615552D

  9  9  0  0  0  0            999 V2000
    0.0000    0.0000    0.0000 O   0  0
    0.0000    0.0000    0.0000 C   0  0
    0.0000    0.0000    0.0000 C   0  0
    0.0000    0.0000    0.0000 C   0  0
    0.0000    0.0000    0.0000 C   0  0
    0.0000    0.0000    0.0000 C   0  0
    0.0000    0.0000    0.0000 O   0  0
    0.0000    0.0000    0.0000 C   0  0
    0.0000    0.0000    0.0000 O   0  0
  1  2  1  0
  2  3  2  3
  3  4  1  0
  4  5  2  3
  5  6  1  0
  6  7  1  0
  6  8  2  3
  8  2  1  0
  8  9  1  0
M  END
> <Name>
Pyrogallol

> <SMILES>
Oc1cccc(O)c1O

> <Reference>
J Am Coll Toxicol (1991) 10(1):67

> <Id>
87-66-1

> <Activity>
NEG

> <Predicted Value>
1      POS

> <Used>
0

> <Status>
Non-Sensitizer

> <isSensitizer>
0

$$$$
Atranorin
  SciTegic06161615552D

 27 28  0  0  0  0            999 V2000
    0.0000    0.0000    0.0000 C   0  0
    0.0000    0.0000    0.0000 O   0  0
    0.0000    0.0000    0.0000 C   0  0
    0.0000    0.0000    0.0000 O   0  0
    0.0000    0.0000    0.0000 C   0  0
    0.0000    0.0000    0.0000 C   0  0
    0.0000    0.0000    0.0000 C   0  0
    0.0000    0.0000    0.0000 C   0  0
    0.0000    0.0000    0.0000 C   0  0
    0.0000    0.0000    0.0000 O   0  0
    0.0000    0.0000    0.0000 C   0  0
    0.0000    0.0000    0.0000 O   0  0
    0.0000    0.0000    0.0000 C   0  0
    0.0000    0.0000    0.0000 C   0  0
    0.0000    0.0000    0.0000 C   0  0
    0.0000    0.0000    0.0000 C   0  0
    0.0000    0.0000    0.0000 C   0  0
    0.0000    0.0000    0.0000 O   0  0
    0.0000    0.0000    0.0000 C   0  0
    0.0000    0.0000    0.0000 C   0  0
    0.0000    0.0000    0.0000 O   0  0
    0.0000    0.0000    0.0000 C   0  0
    0.0000    0.0000    0.0000 O   0  0
    0.0000    0.0000    0.0000 C   0  0
    0.0000    0.0000    0.0000 C   0  0
    0.0000    0.0000    0.0000 C   0  0
    0.0000    0.0000    0.0000 O   0  0
  1  2  1  0
  2  3  1  0
  3  4  2  0
  3  5  1  0
  5  6  2  3
  6  7  1  0
  6  8  1  0
  8  9  2  3
  9 10  1  0
 10 11  1  0
 11 12  2  0
 11 13  1  0
 13 14  2  3
 14 15  1  0
 14 16  1  0
 16 17  2  3
 17 18  1  0
 17 19  1  0
 19 20  1  0
 20 21  2  0
 19 22  2  3
 22 13  1  0
 22 23  1  0
  9 24  1  0
 24 25  1  0
 24 26  2  3
 26  5  1  0
 26 27  1  0
M  END
> <Name>
Atranorin

> <SMILES>
COC(=O)c2c(C)cc(OC(=O)c1c(C)cc(O)c(C=O)c1O)c(C)c2O

> <Reference>
Contact Dermatitis (1993) 28:70

> <Id>
479-20-9

> <Activity>
POS

> <Predicted Value>
0.372  IND

> <Used>
1

> <Status>
Sensitizer

> <isSensitizer>
1

$$$$
4-(para-hydroxybenzyl)-2;6-dihydroxymethylphenol
  SciTegic06161615552D

 19 20  0  0  0  0            999 V2000
    0.0000    0.0000    0.0000 O   0  0
    0.0000    0.0000    0.0000 C   0  0
    0.0000    0.0000    0.0000 C   0  0
    0.0000    0.0000    0.0000 C   0  0
    0.0000    0.0000    0.0000 C   0  0
    0.0000    0.0000    0.0000 C   0  0
    0.0000    0.0000    0.0000 C   0  0
    0.0000    0.0000    0.0000 C   0  0
    0.0000    0.0000    0.0000 C   0  0
    0.0000    0.0000    0.0000 C   0  0
    0.0000    0.0000    0.0000 O   0  0
    0.0000    0.0000    0.0000 C   0  0
    0.0000    0.0000    0.0000 C   0  0
    0.0000    0.0000    0.0000 C   0  0
    0.0000    0.0000    0.0000 C   0  0
    0.0000    0.0000    0.0000 C   0  0
    0.0000    0.0000    0.0000 O   0  0
    0.0000    0.0000    0.0000 C   0  0
    0.0000    0.0000    0.0000 O   0  0
  1  2  1  0
  2  3  1  0
  3  4  2  3
  4  5  1  0
  5  6  1  0
  6  7  1  0
  7  8  2  3
  8  9  1  0
  9 10  2  3
 10 11  1  0
 10 12  1  0
 12 13  2  3
 13  7  1  0
  5 14  2  3
 14 15  1  0
 15 16  1  0
 16 17  1  0
 15 18  2  3
 18  3  1  0
 18 19  1  0
M  END
> <Name>
4-(para-hydroxybenzyl)-2;6-dihydroxymethylphenol

> <SMILES>
OCc2cc(Cc1ccc(O)cc1)cc(CO)c2O

> <Id>
99999-16-0

> <Activity>
POS

> <Predicted Value>
0.997  POS

> <Used>
1

> <Status>
Sensitizer

> <isSensitizer>
1

$$$$
Pyrocatechol
  SciTegic06161615552D

  8  8  0  0  0  0            999 V2000
    0.0000    0.0000    0.0000 O   0  0
    0.0000    0.0000    0.0000 C   0  0
    0.0000    0.0000    0.0000 C   0  0
    0.0000    0.0000    0.0000 C   0  0
    0.0000    0.0000    0.0000 C   0  0
    0.0000    0.0000    0.0000 C   0  0
    0.0000    0.0000    0.0000 C   0  0
    0.0000    0.0000    0.0000 O   0  0
  1  2  1  0
  2  3  2  3
  3  4  1  0
  4  5  2  3
  5  6  1  0
  6  7  2  3
  7  2  1  0
  7  8  1  0
M  END
> <Name>
Pyrocatechol

> <SMILES>
Oc1ccccc1O

> <Reference>
J Am Coll Toxicol (1986) 5(3):123

> <Id>
120-80-9

> <Activity>
NEG

> <Predicted Value>
0.025  NEG

> <Used>
1

> <Status>
Non-Sensitizer

> <isSensitizer>
0

$$$$
Dichloronitrobenzene
  SciTegic06161615552D

 11 11  0  0  0  0            999 V2000
    0.0000    0.0000    0.0000 Cl  0  0
    0.0000    0.0000    0.0000 C   0  0
    0.0000    0.0000    0.0000 C   0  0
    0.0000    0.0000    0.0000 C   0  0
    0.0000    0.0000    0.0000 C   0  0
    0.0000    0.0000    0.0000 N   0  0
    0.0000    0.0000    0.0000 O   0  0
    0.0000    0.0000    0.0000 O   0  0
    0.0000    0.0000    0.0000 C   0  0
    0.0000    0.0000    0.0000 Cl  0  0
    0.0000    0.0000    0.0000 C   0  0
  1  2  1  0
  2  3  2  3
  3  4  1  0
  4  5  2  3
  5  6  1  0
  6  7  2  0
  6  8  2  0
  5  9  1  0
  9 10  1  0
  9 11  2  3
 11  2  1  0
M  END
> <Name>
Dichloronitrobenzene

> <SMILES>
Clc1ccc(N(=O)=O)c(Cl)c1

> <Reference>
Contact Dermatitis (1996) 34:55

> <Id>
611-06-3

> <Activity>
POS

> <Predicted Value>
0.205  NEG

> <Used>
1

> <Status>
Sensitizer

> <isSensitizer>
1

$$$$
Esculin
  SciTegic06161615552D

 24 26  0  0  0  0            999 V2000
    0.0000    0.0000    0.0000 O   0  0
    0.0000    0.0000    0.0000 C   0  0
    0.0000    0.0000    0.0000 C   0  0
    0.0000    0.0000    0.0000 O   0  0
    0.0000    0.0000    0.0000 C   0  0
    0.0000    0.0000    0.0000 O   0  0
    0.0000    0.0000    0.0000 C   0  0
    0.0000    0.0000    0.0000 C   0  0
    0.0000    0.0000    0.0000 C   0  0
    0.0000    0.0000    0.0000 C   0  0
    0.0000    0.0000    0.0000 C   0  0
    0.0000    0.0000    0.0000 C   0  0
    0.0000    0.0000    0.0000 O   0  0
    0.0000    0.0000    0.0000 O   0  0
    0.0000    0.0000    0.0000 C   0  0
    0.0000    0.0000    0.0000 C   0  0
    0.0000    0.0000    0.0000 C   0  0
    0.0000    0.0000    0.0000 O   0  0
    0.0000    0.0000    0.0000 C   0  0
    0.0000    0.0000    0.0000 O   0  0
    0.0000    0.0000    0.0000 C   0  0
    0.0000    0.0000    0.0000 O   0  0
    0.0000    0.0000    0.0000 C   0  0
    0.0000    0.0000    0.0000 O   0  0
  1  2  1  0
  2  3  1  0
  3  4  1  0
  4  5  1  0
  5  6  1  0
  6  7  1  0
  7  8  2  3
  8  9  1  0
  9 10  1  0
 10 11  2  3
 11 12  1  0
 12 13  2  0
 12 14  1  0
 14 15  1  0
 15  9  2  3
 15 16  1  0
 16 17  2  3
 17  7  1  0
 17 18  1  0
  5 19  1  0
 19 20  1  0
 19 21  1  0
 21 22  1  0
 21 23  1  0
 23  3  1  0
 23 24  1  0
M  END
> <Name>
Esculin

> <SMILES>
OCC3OC(Oc2cc1ccc(=O)oc1cc2O)C(O)C(O)C3O

> <Reference>
Contact Dermatitis (1986) 15:157

> <Id>
531-75-9

> <Activity>
NEG

> <Predicted Value>
0      NEG

> <Used>
1

> <Status>
Non-Sensitizer

> <isSensitizer>
0

$$$$
Sudan I
  SciTegic06161615552D

 19 21  0  0  0  0            999 V2000
    0.0000    0.0000    0.0000 O   0  0
    0.0000    0.0000    0.0000 C   0  0
    0.0000    0.0000    0.0000 C   0  0
    0.0000    0.0000    0.0000 C   0  0
    0.0000    0.0000    0.0000 C   0  0
    0.0000    0.0000    0.0000 C   0  0
    0.0000    0.0000    0.0000 C   0  0
    0.0000    0.0000    0.0000 C   0  0
    0.0000    0.0000    0.0000 C   0  0
    0.0000    0.0000    0.0000 C   0  0
    0.0000    0.0000    0.0000 C   0  0
    0.0000    0.0000    0.0000 N   0  0
    0.0000    0.0000    0.0000 N   0  0
    0.0000    0.0000    0.0000 C   0  0
    0.0000    0.0000    0.0000 C   0  0
    0.0000    0.0000    0.0000 C   0  0
    0.0000    0.0000    0.0000 C   0  0
    0.0000    0.0000    0.0000 C   0  0
    0.0000    0.0000    0.0000 C   0  0
  1  2  1  0
  2  3  2  3
  3  4  1  0
  4  5  2  3
  5  6  1  0
  6  7  2  3
  7  8  1  0
  8  9  2  3
  9 10  1  0
 10  5  1  0
 10 11  2  3
 11  2  1  0
 11 12  1  0
 12 13  2  3
 13 14  1  0
 14 15  2  3
 15 16  1  0
 16 17  2  3
 17 18  1  0
 18 19  2  3
 19 14  1  0
M  END
> <Name>
Sudan I

> <SMILES>
Oc2ccc1ccccc1c2N=Nc3ccccc3

> <Reference>
Contact Dermatitis (1991) 25:313

> <Id>
842-07-9

> <Activity>
NEG

> <Predicted Value>
0      NEG

> <Used>
1

> <Status>
Non-Sensitizer

> <isSensitizer>
0

$$$$
3-Hydroxy-2-naphthanilide
  SciTegic06161615552D

 20 22  0  0  0  0            999 V2000
    0.0000    0.0000    0.0000 O   0  0
    0.0000    0.0000    0.0000 C   0  0
    0.0000    0.0000    0.0000 C   0  0
    0.0000    0.0000    0.0000 C   0  0
    0.0000    0.0000    0.0000 C   0  0
    0.0000    0.0000    0.0000 C   0  0
    0.0000    0.0000    0.0000 C   0  0
    0.0000    0.0000    0.0000 C   0  0
    0.0000    0.0000    0.0000 C   0  0
    0.0000    0.0000    0.0000 C   0  0
    0.0000    0.0000    0.0000 C   0  0
    0.0000    0.0000    0.0000 C   0  0
    0.0000    0.0000    0.0000 O   0  0
    0.0000    0.0000    0.0000 N   0  0
    0.0000    0.0000    0.0000 C   0  0
    0.0000    0.0000    0.0000 C   0  0
    0.0000    0.0000    0.0000 C   0  0
    0.0000    0.0000    0.0000 C   0  0
    0.0000    0.0000    0.0000 C   0  0
    0.0000    0.0000    0.0000 C   0  0
  1  2  1  0
  2  3  2  3
  3  4  1  0
  4  5  2  3
  5  6  1  0
  6  7  2  3
  7  8  1  0
  8  9  2  3
  9  4  1  0
  9 10  1  0
 10 11  2  3
 11  2  1  0
 11 12  1  0
 12 13  2  0
 12 14  1  0
 14 15  1  0
 15 16  2  3
 16 17  1  0
 17 18  2  3
 18 19  1  0
 19 20  2  3
 20 15  1  0
M  END
> <Name>
3-Hydroxy-2-naphthanilide

> <SMILES>
Oc2cc1ccccc1cc2C(=O)Nc3ccccc3

> <Reference>
Contact Dermatitis (1994) 31:72

> <Id>
92-77-3

> <Activity>
POS

> <Predicted Value>
0      NEG

> <Used>
0

> <Status>
Sensitizer

> <isSensitizer>
1

$$$$
Phenyl-alpha-naphthylamimne
  SciTegic06161615552D

 17 19  0  0  0  0            999 V2000
    0.0000    0.0000    0.0000 N   0  0
    0.0000    0.0000    0.0000 C   0  0
    0.0000    0.0000    0.0000 C   0  0
    0.0000    0.0000    0.0000 C   0  0
    0.0000    0.0000    0.0000 C   0  0
    0.0000    0.0000    0.0000 C   0  0
    0.0000    0.0000    0.0000 C   0  0
    0.0000    0.0000    0.0000 C   0  0
    0.0000    0.0000    0.0000 C   0  0
    0.0000    0.0000    0.0000 C   0  0
    0.0000    0.0000    0.0000 C   0  0
    0.0000    0.0000    0.0000 C   0  0
    0.0000    0.0000    0.0000 C   0  0
    0.0000    0.0000    0.0000 C   0  0
    0.0000    0.0000    0.0000 C   0  0
    0.0000    0.0000    0.0000 C   0  0
    0.0000    0.0000    0.0000 C   0  0
  1  2  1  0
  2  3  2  3
  3  4  1  0
  4  5  2  3
  5  6  1  0
  6  7  2  3
  7  2  1  0
  1  8  1  0
  8  9  2  3
  9 10  1  0
 10 11  2  3
 11 12  1  0
 12 13  2  3
 13 14  1  0
 14 15  2  3
 15 16  1  0
 16 17  2  3
 17  8  1  0
 17 12  1  0
M  END
> <Name>
Phenyl-alpha-naphthylamimne

> <SMILES>
N(c1ccccc1)c2cccc3ccccc23

> <Reference>
Contact Dermatitis (1980) 6:299

> <Id>
90-30-2

> <Activity>
POS

> <Predicted Value>
0.999  POS

> <Used>
1

> <Status>
Sensitizer

> <isSensitizer>
1

$$$$
p-Phenylenediamine
  SciTegic06161615552D

  8  8  0  0  0  0            999 V2000
    0.0000    0.0000    0.0000 N   0  0
    0.0000    0.0000    0.0000 C   0  0
    0.0000    0.0000    0.0000 C   0  0
    0.0000    0.0000    0.0000 C   0  0
    0.0000    0.0000    0.0000 C   0  0
    0.0000    0.0000    0.0000 N   0  0
    0.0000    0.0000    0.0000 C   0  0
    0.0000    0.0000    0.0000 C   0  0
  1  2  1  0
  2  3  2  3
  3  4  1  0
  4  5  2  3
  5  6  1  0
  5  7  1  0
  7  8  2  3
  8  2  1  0
M  END
> <Name>
p-Phenylenediamine

> <SMILES>
Nc1ccc(N)cc1

> <Reference>
Contact Dermatitis (1993) 28:235

> <Id>
106-50-3

> <Activity>
POS

> <Predicted Value>
1      POS

> <Used>
1

> <Status>
Sensitizer

> <isSensitizer>
1

$$$$
1-(4-Hydroxy-phenylazo)-naphthalen-2-ol
  SciTegic06161615552D

 20 22  0  0  0  0            999 V2000
    0.0000    0.0000    0.0000 O   0  0
    0.0000    0.0000    0.0000 C   0  0
    0.0000    0.0000    0.0000 C   0  0
    0.0000    0.0000    0.0000 C   0  0
    0.0000    0.0000    0.0000 C   0  0
    0.0000    0.0000    0.0000 N   0  0
    0.0000    0.0000    0.0000 N   0  0
    0.0000    0.0000    0.0000 C   0  0
    0.0000    0.0000    0.0000 C   0  0
    0.0000    0.0000    0.0000 O   0  0
    0.0000    0.0000    0.0000 C   0  0
    0.0000    0.0000    0.0000 C   0  0
    0.0000    0.0000    0.0000 C   0  0
    0.0000    0.0000    0.0000 C   0  0
    0.0000    0.0000    0.0000 C   0  0
    0.0000    0.0000    0.0000 C   0  0
    0.0000    0.0000    0.0000 C   0  0
    0.0000    0.0000    0.0000 C   0  0
    0.0000    0.0000    0.0000 C   0  0
    0.0000    0.0000    0.0000 C   0  0
  1  2  1  0
  2  3  2  3
  3  4  1  0
  4  5  2  3
  5  6  1  0
  6  7  2  3
  7  8  1  0
  8  9  2  3
  9 10  1  0
  9 11  1  0
 11 12  2  3
 12 13  1  0
 13 14  2  3
 14 15  1  0
 15 16  2  3
 16 17  1  0
 17 18  2  3
 18  8  1  0
 18 13  1  0
  5 19  1  0
 19 20  2  3
 20  2  1  0
M  END
> <Name>
1-(4-Hydroxy-phenylazo)-naphthalen-2-ol

> <SMILES>
Oc3ccc(N=Nc1c(O)ccc2ccccc12)cc3

> <Id>
99999-03-0

> <Activity>
POS

> <Predicted Value>
0.748  POS

> <Used>
1

> <Status>
Sensitizer

> <isSensitizer>
1

$$$$
Hydroxybenzomorpholine
  SciTegic06161615552D

 11 12  0  0  0  0            999 V2000
    0.0000    0.0000    0.0000 O   0  0
    0.0000    0.0000    0.0000 C   0  0
    0.0000    0.0000    0.0000 C   0  0
    0.0000    0.0000    0.0000 C   0  0
    0.0000    0.0000    0.0000 C   0  0
    0.0000    0.0000    0.0000 O   0  0
    0.0000    0.0000    0.0000 C   0  0
    0.0000    0.0000    0.0000 C   0  0
    0.0000    0.0000    0.0000 N   0  0
    0.0000    0.0000    0.0000 C   0  0
    0.0000    0.0000    0.0000 C   0  0
  1  2  1  0
  2  3  2  3
  3  4  1  0
  4  5  2  3
  5  6  1  0
  6  7  1  0
  7  8  1  0
  8  9  1  0
  9 10  1  0
 10  5  1  0
 10 11  2  3
 11  2  1  0
M  END
> <Name>
Hydroxybenzomorpholine

> <SMILES>
Oc2ccc1OCCNc1c2

> <Reference>
J Am Coll Toxicol (1991) 10(1):205

> <Id>
977067-94-9

> <Activity>
NEG

> <Predicted Value>
0      NEG

> <Used>
1

> <Status>
Non-Sensitizer

> <isSensitizer>
0

$$$$
Diphenylthiourea
  SciTegic06161615552D

 16 17  0  0  0  0            999 V2000
    0.0000    0.0000    0.0000 S   0  0
    0.0000    0.0000    0.0000 C   0  0
    0.0000    0.0000    0.0000 N   0  0
    0.0000    0.0000    0.0000 C   0  0
    0.0000    0.0000    0.0000 C   0  0
    0.0000    0.0000    0.0000 C   0  0
    0.0000    0.0000    0.0000 C   0  0
    0.0000    0.0000    0.0000 C   0  0
    0.0000    0.0000    0.0000 C   0  0
    0.0000    0.0000    0.0000 N   0  0
    0.0000    0.0000    0.0000 C   0  0
    0.0000    0.0000    0.0000 C   0  0
    0.0000    0.0000    0.0000 C   0  0
    0.0000    0.0000    0.0000 C   0  0
    0.0000    0.0000    0.0000 C   0  0
    0.0000    0.0000    0.0000 C   0  0
  1  2  2  0
  2  3  1  0
  3  4  1  0
  4  5  2  3
  5  6  1  0
  6  7  2  3
  7  8  1  0
  8  9  2  3
  9  4  1  0
  2 10  1  0
 10 11  1  0
 11 12  2  3
 12 13  1  0
 13 14  2  3
 14 15  1  0
 15 16  2  3
 16 11  1  0
M  END
> <Name>
Diphenylthiourea

> <SMILES>
S=C(Nc1ccccc1)Nc2ccccc2

> <Reference>
Contact Dermatitis (1994) 31:72

> <Id>
102-08-9

> <Activity>
POS

> <Predicted Value>
1      POS

> <Used>
1

> <Status>
Sensitizer

> <isSensitizer>
1

$$$$
3;4-(Methylenedioxy)benzaldehyde
  SciTegic06161615552D

 11 12  0  0  0  0            999 V2000
    0.0000    0.0000    0.0000 O   0  0
    0.0000    0.0000    0.0000 C   0  0
    0.0000    0.0000    0.0000 C   0  0
    0.0000    0.0000    0.0000 C   0  0
    0.0000    0.0000    0.0000 C   0  0
    0.0000    0.0000    0.0000 C   0  0
    0.0000    0.0000    0.0000 O   0  0
    0.0000    0.0000    0.0000 C   0  0
    0.0000    0.0000    0.0000 O   0  0
    0.0000    0.0000    0.0000 C   0  0
    0.0000    0.0000    0.0000 C   0  0
  1  2  2  0
  2  3  1  0
  3  4  2  3
  4  5  1  0
  5  6  2  3
  6  7  1  0
  7  8  1  0
  8  9  1  0
  9 10  1  0
 10  6  1  0
 10 11  2  3
 11  3  1  0
M  END
> <Name>
3;4-(Methylenedioxy)benzaldehyde

> <SMILES>
O=Cc2ccc1OCOc1c2

> <Reference>
SAR and QSAR in Env Res (1994) 2:159

> <Id>
120-57-0

> <Activity>
POS

> <Predicted Value>
1      POS

> <Used>
1

> <Status>
Sensitizer

> <isSensitizer>
1

$$$$
Sudan III
  SciTegic06161615552D

 27 30  0  0  0  0            999 V2000
    0.0000    0.0000    0.0000 O   0  0
    0.0000    0.0000    0.0000 C   0  0
    0.0000    0.0000    0.0000 C   0  0
    0.0000    0.0000    0.0000 C   0  0
    0.0000    0.0000    0.0000 C   0  0
    0.0000    0.0000    0.0000 C   0  0
    0.0000    0.0000    0.0000 C   0  0
    0.0000    0.0000    0.0000 C   0  0
    0.0000    0.0000    0.0000 C   0  0
    0.0000    0.0000    0.0000 C   0  0
    0.0000    0.0000    0.0000 C   0  0
    0.0000    0.0000    0.0000 N   0  0
    0.0000    0.0000    0.0000 N   0  0
    0.0000    0.0000    0.0000 C   0  0
    0.0000    0.0000    0.0000 C   0  0
    0.0000    0.0000    0.0000 C   0  0
    0.0000    0.0000    0.0000 C   0  0
    0.0000    0.0000    0.0000 N   0  0
    0.0000    0.0000    0.0000 N   0  0
    0.0000    0.0000    0.0000 C   0  0
    0.0000    0.0000    0.0000 C   0  0
    0.0000    0.0000    0.0000 C   0  0
    0.0000    0.0000    0.0000 C   0  0
    0.0000    0.0000    0.0000 C   0  0
    0.0000    0.0000    0.0000 C   0  0
    0.0000    0.0000    0.0000 C   0  0
    0.0000    0.0000    0.0000 C   0  0
  1  2  1  0
  2  3  2  3
  3  4  1  0
  4  5  2  3
  5  6  1  0
  6  7  2  3
  7  8  1  0
  8  9  2  3
  9 10  1  0
 10  5  1  0
 10 11  2  3
 11  2  1  0
 11 12  1  0
 12 13  2  3
 13 14  1  0
 14 15  2  3
 15 16  1  0
 16 17  2  3
 17 18  1  0
 18 19  2  3
 19 20  1  0
 20 21  2  3
 21 22  1  0
 22 23  2  3
 23 24  1  0
 24 25  2  3
 25 20  1  0
 17 26  1  0
 26 27  2  3
 27 14  1  0
M  END
> <Name>
Sudan III

> <SMILES>
Oc2ccc1ccccc1c2N=Nc4ccc(N=Nc3ccccc3)cc4

> <Reference>
Contact Dermatitis (1991) 25:313

> <Id>
85-86-9

> <Activity>
NEG

> <Predicted Value>
0.003  NEG

> <Used>
1

> <Status>
Non-Sensitizer

> <isSensitizer>
0

$$$$
Hydroquinone
  SciTegic06161615552D

  8  8  0  0  0  0            999 V2000
    0.0000    0.0000    0.0000 O   0  0
    0.0000    0.0000    0.0000 C   0  0
    0.0000    0.0000    0.0000 C   0  0
    0.0000    0.0000    0.0000 C   0  0
    0.0000    0.0000    0.0000 C   0  0
    0.0000    0.0000    0.0000 O   0  0
    0.0000    0.0000    0.0000 C   0  0
    0.0000    0.0000    0.0000 C   0  0
  1  2  1  0
  2  3  2  3
  3  4  1  0
  4  5  2  3
  5  6  1  0
  5  7  1  0
  7  8  2  3
  8  2  1  0
M  END
> <Name>
Hydroquinone

> <SMILES>
Oc1ccc(O)cc1

> <Reference>
Contact Dermatitis (1981) 7:248

> <Id>
123-31-9

> <Activity>
POS

> <Predicted Value>
0.169  NEG

> <Used>
1

> <Status>
Sensitizer

> <isSensitizer>
1

$$$$
2-Hydroxybenzylphenol
  SciTegic06161615552D

 15 16  0  0  0  0            999 V2000
    0.0000    0.0000    0.0000 O   0  0
    0.0000    0.0000    0.0000 C   0  0
    0.0000    0.0000    0.0000 C   0  0
    0.0000    0.0000    0.0000 C   0  0
    0.0000    0.0000    0.0000 C   0  0
    0.0000    0.0000    0.0000 C   0  0
    0.0000    0.0000    0.0000 C   0  0
    0.0000    0.0000    0.0000 C   0  0
    0.0000    0.0000    0.0000 C   0  0
    0.0000    0.0000    0.0000 C   0  0
    0.0000    0.0000    0.0000 C   0  0
    0.0000    0.0000    0.0000 C   0  0
    0.0000    0.0000    0.0000 C   0  0
    0.0000    0.0000    0.0000 C   0  0
    0.0000    0.0000    0.0000 O   0  0
  1  2  1  0
  2  3  2  3
  3  4  1  0
  4  5  2  3
  5  6  1  0
  6  7  2  3
  7  2  1  0
  7  8  1  0
  8  9  1  0
  9 10  2  3
 10 11  1  0
 11 12  2  3
 12 13  1  0
 13 14  2  3
 14  9  1  0
 14 15  1  0
M  END
> <Name>
2-Hydroxybenzylphenol

> <SMILES>
Oc1ccccc1Cc2ccccc2O

> <Id>
99999-08-0

> <Activity>
POS

> <Predicted Value>
0.824  POS

> <Used>
1

> <Status>
Sensitizer

> <isSensitizer>
1

$$$$
Coumarin
  SciTegic06161615552D

  9 10  0  0  0  0            999 V2000
    0.0000    0.0000    0.0000 C   0  0
    0.0000    0.0000    0.0000 C   0  0
    0.0000    0.0000    0.0000 C   0  0
    0.0000    0.0000    0.0000 C   0  0
    0.0000    0.0000    0.0000 C   0  0
    0.0000    0.0000    0.0000 C   0  0
    0.0000    0.0000    0.0000 C   0  0
    0.0000    0.0000    0.0000 C   0  0
    0.0000    0.0000    0.0000 O   0  0
  1  2  1  0
  2  3  1  0
  3  4  2  3
  4  5  1  0
  5  6  2  3
  6  7  1  0
  7  8  2  3
  8  3  1  0
  8  9  1  0
  9  1  1  0
M  END
> <Name>
Coumarin

> <SMILES>
C2Cc1ccccc1O2

> <Reference>
SAR and QSAR in Env Res (1994) 2:159

> <Id>
496-16-2

> <Activity>
NEG

> <Predicted Value>
0      NEG

> <Used>
1

> <Status>
Non-Sensitizer

> <isSensitizer>
0

$$$$
C.I.16255
  SciTegic06161615552D

 35 38  0  0  0  0            999 V2000
    0.0000    0.0000    0.0000 O   0  0
    0.0000    0.0000    0.0000 C   0  0
    0.0000    0.0000    0.0000 C   0  0
    0.0000    0.0000    0.0000 C   0  0
    0.0000    0.0000    0.0000 C   0  0
    0.0000    0.0000    0.0000 C   0  0
    0.0000    0.0000    0.0000 C   0  0
    0.0000    0.0000    0.0000 C   0  0
    0.0000    0.0000    0.0000 C   0  0
    0.0000    0.0000    0.0000 C   0  0
    0.0000    0.0000    0.0000 C   0  0
    0.0000    0.0000    0.0000 N   0  0
    0.0000    0.0000    0.0000 N   0  0
    0.0000    0.0000    0.0000 C   0  0
    0.0000    0.0000    0.0000 C   0  0
    0.0000    0.0000    0.0000 C   0  0
    0.0000    0.0000    0.0000 C   0  0
    0.0000    0.0000    0.0000 C   0  0
    0.0000    0.0000    0.0000 C   0  0
    0.0000    0.0000    0.0000 C   0  0
    0.0000    0.0000    0.0000 C   0  0
    0.0000    0.0000    0.0000 C   0  0
    0.0000    0.0000    0.0000 C   0  0
    0.0000    0.0000    0.0000 S   0  0
    0.0000    0.0000    0.0000 O   0  0
    0.0000    0.0000    0.0000 O   0  0
    0.0000    0.0000    0.0000 O   0  0
    0.0000    0.0000    0.0000 S   0  0
    0.0000    0.0000    0.0000 O   0  0
    0.0000    0.0000    0.0000 O   0  0
    0.0000    0.0000    0.0000 O   0  0
    0.0000    0.0000    0.0000 S   0  0
    0.0000    0.0000    0.0000 O   0  0
    0.0000    0.0000    0.0000 O   0  0
    0.0000    0.0000    0.0000 O   0  0
  1  2  1  0
  2  3  2  3
  3  4  1  0
  4  5  2  3
  5  6  1  0
  6  7  2  3
  7  8  1  0
  8  9  2  3
  9 10  1  0
 10  5  1  0
 10 11  2  3
 11  2  1  0
 11 12  1  0
 12 13  2  3
 13 14  1  0
 14 15  2  3
 15 16  1  0
 16 17  2  3
 17 18  1  0
 18 19  2  3
 19 20  1  0
 20 21  2  3
 21 22  1  0
 22 23  2  3
 23 14  1  0
 23 18  1  0
 17 24  1  0
 24 25  1  0
 24 26  2  0
 24 27  2  0
  9 28  1  0
 28 29  1  0
 28 30  2  0
 28 31  2  0
  7 32  1  0
 32 33  1  0
 32 34  2  0
 32 35  2  0
M  END
> <Name>
C.I.16255

> <SMILES>
Oc2ccc1cc(cc(c1c2N=Nc3ccc(c4ccccc34)S(O)(=O)=O)S(O)(=O)=O)S(O)(=O)=O

> <Reference>
SAR and QSAR in Env Res (1994) 2:159

> <Id>
2611-82-7

> <Activity>
POS

> <Predicted Value>
1      POS

> <Used>
1

> <Status>
Sensitizer

> <isSensitizer>
1

$$$$
(-) Usnic Acid
  SciTegic06161615552D

 25 27  0  0  0  0            999 V2000
    0.0000    0.0000    0.0000 C   0  0
    0.0000    0.0000    0.0000 C   0  0
    0.0000    0.0000    0.0000 O   0  0
    0.0000    0.0000    0.0000 C   0  0
    0.0000    0.0000    0.0000 C   0  0
    0.0000    0.0000    0.0000 O   0  0
    0.0000    0.0000    0.0000 C   0  0
    0.0000    0.0000    0.0000 C   0  0
    0.0000    0.0000    0.0000 O   0  0
    0.0000    0.0000    0.0000 C   0  0
    0.0000    0.0000    0.0000 C   0  0
    0.0000    0.0000    0.0000 C   0  0
    0.0000    0.0000    0.0000 C   0  0
    0.0000    0.0000    0.0000 O   0  0
    0.0000    0.0000    0.0000 C   0  0
    0.0000    0.0000    0.0000 O   0  0
    0.0000    0.0000    0.0000 C   0  0
    0.0000    0.0000    0.0000 C   0  0
    0.0000    0.0000    0.0000 C   0  0
    0.0000    0.0000    0.0000 O   0  0
    0.0000    0.0000    0.0000 C   0  0
    0.0000    0.0000    0.0000 C   0  0
    0.0000    0.0000    0.0000 C   0  0
    0.0000    0.0000    0.0000 C   0  0
    0.0000    0.0000    0.0000 O   0  0
  1  2  1  0
  2  3  2  0
  2  4  1  0
  4  5  1  0
  5  6  2  0
  5  7  1  0
  7  8  2  3
  8  9  1  0
  9 10  1  0
 10 11  2  3
 11 12  1  0
 12 13  1  0
 12 14  2  0
 11 15  1  0
 15 16  1  0
 15 17  2  3
 17 18  1  0
 17 19  1  0
 19 20  1  0
 19 21  2  3
 21 10  1  0
 21 22  1  0
 22  8  1  0
 22 23  1  0
 22 24  1  0
 24  4  1  0
 24 25  2  0
M  END
> <Name>
(-) Usnic Acid

> <SMILES>
CC(=O)C3C(=O)C=C2Oc1c(C(C)=O)c(O)c(C)c(O)c1C2(C)C3=O

> <Reference>
Contact Dermatitis (1993) 28:70

> <Id>
7562-61-0

> <Activity>
POS

> <Predicted Value>
1      POS

> <Used>
1

> <Status>
Sensitizer

> <isSensitizer>
1

$$$$
Disperse Blue 1
  SciTegic06161615552D

 20 22  0  0  0  0            999 V2000
    0.0000    0.0000    0.0000 N   0  0
    0.0000    0.0000    0.0000 C   0  0
    0.0000    0.0000    0.0000 C   0  0
    0.0000    0.0000    0.0000 C   0  0
    0.0000    0.0000    0.0000 C   0  0
    0.0000    0.0000    0.0000 N   0  0
    0.0000    0.0000    0.0000 C   0  0
    0.0000    0.0000    0.0000 C   0  0
    0.0000    0.0000    0.0000 O   0  0
    0.0000    0.0000    0.0000 C   0  0
    0.0000    0.0000    0.0000 C   0  0
    0.0000    0.0000    0.0000 N   0  0
    0.0000    0.0000    0.0000 C   0  0
    0.0000    0.0000    0.0000 C   0  0
    0.0000    0.0000    0.0000 C   0  0
    0.0000    0.0000    0.0000 N   0  0
    0.0000    0.0000    0.0000 C   0  0
    0.0000    0.0000    0.0000 C   0  0
    0.0000    0.0000    0.0000 O   0  0
    0.0000    0.0000    0.0000 C   0  0
  1  2  1  0
  2  3  2  3
  3  4  1  0
  4  5  2  3
  5  6  1  0
  5  7  1  0
  7  8  1  0
  8  9  2  0
  8 10  1  0
 10 11  2  3
 11 12  1  0
 11 13  1  0
 13 14  2  3
 14 15  1  0
 15 16  1  0
 15 17  2  3
 17 10  1  0
 17 18  1  0
 18 19  2  0
 18 20  1  0
 20  2  1  0
 20  7  2  3
M  END
> <Name>
Disperse Blue 1

> <SMILES>
Nc2ccc(N)c3C(=O)c1c(N)ccc(N)c1C(=O)c23

> <Reference>
Contact Dermatitis (1989) 20:27

> <Id>
2475-45-8

> <Activity>
POS

> <Predicted Value>
0      NEG

> <Used>
0

> <Status>
Sensitizer

> <isSensitizer>
1

$$$$
Dihydrocoumarin
  SciTegic06161615552D

 11 12  0  0  0  0            999 V2000
    0.0000    0.0000    0.0000 O   0  0
    0.0000    0.0000    0.0000 C   0  0
    0.0000    0.0000    0.0000 C   0  0
    0.0000    0.0000    0.0000 C   0  0
    0.0000    0.0000    0.0000 C   0  0
    0.0000    0.0000    0.0000 C   0  0
    0.0000    0.0000    0.0000 C   0  0
    0.0000    0.0000    0.0000 C   0  0
    0.0000    0.0000    0.0000 C   0  0
    0.0000    0.0000    0.0000 C   0  0
    0.0000    0.0000    0.0000 O   0  0
  1  2  2  0
  2  3  1  0
  3  4  1  0
  4  5  1  0
  5  6  2  3
  6  7  1  0
  7  8  2  3
  8  9  1  0
  9 10  2  3
 10  5  1  0
 10 11  1  0
 11  2  1  0
M  END
> <Name>
Dihydrocoumarin

> <SMILES>
O=C2CCc1ccccc1O2

> <Reference>
Contact Dermatitis (1986) 15:289

> <Id>
119-84-6

> <Activity>
POS

> <Predicted Value>
0.996  POS

> <Used>
1

> <Status>
Sensitizer

> <isSensitizer>
1

$$$$
2;2'-Dithiobis(benzothiazole)
  SciTegic06161615552D

 20 23  0  0  0  0            999 V2000
    0.0000    0.0000    0.0000 S   0  0
    0.0000    0.0000    0.0000 S   0  0
    0.0000    0.0000    0.0000 C   0  0
    0.0000    0.0000    0.0000 N   0  0
    0.0000    0.0000    0.0000 C   0  0
    0.0000    0.0000    0.0000 C   0  0
    0.0000    0.0000    0.0000 C   0  0
    0.0000    0.0000    0.0000 C   0  0
    0.0000    0.0000    0.0000 C   0  0
    0.0000    0.0000    0.0000 C   0  0
    0.0000    0.0000    0.0000 S   0  0
    0.0000    0.0000    0.0000 C   0  0
    0.0000    0.0000    0.0000 N   0  0
    0.0000    0.0000    0.0000 C   0  0
    0.0000    0.0000    0.0000 C   0  0
    0.0000    0.0000    0.0000 C   0  0
    0.0000    0.0000    0.0000 C   0  0
    0.0000    0.0000    0.0000 C   0  0
    0.0000    0.0000    0.0000 C   0  0
    0.0000    0.0000    0.0000 S   0  0
  1  2  1  0
  2  3  1  0
  3  4  2  3
  4  5  1  0
  5  6  2  3
  6  7  1  0
  7  8  2  3
  8  9  1  0
  9 10  2  3
 10  5  1  0
 10 11  1  0
 11  3  1  0
  1 12  1  0
 12 13  2  3
 13 14  1  0
 14 15  2  3
 15 16  1  0
 16 17  2  3
 17 18  1  0
 18 19  2  3
 19 14  1  0
 19 20  1  0
 20 12  1  0
M  END
> <Name>
2;2'-Dithiobis(benzothiazole)

> <SMILES>
S(Sc2nc1ccccc1s2)c4nc3ccccc3s4

> <Id>
120-78-5

> <Activity>
POS

> <Predicted Value>
1      POS

> <Used>
1

> <Status>
Sensitizer

> <isSensitizer>
1

$$$$
1;1;3-Tri-(2-methyl-4-hydroxy-5-tert-butylphenyl)butane
  SciTegic06161615552D

 40 42  0  0  0  0            999 V2000
    0.0000    0.0000    0.0000 C   0  0
    0.0000    0.0000    0.0000 C   0  0
    0.0000    0.0000    0.0000 C   0  0
    0.0000    0.0000    0.0000 C   0  0
    0.0000    0.0000    0.0000 C   0  0
    0.0000    0.0000    0.0000 C   0  0
    0.0000    0.0000    0.0000 C   0  0
    0.0000    0.0000    0.0000 C   0  0
    0.0000    0.0000    0.0000 O   0  0
    0.0000    0.0000    0.0000 C   0  0
    0.0000    0.0000    0.0000 C   0  0
    0.0000    0.0000    0.0000 C   0  0
    0.0000    0.0000    0.0000 C   0  0
    0.0000    0.0000    0.0000 C   0  0
    0.0000    0.0000    0.0000 C   0  0
    0.0000    0.0000    0.0000 C   0  0
    0.0000    0.0000    0.0000 C   0  0
    0.0000    0.0000    0.0000 C   0  0
    0.0000    0.0000    0.0000 C   0  0
    0.0000    0.0000    0.0000 C   0  0
    0.0000    0.0000    0.0000 O   0  0
    0.0000    0.0000    0.0000 C   0  0
    0.0000    0.0000    0.0000 C   0  0
    0.0000    0.0000    0.0000 C   0  0
    0.0000    0.0000    0.0000 C   0  0
    0.0000    0.0000    0.0000 C   0  0
    0.0000    0.0000    0.0000 C   0  0
    0.0000    0.0000    0.0000 C   0  0
    0.0000    0.0000    0.0000 C   0  0
    0.0000    0.0000    0.0000 C   0  0
    0.0000    0.0000    0.0000 C   0  0
    0.0000    0.0000    0.0000 C   0  0
    0.0000    0.0000    0.0000 O   0  0
    0.0000    0.0000    0.0000 C   0  0
    0.0000    0.0000    0.0000 C   0  0
    0.0000    0.0000    0.0000 C   0  0
    0.0000    0.0000    0.0000 C   0  0
    0.0000    0.0000    0.0000 C   0  0
    0.0000    0.0000    0.0000 C   0  0
    0.0000    0.0000    0.0000 C   0  0
  1  2  1  0
  2  3  1  0
  3  4  1  0
  4  5  1  0
  5  6  2  3
  6  7  1  0
  7  8  2  3
  8  9  1  0
  8 10  1  0
 10 11  2  3
 11  5  1  0
 11 12  1  0
  7 13  1  0
 13 14  1  0
 13 15  1  0
 13 16  1  0
  4 17  1  0
 17 18  2  3
 18 19  1  0
 19 20  2  3
 20 21  1  0
 20 22  1  0
 22 23  2  3
 23 17  1  0
 23 24  1  0
 19 25  1  0
 25 26  1  0
 25 27  1  0
 25 28  1  0
  2 29  1  0
 29 30  2  3
 30 31  1  0
 31 32  2  3
 32 33  1  0
 32 34  1  0
 34 35  2  3
 35 29  1  0
 35 36  1  0
 31 37  1  0
 37 38  1  0
 37 39  1  0
 37 40  1  0
M  END
> <Name>
1;1;3-Tri-(2-methyl-4-hydroxy-5-tert-butylphenyl)butane

> <SMILES>
CC(CC(c1cc(c(O)cc1C)C(C)(C)C)c2cc(c(O)cc2C)C(C)(C)C)c3cc(c(O)cc3C)C(C)(C)C

> <Reference>
SAR and QSAR in Env Res (1994) 2:159

> <Id>
CRO-158

> <Activity>
POS

> <Predicted Value>
1      POS

> <Used>
1

> <Status>
Sensitizer

> <isSensitizer>
1

$$$$
2;4;4'-Trichloro-2'-hydroxyphenyl ether
  SciTegic06161615552D

 17 18  0  0  0  0            999 V2000
    0.0000    0.0000    0.0000 O   0  0
    0.0000    0.0000    0.0000 C   0  0
    0.0000    0.0000    0.0000 C   0  0
    0.0000    0.0000    0.0000 C   0  0
    0.0000    0.0000    0.0000 Cl  0  0
    0.0000    0.0000    0.0000 C   0  0
    0.0000    0.0000    0.0000 C   0  0
    0.0000    0.0000    0.0000 C   0  0
    0.0000    0.0000    0.0000 O   0  0
    0.0000    0.0000    0.0000 C   0  0
    0.0000    0.0000    0.0000 C   0  0
    0.0000    0.0000    0.0000 C   0  0
    0.0000    0.0000    0.0000 C   0  0
    0.0000    0.0000    0.0000 Cl  0  0
    0.0000    0.0000    0.0000 C   0  0
    0.0000    0.0000    0.0000 C   0  0
    0.0000    0.0000    0.0000 Cl  0  0
  1  2  1  0
  2  3  2  3
  3  4  1  0
  4  5  1  0
  4  6  2  3
  6  7  1  0
  7  8  2  3
  8  2  1  0
  8  9  1  0
  9 10  1  0
 10 11  2  3
 11 12  1  0
 12 13  2  3
 13 14  1  0
 13 15  1  0
 15 16  2  3
 16 10  1  0
 16 17  1  0
M  END
> <Name>
2;4;4'-Trichloro-2'-hydroxyphenyl ether

> <SMILES>
Oc1cc(Cl)ccc1Oc2ccc(Cl)cc2Cl

> <Reference>
SAR and QSAR in Env Res (1994) 2:159

> <Id>
3380-34-5

> <Activity>
POS

> <Predicted Value>
1      POS

> <Used>
1

> <Status>
Sensitizer

> <isSensitizer>
1

$$$$
2;2'-Dihydroxy-5;5'-dichlorodiphenylmethane
  SciTegic06161615552D

 17 18  0  0  0  0            999 V2000
    0.0000    0.0000    0.0000 O   0  0
    0.0000    0.0000    0.0000 C   0  0
    0.0000    0.0000    0.0000 C   0  0
    0.0000    0.0000    0.0000 C   0  0
    0.0000    0.0000    0.0000 C   0  0
    0.0000    0.0000    0.0000 Cl  0  0
    0.0000    0.0000    0.0000 C   0  0
    0.0000    0.0000    0.0000 C   0  0
    0.0000    0.0000    0.0000 C   0  0
    0.0000    0.0000    0.0000 C   0  0
    0.0000    0.0000    0.0000 C   0  0
    0.0000    0.0000    0.0000 C   0  0
    0.0000    0.0000    0.0000 Cl  0  0
    0.0000    0.0000    0.0000 C   0  0
    0.0000    0.0000    0.0000 C   0  0
    0.0000    0.0000    0.0000 C   0  0
    0.0000    0.0000    0.0000 O   0  0
  1  2  1  0
  2  3  2  3
  3  4  1  0
  4  5  2  3
  5  6  1  0
  5  7  1  0
  7  8  2  3
  8  2  1  0
  8  9  1  0
  9 10  1  0
 10 11  2  3
 11 12  1  0
 12 13  1  0
 12 14  2  3
 14 15  1  0
 15 16  2  3
 16 10  1  0
 16 17  1  0
M  END
> <Name>
2;2'-Dihydroxy-5;5'-dichlorodiphenylmethane

> <SMILES>
Oc1ccc(Cl)cc1Cc2cc(Cl)ccc2O

> <Reference>
SAR and QSAR in Env Res (1994) 2:159

> <Id>
97-23-4

> <Activity>
NEG

> <Predicted Value>
0.001  NEG

> <Used>
1

> <Status>
Non-Sensitizer

> <isSensitizer>
0

$$$$
Fumarprotocetratic acid
  SciTegic06161615552D

 34 36  0  0  0  0            999 V2000
    0.0000    0.0000    0.0000 C   0  0
    0.0000    0.0000    0.0000 C   0  0
    0.0000    0.0000    0.0000 C   0  0
    0.0000    0.0000    0.0000 C   0  0
    0.0000    0.0000    0.0000 O   0  0
    0.0000    0.0000    0.0000 C   0  0
    0.0000    0.0000    0.0000 C   0  0
    0.0000    0.0000    0.0000 O   0  0
    0.0000    0.0000    0.0000 C   0  0
    0.0000    0.0000    0.0000 O   0  0
    0.0000    0.0000    0.0000 C   0  0
    0.0000    0.0000    0.0000 C   0  0
    0.0000    0.0000    0.0000 C   0  0
    0.0000    0.0000    0.0000 C   0  0
    0.0000    0.0000    0.0000 C   0  0
    0.0000    0.0000    0.0000 O   0  0
    0.0000    0.0000    0.0000 O   0  0
    0.0000    0.0000    0.0000 C   0  0
    0.0000    0.0000    0.0000 O   0  0
    0.0000    0.0000    0.0000 C   0  0
    0.0000    0.0000    0.0000 C   0  0
    0.0000    0.0000    0.0000 O   0  0
    0.0000    0.0000    0.0000 C   0  0
    0.0000    0.0000    0.0000 O   0  0
    0.0000    0.0000    0.0000 C   0  0
    0.0000    0.0000    0.0000 C   0  0
    0.0000    0.0000    0.0000 C   0  0
    0.0000    0.0000    0.0000 O   0  0
    0.0000    0.0000    0.0000 O   0  0
    0.0000    0.0000    0.0000 C   0  0
    0.0000    0.0000    0.0000 O   0  0
    0.0000    0.0000    0.0000 C   0  0
    0.0000    0.0000    0.0000 O   0  0
    0.0000    0.0000    0.0000 C   0  0
  1  2  1  0
  2  3  2  3
  3  4  1  0
  4  5  1  0
  4  6  2  3
  6  7  1  0
  7  8  2  0
  6  9  1  0
  9 10  1  0
 10 11  1  0
 11 12  2  3
 12 13  1  0
 12 14  1  0
 14 15  1  0
 15 16  1  0
 15 17  2  0
 14 18  2  3
 18 19  1  0
 18 20  1  0
 20 21  1  0
 21 22  1  0
 22 23  1  0
 23 24  2  0
 23 25  1  0
 25 26  2  3
 26 27  1  0
 27 28  1  0
 27 29  2  0
 20 30  2  3
 30 11  1  0
 30 31  1  0
 31 32  1  0
 32 33  2  0
 32 34  1  0
 34  2  1  0
 34  9  2  3
M  END
> <Name>
Fumarprotocetratic acid

> <SMILES>
Cc2cc(O)c(C=O)c3Oc1c(C)c(C(O)=O)c(O)c(COC(=O)C=CC(O)=O)c1OC(=O)c23

> <Reference>
Contact Dermatitis (1993) 28:70

> <Id>
489-50-9

> <Activity>
POS

> <Predicted Value>
1      POS

> <Used>
1

> <Status>
Sensitizer

> <isSensitizer>
1

$$$$
