2
  Mrv0541 07281413492D          

 20 24  0  0  0  0            999 V2000
    4.5908    1.8059    0.0000 C   0  0  0  0  0  0  0  0  0  0  0  0
    4.3207    1.0264    0.0000 C   0  0  0  0  0  0  0  0  0  0  0  0
   -0.8101    1.4941    0.0000 C   0  0  0  0  0  0  0  0  0  0  0  0
    4.0507    2.4296    0.0000 C   0  0  0  0  0  0  0  0  0  0  0  0
   -0.5401    2.2736    0.0000 C   0  0  0  0  0  0  0  0  0  0  0  0
   -0.2700    0.8704    0.0000 C   0  0  0  0  0  0  0  0  0  0  0  0
    3.5106    0.8704    0.0000 C   0  0  0  0  0  0  0  0  0  0  0  0
    0.5401    3.2091    0.0000 C   0  0  0  0  0  0  0  0  0  0  0  0
    1.3502    3.3650    0.0000 C   0  0  0  0  0  0  0  0  0  0  0  0
    1.0802    0.4027    0.0000 C   0  0  0  0  0  0  0  0  0  0  0  0
    1.8903    0.5586    0.0000 C   0  0  0  0  0  0  0  0  0  0  0  0
    2.7004    2.8973    0.0000 C   0  0  0  0  0  0  0  0  0  0  0  0
    0.2700    2.4296    0.0000 C   0  0  0  0  0  0  0  0  0  0  0  0
    0.5401    1.0264    0.0000 C   0  0  0  0  0  0  0  0  0  0  0  0
    3.2405    2.2736    0.0000 C   0  0  0  0  0  0  0  0  0  0  0  0
    1.8903    2.7414    0.0000 C   0  0  0  0  0  0  0  0  0  0  0  0
    2.9705    1.4941    0.0000 C   0  0  0  0  0  0  0  0  0  0  0  0
    2.1604    1.3382    0.0000 C   0  0  0  0  0  0  0  0  0  0  0  0
    0.8101    1.8059    0.0000 C   0  0  0  0  0  0  0  0  0  0  0  0
    1.6203    1.9618    0.0000 C   0  0  0  0  0  0  0  0  0  0  0  0
  2  1  2  0  0  0  0
  4  1  1  0  0  0  0
  5  3  2  0  0  0  0
  6  3  1  0  0  0  0
  7  2  1  0  0  0  0
  9  8  2  0  0  0  0
 11 10  2  0  0  0  0
 13  5  1  0  0  0  0
 13  8  1  0  0  0  0
 14  6  2  0  0  0  0
 14 10  1  0  0  0  0
 15  4  2  0  0  0  0
 15 12  1  0  0  0  0
 16  9  1  0  0  0  0
 16 12  2  0  0  0  0
 17  7  2  0  0  0  0
 17 15  1  0  0  0  0
 18 11  1  0  0  0  0
 18 17  1  0  0  0  0
 19 13  2  0  0  0  0
 19 14  1  0  0  0  0
 20 16  1  0  0  0  0
 20 18  2  0  0  0  0
 20 19  1  0  0  0  0
M  END