7
  Mrv0541 07281413492D          

 18 21  0  0  0  0            999 V2000
    5.3052    2.7316    0.0000 C   0  0  0  0  0  0  0  0  0  0  0  0
    5.0352    3.5111    0.0000 C   0  0  0  0  0  0  0  0  0  0  0  0
   -0.0957    3.0434    0.0000 C   0  0  0  0  0  0  0  0  0  0  0  0
    0.4444    3.6671    0.0000 C   0  0  0  0  0  0  0  0  0  0  0  0
    0.1744    2.2639    0.0000 C   0  0  0  0  0  0  0  0  0  0  0  0
    4.7651    2.1079    0.0000 C   0  0  0  0  0  0  0  0  0  0  0  0
    4.2251    3.6671    0.0000 C   0  0  0  0  0  0  0  0  0  0  0  0
    1.2546    3.5111    0.0000 C   0  0  0  0  0  0  0  0  0  0  0  0
    1.2546    1.3284    0.0000 C   0  0  0  0  0  0  0  0  0  0  0  0
    2.0647    1.1725    0.0000 C   0  0  0  0  0  0  0  0  0  0  0  0
    3.4149    1.6402    0.0000 C   0  0  0  0  0  0  0  0  0  0  0  0
    2.8748    3.1993    0.0000 C   0  0  0  0  0  0  0  0  0  0  0  0
    0.9845    2.1079    0.0000 C   0  0  0  0  0  0  0  0  0  0  0  0
    3.9550    2.2639    0.0000 C   0  0  0  0  0  0  0  0  0  0  0  0
    3.6850    3.0434    0.0000 C   0  0  0  0  0  0  0  0  0  0  0  0
    2.6048    1.7961    0.0000 C   0  0  0  0  0  0  0  0  0  0  0  0
    1.5246    2.7316    0.0000 C   0  0  0  0  0  0  0  0  0  0  0  0
    2.3347    2.5757    0.0000 C   0  0  0  0  0  0  0  0  0  0  0  0
  2  1  2  0  0  0  0
  4  3  2  0  0  0  0
  5  3  1  0  0  0  0
  6  1  1  0  0  0  0
  7  2  1  0  0  0  0
  8  4  1  0  0  0  0
 10  9  2  0  0  0  0
 13  5  2  0  0  0  0
 13  9  1  0  0  0  0
 14  6  2  0  0  0  0
 14 11  1  0  0  0  0
 15  7  2  0  0  0  0
 15 12  1  0  0  0  0
 15 14  1  0  0  0  0
 16 10  1  0  0  0  0
 16 11  2  0  0  0  0
 17  8  2  0  0  0  0
 17 13  1  0  0  0  0
 18 12  2  0  0  0  0
 18 16  1  0  0  0  0
 18 17  1  0  0  0  0
M  END