28
  Mrv0541 07281413492D          

 10 11  0  0  0  0            999 V2000
    2.7243   -1.1707    0.0000 C   0  0  0  0  0  0  0  0  0  0  0  0
    2.3839   -2.3993    0.0000 C   0  0  0  0  0  0  0  0  0  0  0  0
    1.2750   -2.7795    0.0000 C   0  0  0  0  0  0  0  0  0  0  0  0
    0.5004   -1.3997    0.0000 C   0  0  0  0  0  0  0  0  0  0  0  0
    0.1351   -2.0602    0.0000 C   0  0  0  0  0  0  0  0  0  0  0  0
    0.9807   -0.1341    0.0000 C   0  0  0  0  0  0  0  0  0  0  0  0
    1.9362   -1.4148    0.0000 C   0  0  0  0  0  0  0  0  0  0  0  0
    1.1407   -0.9495    0.0000 C   0  0  0  0  0  0  0  0  0  0  0  0
    0.9106   -1.6699    0.0000 C   0  0  0  0  0  0  0  0  0  0  0  0
    1.6411   -2.0402    0.0000 C   0  0  0  0  0  0  0  0  0  0  0  0
  5  4  1  0  0  0  0
  7  1  2  0  0  0  0
  8  4  1  0  0  0  0
  8  6  1  0  0  0  0
  8  7  1  0  0  0  0
  9  5  1  0  0  0  0
  9  6  1  0  0  0  0
 10  2  1  0  0  0  0
 10  3  1  0  0  0  0
 10  7  1  0  0  0  0
 10  9  1  0  0  0  0
M  END