29
  Mrv0541 07281413492D          

 20 21  0  0  0  0            999 V2000
    5.8263    5.3625    0.0000 C   0  0  0  0  0  0  0  0  0  0  0  0
    4.1763    5.3625    0.0000 C   0  0  0  0  0  0  0  0  0  0  0  0
    5.1118    7.4250    0.0000 C   0  0  0  0  0  0  0  0  0  0  0  0
    3.4618    7.4250    0.0000 C   0  0  0  0  0  0  0  0  0  0  0  0
    5.0013    2.8875    0.0000 C   0  0  0  0  0  0  0  0  0  0  0  0
    4.2868    9.9000    0.0000 C   0  0  0  0  0  0  0  0  0  0  0  0
    5.7158    3.3000    0.0000 C   0  0  0  0  0  0  0  0  0  0  0  0
    4.2868    3.3000    0.0000 C   0  0  0  0  0  0  0  0  0  0  0  0
    3.5724    9.4875    0.0000 C   0  0  0  0  0  0  0  0  0  0  0  0
    5.0013    9.4875    0.0000 C   0  0  0  0  0  0  0  0  0  0  0  0
    5.7158    4.1250    0.0000 C   0  0  0  0  0  0  0  0  0  0  0  0
    4.2868    4.1250    0.0000 C   0  0  0  0  0  0  0  0  0  0  0  0
    3.5724    8.6625    0.0000 C   0  0  0  0  0  0  0  0  0  0  0  0
    5.0013    8.6625    0.0000 C   0  0  0  0  0  0  0  0  0  0  0  0
    5.0013    4.5375    0.0000 C   0  0  0  0  0  0  0  0  0  0  0  0
    4.2868    8.2500    0.0000 C   0  0  0  0  0  0  0  0  0  0  0  0
    5.0013    5.3625    0.0000 C   0  0  0  0  0  0  0  0  0  0  0  0
    4.2868    7.4250    0.0000 C   0  0  0  0  0  0  0  0  0  0  0  0
    5.0013    6.1875    0.0000 O   0  0  0  0  0  0  0  0  0  0  0  0
    4.2868    6.6000    0.0000 O   0  0  0  0  0  0  0  0  0  0  0  0
  7  5  2  0  0  0  0
  8  5  1  0  0  0  0
  9  6  2  0  0  0  0
 10  6  1  0  0  0  0
 11  7  1  0  0  0  0
 12  8  2  0  0  0  0
 13  9  1  0  0  0  0
 14 10  2  0  0  0  0
 15 11  2  0  0  0  0
 15 12  1  0  0  0  0
 16 13  2  0  0  0  0
 16 14  1  0  0  0  0
 17  1  1  0  0  0  0
 17  2  1  0  0  0  0
 17 15  1  0  0  0  0
 18  3  1  0  0  0  0
 18  4  1  0  0  0  0
 18 16  1  0  0  0  0
 19 17  1  0  0  0  0
 20 18  1  0  0  0  0
 20 19  1  0  0  0  0
M  END