36
  Mrv0541 07281413492D          

 29 32  0  0  0  0            999 V2000
    2.8579    8.2500    0.0000 C   0  0  0  0  0  0  0  0  0  0  0  0
    3.5724    4.5375    0.0000 C   0  0  0  0  0  0  0  0  0  0  0  0
    1.4289    9.9000    0.0000 C   0  0  0  0  0  0  0  0  0  0  0  0
   -0.7145    1.2375    0.0000 C   0  0  0  0  0  0  0  0  0  0  0  0
   -0.7145    2.0625    0.0000 C   0  0  0  0  0  0  0  0  0  0  0  0
    0.7145    9.4875    0.0000 C   0  0  0  0  0  0  0  0  0  0  0  0
    2.1434    9.4875    0.0000 C   0  0  0  0  0  0  0  0  0  0  0  0
   -0.0000    0.8250    0.0000 C   0  0  0  0  0  0  0  0  0  0  0  0
    0.0000    2.4750    0.0000 C   0  0  0  0  0  0  0  0  0  0  0  0
    0.7145    8.6625    0.0000 C   0  0  0  0  0  0  0  0  0  0  0  0
    1.4289    0.8250    0.0000 C   0  0  0  0  0  0  0  0  0  0  0  0
    1.4289    5.7750    0.0000 C   0  0  0  0  0  0  0  0  0  0  0  0
    1.4289    4.9500    0.0000 C   0  0  0  0  0  0  0  0  0  0  0  0
    2.1434    1.2375    0.0000 C   0  0  0  0  0  0  0  0  0  0  0  0
    2.8579    5.7750    0.0000 C   0  0  0  0  0  0  0  0  0  0  0  0
    2.1434    8.6625    0.0000 C   0  0  0  0  0  0  0  0  0  0  0  0
    2.8579    4.9500    0.0000 C   0  0  0  0  0  0  0  0  0  0  0  0
    0.7145    1.2375    0.0000 C   0  0  0  0  0  0  0  0  0  0  0  0
    2.1434    6.1875    0.0000 C   0  0  0  0  0  0  0  0  0  0  0  0
    0.7145    2.0625    0.0000 C   0  0  0  0  0  0  0  0  0  0  0  0
    1.4289    8.2500    0.0000 C   0  0  0  0  0  0  0  0  0  0  0  0
    2.1434    4.5375    0.0000 C   0  0  0  0  0  0  0  0  0  0  0  0
    2.1434    2.0625    0.0000 C   0  0  0  0  0  0  0  0  0  0  0  0
    1.4289    2.4750    0.0000 C   0  0  0  0  0  0  0  0  0  0  0  0
    2.1434    7.0125    0.0000 N   0  0  0  0  0  0  0  0  0  0  0  0
    1.4289    7.4250    0.0000 N   0  0  0  0  0  0  0  0  0  0  0  0
    2.1434    3.7125    0.0000 N   0  0  0  0  0  0  0  0  0  0  0  0
    1.4289    3.3000    0.0000 N   0  0  0  0  0  0  0  0  0  0  0  0
    2.8579    2.4750    0.0000 O   0  0  0  0  0  0  0  0  0  0  0  0
  5  4  2  0  0  0  0
  6  3  2  0  0  0  0
  7  3  1  0  0  0  0
  8  4  1  0  0  0  0
  9  5  1  0  0  0  0
 10  6  1  0  0  0  0
 13 12  1  0  0  0  0
 14 11  2  0  0  0  0
 16  1  1  0  0  0  0
 16  7  2  0  0  0  0
 17  2  1  0  0  0  0
 17 15  2  0  0  0  0
 18  8  2  0  0  0  0
 18 11  1  0  0  0  0
 19 12  2  0  0  0  0
 19 15  1  0  0  0  0
 20  9  2  0  0  0  0
 20 18  1  0  0  0  0
 21 10  2  0  0  0  0
 21 16  1  0  0  0  0
 22 13  2  0  0  0  0
 22 17  1  0  0  0  0
 23 14  1  0  0  0  0
 24 20  1  0  0  0  0
 24 23  2  0  0  0  0
 25 19  1  0  0  0  0
 26 21  1  0  0  0  0
 26 25  2  0  0  0  0
 27 22  1  0  0  0  0
 28 24  1  0  0  0  0
 28 27  2  0  0  0  0
 29 23  1  0  0  0  0
M  END