42
  Mrv0541 07281413492D          

 12 12  0  0  0  0            999 V2000
    0.7145   -1.2375    0.0000 C   0  0  0  0  0  0  0  0  0  0  0  0
    1.4289    0.0000    0.0000 C   0  0  0  0  0  0  0  0  0  0  0  0
    1.4289    0.8250    0.0000 C   0  0  0  0  0  0  0  0  0  0  0  0
   -0.0000    0.0000    0.0000 C   0  0  0  0  0  0  0  0  0  0  0  0
    0.7145   -0.4125    0.0000 C   0  0  0  0  0  0  0  0  0  0  0  0
    0.7145    1.2375    0.0000 C   0  0  0  0  0  0  0  0  0  0  0  0
   -0.0000    0.8250    0.0000 C   0  0  0  0  0  0  0  0  0  0  0  0
    0.7145    2.0625    0.0000 N   0  0  0  0  0  0  0  0  0  0  0  0
   -1.4289    1.6500    0.0000 O   0  0  0  0  0  0  0  0  0  0  0  0
   -0.3020    1.9520    0.0000 O   0  0  0  0  0  0  0  0  0  0  0  0
   -1.1270    0.5230    0.0000 O   0  0  0  0  0  0  0  0  0  0  0  0
   -0.7145    1.2375    0.0000 S   0  0  0  0  0  0  0  0  0  0  0  0
  3  2  2  0  0  0  0
  5  1  1  0  0  0  0
  5  2  1  0  0  0  0
  5  4  2  0  0  0  0
  6  3  1  0  0  0  0
  7  4  1  0  0  0  0
  7  6  2  0  0  0  0
  8  6  1  0  0  0  0
 12  7  1  0  0  0  0
 12  9  1  0  0  0  0
 12 10  2  0  0  0  0
 12 11  2  0  0  0  0
M  END