81
  Mrv0541 07281413492D          

 11 10  0  0  0  0            999 V2000
    2.5855   -1.0164    0.0000 C   0  0  0  0  0  0  0  0  0  0  0  0
    6.1579    0.2211    0.0000 C   0  0  0  0  0  0  0  0  0  0  0  0
    8.3013   -1.0164    0.0000 C   0  0  0  0  0  0  0  0  0  0  0  0
    3.3000   -1.4289    0.0000 C   0  0  0  0  0  0  0  0  0  0  0  0
    5.4434   -0.1914    0.0000 C   0  0  0  0  0  0  0  0  0  0  0  0
    7.5868   -1.4289    0.0000 C   0  0  0  0  0  0  0  0  0  0  0  0
    4.0145   -1.0164    0.0000 C   0  0  0  0  0  0  0  0  0  0  0  0
    4.7289   -1.4289    0.0000 C   0  0  0  0  0  0  0  0  0  0  0  0
    6.1579   -1.4289    0.0000 C   0  0  0  0  0  0  0  0  0  0  0  0
    5.4434   -1.0164    0.0000 C   0  0  0  0  0  0  0  0  0  0  0  0
    6.8724   -1.0164    0.0000 O   0  0  0  0  0  0  0  0  0  0  0  0
  4  1  1  0  0  0  0
  5  2  1  0  0  0  0
  6  3  2  0  0  0  0
  7  4  1  0  0  0  0
  8  7  1  0  0  0  0
 10  5  1  0  0  0  0
 10  8  1  0  0  0  0
 10  9  1  0  0  0  0
 11  6  1  0  0  0  0
 11  9  1  0  0  0  0
M  END