101
  Mrv0541 07281413492D          

  7  6  0  0  0  0            999 V2000
   -1.2375    0.7145    0.0000 C   0  0  0  0  0  0  0  0  0  0  0  0
    1.6204    0.7145    0.0000 C   0  0  0  0  0  0  0  0  0  0  0  0
   -0.5230    1.1270    0.0000 C   0  0  0  0  0  0  0  0  0  0  0  0
    0.9059    1.1270    0.0000 C   0  0  0  0  0  0  0  0  0  0  0  0
   -1.9520    1.1270    0.0000 Cl  0  0  0  0  0  0  0  0  0  0  0  0
    2.3349    1.1270    0.0000 Cl  0  0  0  0  0  0  0  0  0  0  0  0
    0.1914    0.7145    0.0000 O   0  0  0  0  0  0  0  0  0  0  0  0
  3  1  1  0  0  0  0
  4  2  1  0  0  0  0
  5  1  1  0  0  0  0
  6  2  1  0  0  0  0
  7  3  1  0  0  0  0
  7  4  1  0  0  0  0
M  END