105
  Mrv0541 07281413492D          

 19 20  0  0  0  0            999 V2000
    0.5004   -1.3997    0.0000 C   0  0  0  0  0  0  0  0  0  0  0  0
    0.1351   -2.0602    0.0000 C   0  0  0  0  0  0  0  0  0  0  0  0
    1.9362   -1.4148    0.0000 C   0  0  0  0  0  0  0  0  0  0  0  0
    1.6411   -2.0402    0.0000 C   0  0  0  0  0  0  0  0  0  0  0  0
   -0.1135   -0.8486    0.0000 C   0  0  0  0  0  0  0  0  0  0  0  0
   -0.4595   -2.6321    0.0000 C   0  0  0  0  0  0  0  0  0  0  0  0
    1.1407   -0.9495    0.0000 C   0  0  0  0  0  0  0  0  0  0  0  0
    0.9106   -1.6699    0.0000 C   0  0  0  0  0  0  0  0  0  0  0  0
    0.9807   -0.1341    0.0000 C   0  0  0  0  0  0  0  0  0  0  0  0
    2.7243   -1.1707    0.0000 Cl  0  0  0  0  0  0  0  0  0  0  0  0
    1.9087   -2.8206    0.0000 Cl  0  0  0  0  0  0  0  0  0  0  0  0
    1.3626   -0.1549    0.0000 Cl  0  0  0  0  0  0  0  0  0  0  0  0
    0.9094   -2.4949    0.0000 Cl  0  0  0  0  0  0  0  0  0  0  0  0
    1.4674    0.5320    0.0000 Cl  0  0  0  0  0  0  0  0  0  0  0  0
    0.4010    0.4529    0.0000 Cl  0  0  0  0  0  0  0  0  0  0  0  0
   -0.8977   -1.1046    0.0000 O   0  0  0  0  0  0  0  0  0  0  0  0
    0.0569   -0.0413    0.0000 O   0  0  0  0  0  0  0  0  0  0  0  0
   -0.2615   -3.4330    0.0000 O   0  0  0  0  0  0  0  0  0  0  0  0
   -1.2521   -2.4031    0.0000 O   0  0  0  0  0  0  0  0  0  0  0  0
  2  1  1  0  0  0  0
  4  3  2  0  0  0  0
  5  1  1  0  0  0  0
  6  2  1  0  0  0  0
  7  1  1  0  0  0  0
  7  3  1  0  0  0  0
  8  2  1  0  0  0  0
  8  4  1  0  0  0  0
  9  7  1  0  0  0  0
  9  8  1  0  0  0  0
 10  3  1  0  0  0  0
 11  4  1  0  0  0  0
 12  7  1  0  0  0  0
 13  8  1  0  0  0  0
 14  9  1  0  0  0  0
 15  9  1  0  0  0  0
 16  5  2  0  0  0  0
 17  5  1  0  0  0  0
 18  6  2  0  0  0  0
 19  6  1  0  0  0  0
M  END