120
  Mrv0541 07281413492D          

 20 19  0  0  0  0            999 V2000
    1.5395   -2.4454    0.0000 C   0  0  0  0  0  0  0  0  0  0  0  0
    1.5395    3.2704    0.0000 C   0  0  0  0  0  0  0  0  0  0  0  0
   -1.3184    0.4125    0.0000 C   0  0  0  0  0  0  0  0  0  0  0  0
    1.5395   -1.0164    0.0000 C   0  0  0  0  0  0  0  0  0  0  0  0
    1.5395    1.8414    0.0000 C   0  0  0  0  0  0  0  0  0  0  0  0
    0.1105    0.4125    0.0000 C   0  0  0  0  0  0  0  0  0  0  0  0
    1.9520   -1.7309    0.0000 C   0  0  0  0  0  0  0  0  0  0  0  0
    1.1270    2.5559    0.0000 C   0  0  0  0  0  0  0  0  0  0  0  0
   -0.6039    0.0000    0.0000 C   0  0  0  0  0  0  0  0  0  0  0  0
    1.9520   -3.1599    0.0000 Br  0  0  0  0  0  0  0  0  0  0  0  0
    1.1270    3.9849    0.0000 Br  0  0  0  0  0  0  0  0  0  0  0  0
   -1.3184    1.2375    0.0000 Br  0  0  0  0  0  0  0  0  0  0  0  0
    2.7770   -1.7309    0.0000 Br  0  0  0  0  0  0  0  0  0  0  0  0
    0.3020    2.5559    0.0000 Br  0  0  0  0  0  0  0  0  0  0  0  0
   -0.6039   -0.8250    0.0000 Br  0  0  0  0  0  0  0  0  0  0  0  0
    2.2539    0.8250    0.0000 O   0  0  0  0  0  0  0  0  0  0  0  0
    1.9520   -0.3020    0.0000 O   0  0  0  0  0  0  0  0  0  0  0  0
    1.1270    1.1270    0.0000 O   0  0  0  0  0  0  0  0  0  0  0  0
    0.8250   -0.0000    0.0000 O   0  0  0  0  0  0  0  0  0  0  0  0
    1.5395    0.4125    0.0000 P   0  0  0  0  0  0  0  0  0  0  0  0
  7  1  1  0  0  0  0
  7  4  1  0  0  0  0
  8  2  1  0  0  0  0
  8  5  1  0  0  0  0
  9  3  1  0  0  0  0
  9  6  1  0  0  0  0
 10  1  1  0  0  0  0
 11  2  1  0  0  0  0
 12  3  1  0  0  0  0
 13  7  1  0  0  0  0
 14  8  1  0  0  0  0
 15  9  1  0  0  0  0
 17  4  1  0  0  0  0
 18  5  1  0  0  0  0
 19  6  1  0  0  0  0
 20 16  2  0  0  0  0
 20 17  1  0  0  0  0
 20 18  1  0  0  0  0
 20 19  1  0  0  0  0
M  END