126
  Mrv0541 07281413492D          

 12 11  0  0  0  0            999 V2000
   -0.1914    0.7145    0.0000 C   0  0  0  0  0  0  0  0  0  0  0  0
    0.5230    1.9520    0.0000 C   0  0  0  0  0  0  0  0  0  0  0  0
    4.8099    1.1270    0.0000 C   0  0  0  0  0  0  0  0  0  0  0  0
    4.0954   -0.1105    0.0000 C   0  0  0  0  0  0  0  0  0  0  0  0
    1.2375    0.7145    0.0000 C   0  0  0  0  0  0  0  0  0  0  0  0
    3.3809    1.1270    0.0000 C   0  0  0  0  0  0  0  0  0  0  0  0
    0.5230    1.1270    0.0000 N   0  0  0  0  0  0  0  0  0  0  0  0
    4.0954    0.7145    0.0000 N   0  0  0  0  0  0  0  0  0  0  0  0
    1.2375   -0.1105    0.0000 S   0  0  0  0  0  0  0  0  0  0  0  0
    3.3809    1.9520    0.0000 S   0  0  0  0  0  0  0  0  0  0  0  0
    1.9520    1.1270    0.0000 S   0  0  0  0  0  0  0  0  0  0  0  0
    2.6664    0.7145    0.0000 S   0  0  0  0  0  0  0  0  0  0  0  0
  7  1  1  0  0  0  0
  7  2  1  0  0  0  0
  7  5  1  0  0  0  0
  8  3  1  0  0  0  0
  8  4  1  0  0  0  0
  8  6  1  0  0  0  0
  9  5  2  0  0  0  0
 10  6  2  0  0  0  0
 11  5  1  0  0  0  0
 12  6  1  0  0  0  0
 12 11  1  0  0  0  0
M  END