129
  Mrv0541 07281413492D          

 15 14  0  0  0  0            999 V2000
    2.9684    2.0625    0.0000 C   0  0  0  0  0  0  0  0  0  0  0  0
   -0.6039    0.0000    0.0000 C   0  0  0  0  0  0  0  0  0  0  0  0
   -2.1730    2.5559    0.0000 C   0  0  0  0  0  0  0  0  0  0  0  0
    2.2539    1.6500    0.0000 C   0  0  0  0  0  0  0  0  0  0  0  0
    0.1105    0.4125    0.0000 C   0  0  0  0  0  0  0  0  0  0  0  0
   -1.3480    2.5559    0.0000 C   0  0  0  0  0  0  0  0  0  0  0  0
    0.3020    1.1270    0.0000 C   0  0  0  0  0  0  0  0  0  0  0  0
   -0.1105    1.8414    0.0000 C   0  0  0  0  0  0  0  0  0  0  0  0
   -1.3480    1.1270    0.0000 O   0  0  0  0  0  0  0  0  0  0  0  0
    2.2539    0.8250    0.0000 O   0  0  0  0  0  0  0  0  0  0  0  0
    0.8250   -0.0000    0.0000 O   0  0  0  0  0  0  0  0  0  0  0  0
    1.5395    0.4125    0.0000 P   0  0  0  0  0  0  0  0  0  0  0  0
    1.9520   -0.3020    0.0000 S   0  0  0  0  0  0  0  0  0  0  0  0
    1.1270    1.1270    0.0000 S   0  0  0  0  0  0  0  0  0  0  0  0
   -0.9355    1.8414    0.0000 S   0  0  0  0  0  0  0  0  0  0  0  0
  4  1  1  0  0  0  0
  5  2  1  0  0  0  0
  6  3  1  0  0  0  0
  8  7  1  0  0  0  0
 10  4  1  0  0  0  0
 11  5  1  0  0  0  0
 12 10  1  0  0  0  0
 12 11  1  0  0  0  0
 13 12  2  0  0  0  0
 14  7  1  0  0  0  0
 14 12  1  0  0  0  0
 15  6  1  0  0  0  0
 15  8  1  0  0  0  0
 15  9  2  0  0  0  0
M  END