131
  Mrv0541 07281413492D          

 22 26  0  0  0  0            999 V2000
    8.6329   -0.8250    0.0000 C   0  0  0  0  0  0  0  0  0  0  0  0
    2.0329   -0.8250    0.0000 C   0  0  0  0  0  0  0  0  0  0  0  0
    8.2204   -0.1105    0.0000 C   0  0  0  0  0  0  0  0  0  0  0  0
    2.4454   -1.5395    0.0000 C   0  0  0  0  0  0  0  0  0  0  0  0
    8.2204   -1.5395    0.0000 C   0  0  0  0  0  0  0  0  0  0  0  0
    2.4454   -0.1105    0.0000 C   0  0  0  0  0  0  0  0  0  0  0  0
    7.3954   -0.1105    0.0000 C   0  0  0  0  0  0  0  0  0  0  0  0
    3.2704   -1.5395    0.0000 C   0  0  0  0  0  0  0  0  0  0  0  0
    3.6829    0.6039    0.0000 C   0  0  0  0  0  0  0  0  0  0  0  0
    4.5079    0.6039    0.0000 C   0  0  0  0  0  0  0  0  0  0  0  0
    6.9829   -2.2539    0.0000 C   0  0  0  0  0  0  0  0  0  0  0  0
    6.1579   -2.2539    0.0000 C   0  0  0  0  0  0  0  0  0  0  0  0
    5.7454   -0.1105    0.0000 C   0  0  0  0  0  0  0  0  0  0  0  0
    7.3954   -1.5395    0.0000 C   0  0  0  0  0  0  0  0  0  0  0  0
    3.2704   -0.1105    0.0000 C   0  0  0  0  0  0  0  0  0  0  0  0
    4.9204   -0.1105    0.0000 C   0  0  0  0  0  0  0  0  0  0  0  0
    6.9829   -0.8250    0.0000 C   0  0  0  0  0  0  0  0  0  0  0  0
    3.6829   -0.8250    0.0000 C   0  0  0  0  0  0  0  0  0  0  0  0
    6.1579   -0.8250    0.0000 C   0  0  0  0  0  0  0  0  0  0  0  0
    5.7454   -1.5395    0.0000 C   0  0  0  0  0  0  0  0  0  0  0  0
    4.5079   -0.8250    0.0000 C   0  0  0  0  0  0  0  0  0  0  0  0
    4.9204   -1.5395    0.0000 N   0  0  0  0  0  0  0  0  0  0  0  0
  3  1  2  0  0  0  0
  4  2  2  0  0  0  0
  5  1  1  0  0  0  0
  6  2  1  0  0  0  0
  7  3  1  0  0  0  0
  8  4  1  0  0  0  0
 10  9  2  0  0  0  0
 12 11  2  0  0  0  0
 14  5  2  0  0  0  0
 14 11  1  0  0  0  0
 15  6  2  0  0  0  0
 15  9  1  0  0  0  0
 16 10  1  0  0  0  0
 16 13  2  0  0  0  0
 17  7  2  0  0  0  0
 17 14  1  0  0  0  0
 18  8  2  0  0  0  0
 18 15  1  0  0  0  0
 19 13  1  0  0  0  0
 19 17  1  0  0  0  0
 20 12  1  0  0  0  0
 20 19  2  0  0  0  0
 21 16  1  0  0  0  0
 21 18  1  0  0  0  0
 22 20  1  0  0  0  0
 22 21  2  0  0  0  0
M  END