135
  Mrv0541 07281413492D          

 40 39  0  0  0  0            999 V2000
   -1.2375   -2.1434    0.0000 C   0  0  0  0  0  0  0  0  0  0  0  0
   -1.2375    2.1434    0.0000 C   0  0  0  0  0  0  0  0  0  0  0  0
    2.4750    0.0000    0.0000 C   0  0  0  0  0  0  0  0  0  0  0  0
   -0.8250   -1.4289    0.0000 C   0  0  0  0  0  0  0  0  0  0  0  0
   -0.8250    1.4289    0.0000 C   0  0  0  0  0  0  0  0  0  0  0  0
    1.6500    0.0000    0.0000 C   0  0  0  0  0  0  0  0  0  0  0  0
   -1.6500   -2.8579    0.0000 C   0  0  0  0  0  0  0  0  0  0  0  0
   -1.6500    2.8579    0.0000 C   0  0  0  0  0  0  0  0  0  0  0  0
    3.3000    0.0000    0.0000 C   0  0  0  0  0  0  0  0  0  0  0  0
   -0.4125   -0.7145    0.0000 C   0  0  0  0  0  0  0  0  0  0  0  0
   -0.4125    0.7145    0.0000 C   0  0  0  0  0  0  0  0  0  0  0  0
    0.8250    0.0000    0.0000 C   0  0  0  0  0  0  0  0  0  0  0  0
   -0.5230   -2.5559    0.0000 F   0  0  0  0  0  0  0  0  0  0  0  0
   -1.9520   -1.7309    0.0000 F   0  0  0  0  0  0  0  0  0  0  0  0
   -0.5230    2.5559    0.0000 F   0  0  0  0  0  0  0  0  0  0  0  0
   -1.9520    1.7309    0.0000 F   0  0  0  0  0  0  0  0  0  0  0  0
    2.4750   -0.8250    0.0000 F   0  0  0  0  0  0  0  0  0  0  0  0
    2.4750    0.8250    0.0000 F   0  0  0  0  0  0  0  0  0  0  0  0
   -0.1105   -1.8414    0.0000 F   0  0  0  0  0  0  0  0  0  0  0  0
   -1.5395   -1.0164    0.0000 F   0  0  0  0  0  0  0  0  0  0  0  0
   -0.1105    1.8414    0.0000 F   0  0  0  0  0  0  0  0  0  0  0  0
   -1.5395    1.0164    0.0000 F   0  0  0  0  0  0  0  0  0  0  0  0
    1.6500   -0.8250    0.0000 F   0  0  0  0  0  0  0  0  0  0  0  0
    1.6500    0.8250    0.0000 F   0  0  0  0  0  0  0  0  0  0  0  0
   -2.0625   -3.5724    0.0000 F   0  0  0  0  0  0  0  0  0  0  0  0
   -0.9355   -3.2704    0.0000 F   0  0  0  0  0  0  0  0  0  0  0  0
   -2.3645   -2.4454    0.0000 F   0  0  0  0  0  0  0  0  0  0  0  0
   -2.0625    3.5724    0.0000 F   0  0  0  0  0  0  0  0  0  0  0  0
   -0.9355    3.2704    0.0000 F   0  0  0  0  0  0  0  0  0  0  0  0
   -2.3645    2.4454    0.0000 F   0  0  0  0  0  0  0  0  0  0  0  0
    4.1250    0.0000    0.0000 F   0  0  0  0  0  0  0  0  0  0  0  0
    3.3000   -0.8250    0.0000 F   0  0  0  0  0  0  0  0  0  0  0  0
    3.3000    0.8250    0.0000 F   0  0  0  0  0  0  0  0  0  0  0  0
    0.3020   -1.1270    0.0000 F   0  0  0  0  0  0  0  0  0  0  0  0
   -1.1270   -0.3020    0.0000 F   0  0  0  0  0  0  0  0  0  0  0  0
    0.3020    1.1270    0.0000 F   0  0  0  0  0  0  0  0  0  0  0  0
   -1.1270    0.3020    0.0000 F   0  0  0  0  0  0  0  0  0  0  0  0
    0.8250   -0.8250    0.0000 F   0  0  0  0  0  0  0  0  0  0  0  0
    0.8250    0.8250    0.0000 F   0  0  0  0  0  0  0  0  0  0  0  0
    0.0000    0.0000    0.0000 N   0  0  0  0  0  0  0  0  0  0  0  0
  4  1  1  0  0  0  0
  5  2  1  0  0  0  0
  6  3  1  0  0  0  0
  7  1  1  0  0  0  0
  8  2  1  0  0  0  0
  9  3  1  0  0  0  0
 10  4  1  0  0  0  0
 11  5  1  0  0  0  0
 12  6  1  0  0  0  0
 13  1  1  0  0  0  0
 14  1  1  0  0  0  0
 15  2  1  0  0  0  0
 16  2  1  0  0  0  0
 17  3  1  0  0  0  0
 18  3  1  0  0  0  0
 19  4  1  0  0  0  0
 20  4  1  0  0  0  0
 21  5  1  0  0  0  0
 22  5  1  0  0  0  0
 23  6  1  0  0  0  0
 24  6  1  0  0  0  0
 25  7  1  0  0  0  0
 26  7  1  0  0  0  0
 27  7  1  0  0  0  0
 28  8  1  0  0  0  0
 29  8  1  0  0  0  0
 30  8  1  0  0  0  0
 31  9  1  0  0  0  0
 32  9  1  0  0  0  0
 33  9  1  0  0  0  0
 34 10  1  0  0  0  0
 35 10  1  0  0  0  0
 36 11  1  0  0  0  0
 37 11  1  0  0  0  0
 38 12  1  0  0  0  0
 39 12  1  0  0  0  0
 40 10  1  0  0  0  0
 40 11  1  0  0  0  0
 40 12  1  0  0  0  0
M  END