138
  Mrv0541 07281413492D          

 25 24  0  0  0  0            999 V2000
    0.8250    0.0000    0.0000 C   0  0  0  0  0  0  0  0  0  0  0  0
    1.2375    0.7145    0.0000 C   0  0  0  0  0  0  0  0  0  0  0  0
    1.6500    1.4289    0.0000 C   0  0  0  0  0  0  0  0  0  0  0  0
    2.0625    2.1434    0.0000 C   0  0  0  0  0  0  0  0  0  0  0  0
    2.4750    2.8579    0.0000 C   0  0  0  0  0  0  0  0  0  0  0  0
    2.8875    3.5724    0.0000 C   0  0  0  0  0  0  0  0  0  0  0  0
    3.3000    4.2868    0.0000 C   0  0  0  0  0  0  0  0  0  0  0  0
    3.7125    5.0013    0.0000 C   0  0  0  0  0  0  0  0  0  0  0  0
    0.5230    1.1270    0.0000 F   0  0  0  0  0  0  0  0  0  0  0  0
    1.9520    0.3020    0.0000 F   0  0  0  0  0  0  0  0  0  0  0  0
    0.9355    1.8414    0.0000 F   0  0  0  0  0  0  0  0  0  0  0  0
    2.3645    1.0164    0.0000 F   0  0  0  0  0  0  0  0  0  0  0  0
    1.3480    2.5559    0.0000 F   0  0  0  0  0  0  0  0  0  0  0  0
    2.7770    1.7309    0.0000 F   0  0  0  0  0  0  0  0  0  0  0  0
    1.7605    3.2704    0.0000 F   0  0  0  0  0  0  0  0  0  0  0  0
    3.1895    2.4454    0.0000 F   0  0  0  0  0  0  0  0  0  0  0  0
    2.1730    3.9849    0.0000 F   0  0  0  0  0  0  0  0  0  0  0  0
    3.6020    3.1599    0.0000 F   0  0  0  0  0  0  0  0  0  0  0  0
    2.5855    4.6993    0.0000 F   0  0  0  0  0  0  0  0  0  0  0  0
    4.0145    3.8743    0.0000 F   0  0  0  0  0  0  0  0  0  0  0  0
    4.1250    5.7158    0.0000 F   0  0  0  0  0  0  0  0  0  0  0  0
    2.9980    5.4138    0.0000 F   0  0  0  0  0  0  0  0  0  0  0  0
    4.4270    4.5888    0.0000 F   0  0  0  0  0  0  0  0  0  0  0  0
    1.2375   -0.7145    0.0000 O   0  0  0  0  0  0  0  0  0  0  0  0
    0.0000    0.0000    0.0000 O   0  0  0  0  0  0  0  0  0  0  0  0
  2  1  1  0  0  0  0
  3  2  1  0  0  0  0
  4  3  1  0  0  0  0
  5  4  1  0  0  0  0
  6  5  1  0  0  0  0
  7  6  1  0  0  0  0
  8  7  1  0  0  0  0
  9  2  1  0  0  0  0
 10  2  1  0  0  0  0
 11  3  1  0  0  0  0
 12  3  1  0  0  0  0
 13  4  1  0  0  0  0
 14  4  1  0  0  0  0
 15  5  1  0  0  0  0
 16  5  1  0  0  0  0
 17  6  1  0  0  0  0
 18  6  1  0  0  0  0
 19  7  1  0  0  0  0
 20  7  1  0  0  0  0
 21  8  1  0  0  0  0
 22  8  1  0  0  0  0
 23  8  1  0  0  0  0
 24  1  2  0  0  0  0
 25  1  1  0  0  0  0
M  END