139
  Mrv0541 07281413492D          

 43 44  0  0  0  0            999 V2000
   -1.4289    4.9500    0.0000 C   0  0  0  0  0  0  0  0  0  0  0  0
   -3.5724    1.2375    0.0000 C   0  0  0  0  0  0  0  0  0  0  0  0
   -5.7158    4.9500    0.0000 C   0  0  0  0  0  0  0  0  0  0  0  0
   -2.0329    2.4750    0.0000 C   0  0  0  0  0  0  0  0  0  0  0  0
   -3.6829    2.4750    0.0000 C   0  0  0  0  0  0  0  0  0  0  0  0
   -4.6993    4.2355    0.0000 C   0  0  0  0  0  0  0  0  0  0  0  0
   -3.8743    5.6645    0.0000 C   0  0  0  0  0  0  0  0  0  0  0  0
   -1.4289    5.7750    0.0000 C   0  0  0  0  0  0  0  0  0  0  0  0
   -2.8579    1.6500    0.0000 C   0  0  0  0  0  0  0  0  0  0  0  0
   -5.0013    5.3625    0.0000 C   0  0  0  0  0  0  0  0  0  0  0  0
   -2.1434    3.7125    0.0000 C   0  0  0  0  0  0  0  0  0  0  0  0
   -0.7145    8.6625    0.0000 C   0  0  0  0  0  0  0  0  0  0  0  0
   -0.7145    9.4875    0.0000 C   0  0  0  0  0  0  0  0  0  0  0  0
   -2.1434    4.5375    0.0000 C   0  0  0  0  0  0  0  0  0  0  0  0
   -3.5724    3.7125    0.0000 C   0  0  0  0  0  0  0  0  0  0  0  0
   -2.1434    8.6625    0.0000 C   0  0  0  0  0  0  0  0  0  0  0  0
   -2.8579    3.3000    0.0000 C   0  0  0  0  0  0  0  0  0  0  0  0
   -1.4289    8.2500    0.0000 C   0  0  0  0  0  0  0  0  0  0  0  0
   -3.5724    4.5375    0.0000 C   0  0  0  0  0  0  0  0  0  0  0  0
   -1.4289    9.9000    0.0000 C   0  0  0  0  0  0  0  0  0  0  0  0
   -2.1434    9.4875    0.0000 C   0  0  0  0  0  0  0  0  0  0  0  0
   -2.1434    6.1875    0.0000 C   0  0  0  0  0  0  0  0  0  0  0  0
   -2.8579    4.9500    0.0000 C   0  0  0  0  0  0  0  0  0  0  0  0
   -2.1434    7.0125    0.0000 C   0  0  0  0  0  0  0  0  0  0  0  0
   -2.1434   11.1375    0.0000 C   0  0  0  0  0  0  0  0  0  0  0  0
   -2.8579    2.4750    0.0000 C   0  0  0  0  0  0  0  0  0  0  0  0
   -4.2868    4.9500    0.0000 C   0  0  0  0  0  0  0  0  0  0  0  0
   -2.1434   11.9625    0.0000 C   0  0  0  0  0  0  0  0  0  0  0  0
   -2.1434   12.7875    0.0000 C   0  0  0  0  0  0  0  0  0  0  0  0
   -2.1434   13.6125    0.0000 C   0  0  0  0  0  0  0  0  0  0  0  0
   -1.3184   11.9625    0.0000 F   0  0  0  0  0  0  0  0  0  0  0  0
   -2.9684   11.9625    0.0000 F   0  0  0  0  0  0  0  0  0  0  0  0
   -1.3184   12.7875    0.0000 F   0  0  0  0  0  0  0  0  0  0  0  0
   -2.9684   12.7875    0.0000 F   0  0  0  0  0  0  0  0  0  0  0  0
   -2.1434   14.4375    0.0000 F   0  0  0  0  0  0  0  0  0  0  0  0
   -1.3184   13.6125    0.0000 F   0  0  0  0  0  0  0  0  0  0  0  0
   -2.9684   13.6125    0.0000 F   0  0  0  0  0  0  0  0  0  0  0  0
   -1.4289    7.4250    0.0000 N   0  0  0  0  0  0  0  0  0  0  0  0
   -1.4289   10.7250    0.0000 N   0  0  0  0  0  0  0  0  0  0  0  0
   -2.8579    9.9000    0.0000 O   0  0  0  0  0  0  0  0  0  0  0  0
   -2.8579    7.4250    0.0000 O   0  0  0  0  0  0  0  0  0  0  0  0
   -2.8579   10.7250    0.0000 O   0  0  0  0  0  0  0  0  0  0  0  0
   -2.8579    5.7750    0.0000 O   0  0  0  0  0  0  0  0  0  0  0  0
  8  1  1  0  0  0  0
  9  2  1  0  0  0  0
 10  3  1  0  0  0  0
 13 12  2  0  0  0  0
 14 11  2  0  0  0  0
 17 11  1  0  0  0  0
 17 15  2  0  0  0  0
 18 12  1  0  0  0  0
 18 16  2  0  0  0  0
 19 15  1  0  0  0  0
 20 13  1  0  0  0  0
 21 16  1  0  0  0  0
 21 20  2  0  0  0  0
 22  8  1  0  0  0  0
 23 14  1  0  0  0  0
 23 19  2  0  0  0  0
 24 22  1  0  0  0  0
 26  4  1  0  0  0  0
 26  5  1  0  0  0  0
 26  9  1  0  0  0  0
 26 17  1  0  0  0  0
 27  6  1  0  0  0  0
 27  7  1  0  0  0  0
 27 10  1  0  0  0  0
 27 19  1  0  0  0  0
 28 25  1  0  0  0  0
 29 28  1  0  0  0  0
 30 29  1  0  0  0  0
 31 28  1  0  0  0  0
 32 28  1  0  0  0  0
 33 29  1  0  0  0  0
 34 29  1  0  0  0  0
 35 30  1  0  0  0  0
 36 30  1  0  0  0  0
 37 30  1  0  0  0  0
 38 18  1  4  0  0  0
 38 24  2  0  0  0  0
 39 20  1  4  0  0  0
 39 25  2  0  0  0  0
 40 21  1  0  0  0  0
 41 24  1  0  0  0  0
 42 25  1  0  0  0  0
 43 22  1  0  0  0  0
 43 23  1  0  0  0  0
M  END