141
  Mrv0541 07281413492D          

 13 14  0  0  0  0            999 V2000
    5.0013   -0.4125    0.0000 C   0  0  0  0  0  0  0  0  0  0  0  0
    1.6131    1.8695    0.0000 C   0  0  0  0  0  0  0  0  0  0  0  0
    2.6737    1.8695    0.0000 C   0  0  0  0  0  0  0  0  0  0  0  0
    1.4289   -0.0000    0.0000 C   0  0  0  0  0  0  0  0  0  0  0  0
    2.1434   -0.4125    0.0000 C   0  0  0  0  0  0  0  0  0  0  0  0
    4.2868    0.8250    0.0000 C   0  0  0  0  0  0  0  0  0  0  0  0
    3.5724    1.2375    0.0000 C   0  0  0  0  0  0  0  0  0  0  0  0
    1.4289    0.8250    0.0000 C   0  0  0  0  0  0  0  0  0  0  0  0
    3.5724   -0.4125    0.0000 C   0  0  0  0  0  0  0  0  0  0  0  0
    4.2868   -0.0000    0.0000 C   0  0  0  0  0  0  0  0  0  0  0  0
    2.8579   -0.0000    0.0000 C   0  0  0  0  0  0  0  0  0  0  0  0
    2.8579    0.8250    0.0000 C   0  0  0  0  0  0  0  0  0  0  0  0
    2.1434    1.2375    0.0000 C   0  0  0  0  0  0  0  0  0  0  0  0
  5  4  1  0  0  0  0
  7  6  2  0  0  0  0
  8  4  1  0  0  0  0
 10  1  1  0  0  0  0
 10  6  1  0  0  0  0
 10  9  2  0  0  0  0
 11  5  1  0  0  0  0
 11  9  1  0  0  0  0
 12  7  1  0  0  0  0
 12 11  2  0  0  0  0
 13  2  1  0  0  0  0
 13  3  1  0  0  0  0
 13  8  1  0  0  0  0
 13 12  1  0  0  0  0
M  END