142
  Mrv0541 07281413492D          

 20 23  0  0  0  0            999 V2000
   -2.3504    1.8619    0.0000 C   0  0  0  0  0  0  0  0  0  0  0  0
    3.8716    1.8619    0.0000 C   0  0  0  0  0  0  0  0  0  0  0  0
   -2.3504    1.0369    0.0000 C   0  0  0  0  0  0  0  0  0  0  0  0
    3.8716    1.0369    0.0000 C   0  0  0  0  0  0  0  0  0  0  0  0
   -1.6359    2.2744    0.0000 C   0  0  0  0  0  0  0  0  0  0  0  0
    3.1571    2.2744    0.0000 C   0  0  0  0  0  0  0  0  0  0  0  0
   -1.6359    0.6244    0.0000 C   0  0  0  0  0  0  0  0  0  0  0  0
    3.1571    0.6244    0.0000 C   0  0  0  0  0  0  0  0  0  0  0  0
   -0.9214    1.8619    0.0000 C   0  0  0  0  0  0  0  0  0  0  0  0
    2.4426    1.8619    0.0000 C   0  0  0  0  0  0  0  0  0  0  0  0
   -0.9214    1.0369    0.0000 C   0  0  0  0  0  0  0  0  0  0  0  0
    2.4426    1.0369    0.0000 C   0  0  0  0  0  0  0  0  0  0  0  0
    0.3481    1.4494    0.0000 C   0  0  0  0  0  0  0  0  0  0  0  0
    1.1731    1.4494    0.0000 C   0  0  0  0  0  0  0  0  0  0  0  0
   -0.1368    2.1169    0.0000 C   0  0  0  0  0  0  0  0  0  0  0  0
    1.6580    2.1169    0.0000 C   0  0  0  0  0  0  0  0  0  0  0  0
   -0.1368    0.7820    0.0000 N   0  0  0  0  0  0  0  0  0  0  0  0
    1.6580    0.7820    0.0000 N   0  0  0  0  0  0  0  0  0  0  0  0
    0.1181    2.9015    0.0000 O   0  0  0  0  0  0  0  0  0  0  0  0
    1.4031    2.9015    0.0000 O   0  0  0  0  0  0  0  0  0  0  0  0
  3  1  2  0  0  0  0
  4  2  2  0  0  0  0
  5  1  1  0  0  0  0
  6  2  1  0  0  0  0
  7  3  1  0  0  0  0
  8  4  1  0  0  0  0
  9  5  2  0  0  0  0
 10  6  2  0  0  0  0
 11  7  2  0  0  0  0
 11  9  1  0  0  0  0
 12  8  2  0  0  0  0
 12 10  1  0  0  0  0
 14 13  2  0  0  0  0
 15  9  1  0  0  0  0
 15 13  1  0  0  0  0
 16 10  1  0  0  0  0
 16 14  1  0  0  0  0
 17 11  1  0  0  0  0
 17 13  1  0  0  0  0
 18 12  1  0  0  0  0
 18 14  1  0  0  0  0
 19 15  2  0  0  0  0
 20 16  2  0  0  0  0
M  END