161
  Mrv0541 07281413492D          

 11 10  0  0  0  0            999 V2000
    2.2539    1.6500    0.0000 C   0  0  0  0  0  0  0  0  0  0  0  0
    2.9684    0.4125    0.0000 C   0  0  0  0  0  0  0  0  0  0  0  0
    2.7770   -0.3020    0.0000 C   0  0  0  0  0  0  0  0  0  0  0  0
    1.5395   -1.0164    0.0000 C   0  0  0  0  0  0  0  0  0  0  0  0
    0.8250   -0.8250    0.0000 C   0  0  0  0  0  0  0  0  0  0  0  0
    0.1105    0.4125    0.0000 C   0  0  0  0  0  0  0  0  0  0  0  0
    2.2539    0.8250    0.0000 N   0  0  0  0  0  0  0  0  0  0  0  0
    1.9520   -0.3020    0.0000 N   0  0  0  0  0  0  0  0  0  0  0  0
    0.8250   -0.0000    0.0000 N   0  0  0  0  0  0  0  0  0  0  0  0
    1.1270    1.1270    0.0000 O   0  0  0  0  0  0  0  0  0  0  0  0
    1.5395    0.4125    0.0000 P   0  0  0  0  0  0  0  0  0  0  0  0
  7  1  1  0  0  0  0
  7  2  1  0  0  0  0
  8  3  1  0  0  0  0
  8  4  1  0  0  0  0
  9  5  1  0  0  0  0
  9  6  1  0  0  0  0
 11  7  1  0  0  0  0
 11  8  1  0  0  0  0
 11  9  1  0  0  0  0
 11 10  2  0  0  0  0
M  END