163
  Mrv0541 07281413492D          

 19 19  0  0  0  0            999 V2000
    0.7145    2.8875    0.0000 C   0  0  0  0  0  0  0  0  0  0  0  0
   -0.1105    2.0625    0.0000 C   0  0  0  0  0  0  0  0  0  0  0  0
    1.5395    2.0625    0.0000 C   0  0  0  0  0  0  0  0  0  0  0  0
    2.8579   -0.8250    0.0000 C   0  0  0  0  0  0  0  0  0  0  0  0
    1.7309   -1.1270    0.0000 C   0  0  0  0  0  0  0  0  0  0  0  0
    2.5559    0.3020    0.0000 C   0  0  0  0  0  0  0  0  0  0  0  0
   -1.4289   -0.8250    0.0000 C   0  0  0  0  0  0  0  0  0  0  0  0
   -0.3020   -1.1270    0.0000 C   0  0  0  0  0  0  0  0  0  0  0  0
   -1.1270    0.3020    0.0000 C   0  0  0  0  0  0  0  0  0  0  0  0
    1.4289    0.8250    0.0000 C   0  0  0  0  0  0  0  0  0  0  0  0
    0.0000    0.8250    0.0000 C   0  0  0  0  0  0  0  0  0  0  0  0
    0.7145    1.2375    0.0000 C   0  0  0  0  0  0  0  0  0  0  0  0
    1.4289    0.0000    0.0000 C   0  0  0  0  0  0  0  0  0  0  0  0
    0.0000   -0.0000    0.0000 C   0  0  0  0  0  0  0  0  0  0  0  0
    0.7145   -0.4125    0.0000 C   0  0  0  0  0  0  0  0  0  0  0  0
    0.7145    2.0625    0.0000 C   0  0  0  0  0  0  0  0  0  0  0  0
    2.1434   -0.4125    0.0000 C   0  0  0  0  0  0  0  0  0  0  0  0
   -0.7145   -0.4125    0.0000 C   0  0  0  0  0  0  0  0  0  0  0  0
    0.7145   -1.2375    0.0000 O   0  0  0  0  0  0  0  0  0  0  0  0
 12 10  2  0  0  0  0
 12 11  1  0  0  0  0
 13 10  1  0  0  0  0
 14 11  2  0  0  0  0
 15 13  2  0  0  0  0
 15 14  1  0  0  0  0
 16  1  1  0  0  0  0
 16  2  1  0  0  0  0
 16  3  1  0  0  0  0
 16 12  1  0  0  0  0
 17  4  1  0  0  0  0
 17  5  1  0  0  0  0
 17  6  1  0  0  0  0
 17 13  1  0  0  0  0
 18  7  1  0  0  0  0
 18  8  1  0  0  0  0
 18  9  1  0  0  0  0
 18 14  1  0  0  0  0
 19 15  1  0  0  0  0
M  END