170
  Mrv0541 07281413492D          

 15 17  0  0  0  0            999 V2000
    2.5559    2.5559    0.0000 C   0  0  0  0  0  0  0  0  0  0  0  0
    5.4434    0.4125    0.0000 C   0  0  0  0  0  0  0  0  0  0  0  0
    5.0309   -0.3020    0.0000 C   0  0  0  0  0  0  0  0  0  0  0  0
    1.3184    0.4125    0.0000 C   0  0  0  0  0  0  0  0  0  0  0  0
    1.7309   -0.3020    0.0000 C   0  0  0  0  0  0  0  0  0  0  0  0
    5.0309    1.1270    0.0000 C   0  0  0  0  0  0  0  0  0  0  0  0
    1.7309    1.1270    0.0000 C   0  0  0  0  0  0  0  0  0  0  0  0
    4.2059   -0.3020    0.0000 C   0  0  0  0  0  0  0  0  0  0  0  0
    2.5559   -0.3020    0.0000 C   0  0  0  0  0  0  0  0  0  0  0  0
    3.7934    1.8414    0.0000 C   0  0  0  0  0  0  0  0  0  0  0  0
    2.9684    1.8414    0.0000 C   0  0  0  0  0  0  0  0  0  0  0  0
    4.2059    1.1270    0.0000 C   0  0  0  0  0  0  0  0  0  0  0  0
    2.5559    1.1270    0.0000 C   0  0  0  0  0  0  0  0  0  0  0  0
    3.7934    0.4125    0.0000 C   0  0  0  0  0  0  0  0  0  0  0  0
    2.9684    0.4125    0.0000 C   0  0  0  0  0  0  0  0  0  0  0  0
  3  2  2  0  0  0  0
  5  4  2  0  0  0  0
  6  2  1  0  0  0  0
  7  4  1  0  0  0  0
  8  3  1  0  0  0  0
  9  5  1  0  0  0  0
 11  1  1  0  0  0  0
 11 10  2  0  0  0  0
 12  6  2  0  0  0  0
 12 10  1  0  0  0  0
 13  7  2  0  0  0  0
 13 11  1  0  0  0  0
 14  8  2  0  0  0  0
 14 12  1  0  0  0  0
 15  9  2  0  0  0  0
 15 13  1  0  0  0  0
 15 14  1  0  0  0  0
M  END