171
  Mrv0541 07281413492D          

 10  9  0  0  0  0            999 V2000
    0.8250    0.0000    0.0000 C   0  0  0  0  0  0  0  0  0  0  0  0
    1.2375    0.7145    0.0000 C   0  0  0  0  0  0  0  0  0  0  0  0
    1.2375   -0.7145    0.0000 C   0  0  0  0  0  0  0  0  0  0  0  0
    1.6500    1.4289    0.0000 F   0  0  0  0  0  0  0  0  0  0  0  0
    0.5230    1.1270    0.0000 F   0  0  0  0  0  0  0  0  0  0  0  0
    1.9520    0.3020    0.0000 F   0  0  0  0  0  0  0  0  0  0  0  0
    1.6500   -1.4289    0.0000 F   0  0  0  0  0  0  0  0  0  0  0  0
    0.5230   -1.1270    0.0000 F   0  0  0  0  0  0  0  0  0  0  0  0
    1.9520   -0.3020    0.0000 F   0  0  0  0  0  0  0  0  0  0  0  0
    0.0000    0.0000    0.0000 O   0  0  0  0  0  0  0  0  0  0  0  0
  2  1  1  0  0  0  0
  3  1  1  0  0  0  0
  4  2  1  0  0  0  0
  5  2  1  0  0  0  0
  6  2  1  0  0  0  0
  7  3  1  0  0  0  0
  8  3  1  0  0  0  0
  9  3  1  0  0  0  0
 10  1  1  0  0  0  0
M  END