173
  Mrv0541 07281413492D          

 14 14  0  0  0  0            999 V2000
    2.3222   -2.1022    0.0000 C   0  0  0  0  0  0  0  0  0  0  0  0
    2.5771   -1.3175    0.0000 C   0  0  0  0  0  0  0  0  0  0  0  0
    1.4972   -2.1022    0.0000 C   0  0  0  0  0  0  0  0  0  0  0  0
    3.3386   -0.8326    0.0000 C   0  0  0  0  0  0  0  0  0  0  0  0
    1.2422   -1.3175    0.0000 C   0  0  0  0  0  0  0  0  0  0  0  0
    3.3386   -0.0076    0.0000 C   0  0  0  0  0  0  0  0  0  0  0  0
    0.4807   -0.8326    0.0000 C   0  0  0  0  0  0  0  0  0  0  0  0
    2.6241    0.4049    0.0000 C   0  0  0  0  0  0  0  0  0  0  0  0
    0.4807   -0.0076    0.0000 C   0  0  0  0  0  0  0  0  0  0  0  0
    2.6241    1.2299    0.0000 C   0  0  0  0  0  0  0  0  0  0  0  0
    1.1952    0.4049    0.0000 C   0  0  0  0  0  0  0  0  0  0  0  0
    1.9097    1.6424    0.0000 C   0  0  0  0  0  0  0  0  0  0  0  0
    1.1952    1.2299    0.0000 N   0  0  0  0  0  0  0  0  0  0  0  0
    1.9097    2.4674    0.0000 O   0  0  0  0  0  0  0  0  0  0  0  0
  2  1  1  0  0  0  0
  3  1  1  0  0  0  0
  4  2  1  0  0  0  0
  5  3  1  0  0  0  0
  6  4  1  0  0  0  0
  7  5  1  0  0  0  0
  8  6  1  0  0  0  0
  9  7  1  0  0  0  0
 10  8  1  0  0  0  0
 11  9  1  0  0  0  0
 12 10  1  0  0  0  0
 13 11  1  4  0  0  0
 13 12  2  0  0  0  0
 14 12  1  0  0  0  0
M  END