176
  Mrv0541 07281413492D          

 25 26  0  0  0  0            999 V2000
    5.4434   -0.7954    0.0000 C   0  0  0  0  0  0  0  0  0  0  0  0
    7.9184   -0.7954    0.0000 C   0  0  0  0  0  0  0  0  0  0  0  0
    5.8559   -0.0809    0.0000 C   0  0  0  0  0  0  0  0  0  0  0  0
    8.3309   -0.0809    0.0000 C   0  0  0  0  0  0  0  0  0  0  0  0
    6.6809   -0.0809    0.0000 C   0  0  0  0  0  0  0  0  0  0  0  0
   12.4559    2.7770    0.0000 C   0  0  0  0  0  0  0  0  0  0  0  0
    8.8539    4.9500    0.0000 C   0  0  0  0  0  0  0  0  0  0  0  0
   12.0434    3.4914    0.0000 C   0  0  0  0  0  0  0  0  0  0  0  0
   12.0434    2.0625    0.0000 C   0  0  0  0  0  0  0  0  0  0  0  0
    8.1395    4.5375    0.0000 C   0  0  0  0  0  0  0  0  0  0  0  0
    9.5684    4.5375    0.0000 C   0  0  0  0  0  0  0  0  0  0  0  0
    7.0934    0.6336    0.0000 C   0  0  0  0  0  0  0  0  0  0  0  0
   11.2184    3.4914    0.0000 C   0  0  0  0  0  0  0  0  0  0  0  0
   11.2184    2.0625    0.0000 C   0  0  0  0  0  0  0  0  0  0  0  0
    8.1395    3.7125    0.0000 C   0  0  0  0  0  0  0  0  0  0  0  0
    9.5684    3.7125    0.0000 C   0  0  0  0  0  0  0  0  0  0  0  0
    8.3309    1.3480    0.0000 C   0  0  0  0  0  0  0  0  0  0  0  0
    7.9184    0.6336    0.0000 C   0  0  0  0  0  0  0  0  0  0  0  0
   10.8059    2.7770    0.0000 C   0  0  0  0  0  0  0  0  0  0  0  0
    8.8539    3.3000    0.0000 C   0  0  0  0  0  0  0  0  0  0  0  0
   10.2829    1.6500    0.0000 O   0  0  0  0  0  0  0  0  0  0  0  0
    9.1559    1.3480    0.0000 O   0  0  0  0  0  0  0  0  0  0  0  0
    9.9809    2.7770    0.0000 O   0  0  0  0  0  0  0  0  0  0  0  0
    8.8539    2.4750    0.0000 O   0  0  0  0  0  0  0  0  0  0  0  0
    9.5684    2.0625    0.0000 P   0  0  0  0  0  0  0  0  0  0  0  0
  3  1  1  0  0  0  0
  4  2  1  0  0  0  0
  5  3  1  0  0  0  0
  8  6  2  0  0  0  0
  9  6  1  0  0  0  0
 10  7  2  0  0  0  0
 11  7  1  0  0  0  0
 12  5  1  0  0  0  0
 13  8  1  0  0  0  0
 14  9  2  0  0  0  0
 15 10  1  0  0  0  0
 16 11  2  0  0  0  0
 18  4  1  0  0  0  0
 18 12  1  0  0  0  0
 18 17  1  0  0  0  0
 19 13  2  0  0  0  0
 19 14  1  0  0  0  0
 20 15  2  0  0  0  0
 20 16  1  0  0  0  0
 22 17  1  0  0  0  0
 23 19  1  0  0  0  0
 24 20  1  0  0  0  0
 25 21  2  0  0  0  0
 25 22  1  0  0  0  0
 25 23  1  0  0  0  0
 25 24  1  0  0  0  0
M  END