182
  Mrv0541 07281413492D          

 18 20  0  0  0  0            999 V2000
    4.2868    0.8250    0.0000 C   0  0  0  0  0  0  0  0  0  0  0  0
    4.2868    2.4750    0.0000 C   0  0  0  0  0  0  0  0  0  0  0  0
    1.4289    0.8250    0.0000 C   0  0  0  0  0  0  0  0  0  0  0  0
    1.4289    2.4750    0.0000 C   0  0  0  0  0  0  0  0  0  0  0  0
    5.0013    1.2375    0.0000 C   0  0  0  0  0  0  0  0  0  0  0  0
    5.0013    2.0625    0.0000 C   0  0  0  0  0  0  0  0  0  0  0  0
    0.7145    1.2375    0.0000 C   0  0  0  0  0  0  0  0  0  0  0  0
    0.7145    2.0625    0.0000 C   0  0  0  0  0  0  0  0  0  0  0  0
    3.5724    1.2375    0.0000 C   0  0  0  0  0  0  0  0  0  0  0  0
    3.5724    2.0625    0.0000 C   0  0  0  0  0  0  0  0  0  0  0  0
    2.1434    1.2375    0.0000 C   0  0  0  0  0  0  0  0  0  0  0  0
    2.1434    2.0625    0.0000 C   0  0  0  0  0  0  0  0  0  0  0  0
    5.7158    0.8250    0.0000 Cl  0  0  0  0  0  0  0  0  0  0  0  0
    5.7158    2.4750    0.0000 Cl  0  0  0  0  0  0  0  0  0  0  0  0
    0.0000    0.8250    0.0000 Cl  0  0  0  0  0  0  0  0  0  0  0  0
   -0.0000    2.4750    0.0000 Cl  0  0  0  0  0  0  0  0  0  0  0  0
    2.8579    0.8250    0.0000 O   0  0  0  0  0  0  0  0  0  0  0  0
    2.8579    2.4750    0.0000 O   0  0  0  0  0  0  0  0  0  0  0  0
  5  1  2  0  0  0  0
  6  2  2  0  0  0  0
  6  5  1  0  0  0  0
  7  3  2  0  0  0  0
  8  4  2  0  0  0  0
  8  7  1  0  0  0  0
  9  1  1  0  0  0  0
 10  2  1  0  0  0  0
 10  9  2  0  0  0  0
 11  3  1  0  0  0  0
 12  4  1  0  0  0  0
 12 11  2  0  0  0  0
 13  5  1  0  0  0  0
 14  6  1  0  0  0  0
 15  7  1  0  0  0  0
 16  8  1  0  0  0  0
 17  9  1  0  0  0  0
 17 11  1  0  0  0  0
 18 10  1  0  0  0  0
 18 12  1  0  0  0  0
M  END