184
  Mrv0541 07281413492D          

 15 15  0  0  0  0            999 V2000
   -3.5724    5.3625    0.0000 C   0  0  0  0  0  0  0  0  0  0  0  0
   -2.8579    4.9500    0.0000 C   0  0  0  0  0  0  0  0  0  0  0  0
   -2.1434    5.3625    0.0000 C   0  0  0  0  0  0  0  0  0  0  0  0
   -1.4289    4.9500    0.0000 C   0  0  0  0  0  0  0  0  0  0  0  0
   -0.7145    5.3625    0.0000 C   0  0  0  0  0  0  0  0  0  0  0  0
    0.0000    4.9500    0.0000 C   0  0  0  0  0  0  0  0  0  0  0  0
    0.7145    5.3625    0.0000 C   0  0  0  0  0  0  0  0  0  0  0  0
    1.4289    4.9500    0.0000 C   0  0  0  0  0  0  0  0  0  0  0  0
    2.8579    4.9500    0.0000 C   0  0  0  0  0  0  0  0  0  0  0  0
    2.1434    6.1875    0.0000 C   0  0  0  0  0  0  0  0  0  0  0  0
    3.5724    5.3625    0.0000 C   0  0  0  0  0  0  0  0  0  0  0  0
    2.8579    6.6000    0.0000 C   0  0  0  0  0  0  0  0  0  0  0  0
    2.1434    5.3625    0.0000 C   0  0  0  0  0  0  0  0  0  0  0  0
    3.5724    6.1875    0.0000 C   0  0  0  0  0  0  0  0  0  0  0  0
    4.2868    6.6000    0.0000 O   0  0  0  0  0  0  0  0  0  0  0  0
  2  1  1  0  0  0  0
  3  2  1  0  0  0  0
  4  3  1  0  0  0  0
  5  4  1  0  0  0  0
  6  5  1  0  0  0  0
  7  6  1  0  0  0  0
  8  7  1  0  0  0  0
 11  9  1  0  0  0  0
 12 10  2  0  0  0  0
 13  8  1  0  0  0  0
 13  9  2  0  0  0  0
 13 10  1  0  0  0  0
 14 11  2  0  0  0  0
 14 12  1  0  0  0  0
 15 14  1  0  0  0  0
M  END