189
  Mrv0541 07281413492D          

 12 13  0  0  0  0            999 V2000
    1.6436    0.3570    0.0000 C   0  0  0  0  0  0  0  0  0  0  0  0
    0.2526    0.2537    0.0000 C   0  0  0  0  0  0  0  0  0  0  0  0
    0.9094   -2.4949    0.0000 C   0  0  0  0  0  0  0  0  0  0  0  0
    1.2750   -2.7795    0.0000 C   0  0  0  0  0  0  0  0  0  0  0  0
    0.5004   -1.3997    0.0000 C   0  0  0  0  0  0  0  0  0  0  0  0
    0.1351   -2.0602    0.0000 C   0  0  0  0  0  0  0  0  0  0  0  0
    1.9362   -1.4148    0.0000 C   0  0  0  0  0  0  0  0  0  0  0  0
    1.1407   -0.9495    0.0000 C   0  0  0  0  0  0  0  0  0  0  0  0
    0.9807   -0.1341    0.0000 C   0  0  0  0  0  0  0  0  0  0  0  0
    0.9106   -1.6699    0.0000 C   0  0  0  0  0  0  0  0  0  0  0  0
    1.6411   -2.0402    0.0000 C   0  0  0  0  0  0  0  0  0  0  0  0
    2.3839   -2.3993    0.0000 O   0  0  0  0  0  0  0  0  0  0  0  0
  6  5  1  0  0  0  0
  8  5  1  0  0  0  0
  8  7  1  0  0  0  0
  9  1  1  0  0  0  0
  9  2  1  0  0  0  0
  9  8  1  0  0  0  0
 10  3  1  0  0  0  0
 10  6  1  0  0  0  0
 10  9  1  0  0  0  0
 11  4  1  0  0  0  0
 11  7  1  0  0  0  0
 11 10  1  0  0  0  0
 12 11  1  0  0  0  0
M  END