198
  Mrv0541 07281413492D          

  9  8  0  0  0  0            999 V2000
   -0.5230    1.1270    0.0000 C   0  0  0  0  0  0  0  0  0  0  0  0
    0.3020   -0.3020    0.0000 C   0  0  0  0  0  0  0  0  0  0  0  0
   -0.8250    0.0000    0.0000 C   0  0  0  0  0  0  0  0  0  0  0  0
    0.6039    0.8250    0.0000 C   0  0  0  0  0  0  0  0  0  0  0  0
   -0.1105    0.4125    0.0000 C   0  0  0  0  0  0  0  0  0  0  0  0
   -1.3480    1.1270    0.0000 Br  0  0  0  0  0  0  0  0  0  0  0  0
    1.1270   -0.3020    0.0000 Br  0  0  0  0  0  0  0  0  0  0  0  0
   -1.5395    0.4125    0.0000 O   0  0  0  0  0  0  0  0  0  0  0  0
    1.3184    0.4125    0.0000 O   0  0  0  0  0  0  0  0  0  0  0  0
  5  1  1  0  0  0  0
  5  2  1  0  0  0  0
  5  3  1  0  0  0  0
  5  4  1  0  0  0  0
  6  1  1  0  0  0  0
  7  2  1  0  0  0  0
  8  3  1  0  0  0  0
  9  4  1  0  0  0  0
M  END