201
  Mrv0541 07281413492D          

 13 14  0  0  0  0            999 V2000
    0.5004   -1.3997    0.0000 C   0  0  0  0  0  0  0  0  0  0  0  0
    0.1351   -2.0602    0.0000 C   0  0  0  0  0  0  0  0  0  0  0  0
    1.9362   -1.4148    0.0000 C   0  0  0  0  0  0  0  0  0  0  0  0
    1.6411   -2.0402    0.0000 C   0  0  0  0  0  0  0  0  0  0  0  0
    1.1407   -0.9495    0.0000 C   0  0  0  0  0  0  0  0  0  0  0  0
    0.9106   -1.6699    0.0000 C   0  0  0  0  0  0  0  0  0  0  0  0
    0.9807   -0.1341    0.0000 C   0  0  0  0  0  0  0  0  0  0  0  0
    2.7243   -1.1707    0.0000 Cl  0  0  0  0  0  0  0  0  0  0  0  0
    1.9087   -2.8206    0.0000 Cl  0  0  0  0  0  0  0  0  0  0  0  0
    1.3626   -0.1549    0.0000 Cl  0  0  0  0  0  0  0  0  0  0  0  0
    0.9094   -2.4949    0.0000 Cl  0  0  0  0  0  0  0  0  0  0  0  0
    1.4674    0.5320    0.0000 Cl  0  0  0  0  0  0  0  0  0  0  0  0
    0.4010    0.4529    0.0000 Cl  0  0  0  0  0  0  0  0  0  0  0  0
  2  1  2  0  0  0  0
  4  3  2  0  0  0  0
  5  1  1  0  0  0  0
  5  3  1  0  0  0  0
  6  2  1  0  0  0  0
  6  4  1  0  0  0  0
  7  5  1  0  0  0  0
  7  6  1  0  0  0  0
  8  3  1  0  0  0  0
  9  4  1  0  0  0  0
 10  5  1  0  0  0  0
 11  6  1  0  0  0  0
 12  7  1  0  0  0  0
 13  7  1  0  0  0  0
M  END