202
  Mrv0541 07281413492D          

 44 49  0  0  0  0            999 V2000
   -2.7281    4.5352    0.0000 C   0  0  0  0  0  0  0  0  0  0  0  0
   -4.2032   13.2452    0.0000 C   0  0  0  0  0  0  0  0  0  0  0  0
   -6.0474    1.4933    0.0000 C   0  0  0  0  0  0  0  0  0  0  0  0
   -0.8839   16.2870    0.0000 C   0  0  0  0  0  0  0  0  0  0  0  0
   -5.2269    1.4071    0.0000 C   0  0  0  0  0  0  0  0  0  0  0  0
   -6.3829    2.2470    0.0000 C   0  0  0  0  0  0  0  0  0  0  0  0
   -1.7044   16.3733    0.0000 C   0  0  0  0  0  0  0  0  0  0  0  0
   -0.5484   15.5334    0.0000 C   0  0  0  0  0  0  0  0  0  0  0  0
   -4.7420    2.0745    0.0000 C   0  0  0  0  0  0  0  0  0  0  0  0
   -5.8980    2.9144    0.0000 C   0  0  0  0  0  0  0  0  0  0  0  0
   -2.1893   15.7058    0.0000 C   0  0  0  0  0  0  0  0  0  0  0  0
   -1.0333   14.8659    0.0000 C   0  0  0  0  0  0  0  0  0  0  0  0
   -4.1801    8.0652    0.0000 C   0  0  0  0  0  0  0  0  0  0  0  0
   -2.7512    9.7152    0.0000 C   0  0  0  0  0  0  0  0  0  0  0  0
   -4.1801    7.2402    0.0000 C   0  0  0  0  0  0  0  0  0  0  0  0
   -2.7512   10.5402    0.0000 C   0  0  0  0  0  0  0  0  0  0  0  0
   -2.7512    8.0652    0.0000 C   0  0  0  0  0  0  0  0  0  0  0  0
   -4.1801    9.7152    0.0000 C   0  0  0  0  0  0  0  0  0  0  0  0
   -3.5127    4.2803    0.0000 C   0  0  0  0  0  0  0  0  0  0  0  0
   -3.4186   13.5001    0.0000 C   0  0  0  0  0  0  0  0  0  0  0  0
   -3.4656    8.4777    0.0000 C   0  0  0  0  0  0  0  0  0  0  0  0
   -3.4656    9.3027    0.0000 C   0  0  0  0  0  0  0  0  0  0  0  0
   -5.0775    2.8282    0.0000 C   0  0  0  0  0  0  0  0  0  0  0  0
   -1.8538   14.9522    0.0000 C   0  0  0  0  0  0  0  0  0  0  0  0
   -2.7512    7.2402    0.0000 C   0  0  0  0  0  0  0  0  0  0  0  0
   -4.1801   10.5402    0.0000 C   0  0  0  0  0  0  0  0  0  0  0  0
   -3.4656    6.8277    0.0000 C   0  0  0  0  0  0  0  0  0  0  0  0
   -3.4656   10.9527    0.0000 C   0  0  0  0  0  0  0  0  0  0  0  0
   -4.1801    4.7652    0.0000 C   0  0  0  0  0  0  0  0  0  0  0  0
   -2.7512   13.0152    0.0000 C   0  0  0  0  0  0  0  0  0  0  0  0
   -4.8476    4.2803    0.0000 C   0  0  0  0  0  0  0  0  0  0  0  0
   -2.0837   13.5001    0.0000 C   0  0  0  0  0  0  0  0  0  0  0  0
   -2.0367    6.8277    0.0000 Cl  0  0  0  0  0  0  0  0  0  0  0  0
   -4.8946   10.9527    0.0000 Cl  0  0  0  0  0  0  0  0  0  0  0  0
   -3.4656    6.0027    0.0000 N   0  0  0  0  0  0  0  0  0  0  0  0
   -3.4656   11.7777    0.0000 N   0  0  0  0  0  0  0  0  0  0  0  0
   -4.1801    5.5902    0.0000 N   0  0  0  0  0  0  0  0  0  0  0  0
   -2.7512   12.1902    0.0000 N   0  0  0  0  0  0  0  0  0  0  0  0
   -3.7676    3.4956    0.0000 N   0  0  0  0  0  0  0  0  0  0  0  0
   -3.1637   14.2847    0.0000 N   0  0  0  0  0  0  0  0  0  0  0  0
   -4.5926    3.4956    0.0000 N   0  0  0  0  0  0  0  0  0  0  0  0
   -2.3387   14.2847    0.0000 N   0  0  0  0  0  0  0  0  0  0  0  0
   -5.6322    4.5352    0.0000 O   0  0  0  0  0  0  0  0  0  0  0  0
   -1.2991   13.2452    0.0000 O   0  0  0  0  0  0  0  0  0  0  0  0
  5  3  2  0  0  0  0
  6  3  1  0  0  0  0
  7  4  2  0  0  0  0
  8  4  1  0  0  0  0
  9  5  1  0  0  0  0
 10  6  2  0  0  0  0
 11  7  1  0  0  0  0
 12  8  2  0  0  0  0
 15 13  2  0  0  0  0
 16 14  2  0  0  0  0
 19  1  1  0  0  0  0
 20  2  1  0  0  0  0
 21 13  1  0  0  0  0
 21 17  2  0  0  0  0
 22 14  1  0  0  0  0
 22 18  2  0  0  0  0
 22 21  1  0  0  0  0
 23  9  2  0  0  0  0
 23 10  1  0  0  0  0
 24 11  2  0  0  0  0
 24 12  1  0  0  0  0
 25 17  1  0  0  0  0
 26 18  1  0  0  0  0
 27 15  1  0  0  0  0
 27 25  2  0  0  0  0
 28 16  1  0  0  0  0
 28 26  2  0  0  0  0
 29 19  1  0  0  0  0
 30 20  1  0  0  0  0
 31 29  1  0  0  0  0
 32 30  1  0  0  0  0
 33 25  1  0  0  0  0
 34 26  1  0  0  0  0
 35 27  1  0  0  0  0
 36 28  1  0  0  0  0
 37 29  1  0  0  0  0
 37 35  2  0  0  0  0
 38 30  1  0  0  0  0
 38 36  2  0  0  0  0
 39 19  2  0  0  0  0
 40 20  2  0  0  0  0
 41 23  1  0  0  0  0
 41 31  1  0  0  0  0
 41 39  1  0  0  0  0
 42 24  1  0  0  0  0
 42 32  1  0  0  0  0
 42 40  1  0  0  0  0
 43 31  2  0  0  0  0
 44 32  2  0  0  0  0
M  END