208
  Mrv0541 07281413492D          

 16 15  0  0  0  0            999 V2000
   -0.8250   -1.4289    0.0000 C   0  0  0  0  0  0  0  0  0  0  0  0
   -2.8875   -2.1434    0.0000 C   0  0  0  0  0  0  0  0  0  0  0  0
   -1.7605   -1.8414    0.0000 C   0  0  0  0  0  0  0  0  0  0  0  0
   -3.1895   -1.0164    0.0000 C   0  0  0  0  0  0  0  0  0  0  0  0
    1.6500    1.4289    0.0000 C   0  0  0  0  0  0  0  0  0  0  0  0
    1.9520    0.3020    0.0000 C   0  0  0  0  0  0  0  0  0  0  0  0
    0.5230    1.1270    0.0000 C   0  0  0  0  0  0  0  0  0  0  0  0
    0.0000   -0.8250    0.0000 C   0  0  0  0  0  0  0  0  0  0  0  0
   -0.0000    0.8250    0.0000 C   0  0  0  0  0  0  0  0  0  0  0  0
   -2.0625   -0.7145    0.0000 C   0  0  0  0  0  0  0  0  0  0  0  0
   -0.8250   -0.0000    0.0000 C   0  0  0  0  0  0  0  0  0  0  0  0
    0.8250    0.0000    0.0000 C   0  0  0  0  0  0  0  0  0  0  0  0
   -1.2375   -0.7145    0.0000 C   0  0  0  0  0  0  0  0  0  0  0  0
   -2.4750   -1.4289    0.0000 C   0  0  0  0  0  0  0  0  0  0  0  0
    1.2375    0.7145    0.0000 C   0  0  0  0  0  0  0  0  0  0  0  0
    0.0000    0.0000    0.0000 C   0  0  0  0  0  0  0  0  0  0  0  0
 13  1  1  0  0  0  0
 13 10  1  0  0  0  0
 13 11  1  0  0  0  0
 14  2  1  0  0  0  0
 14  3  1  0  0  0  0
 14  4  1  0  0  0  0
 14 10  1  0  0  0  0
 15  5  1  0  0  0  0
 15  6  1  0  0  0  0
 15  7  1  0  0  0  0
 15 12  1  0  0  0  0
 16  8  1  0  0  0  0
 16  9  1  0  0  0  0
 16 11  1  0  0  0  0
 16 12  1  0  0  0  0
M  END