214
  Mrv0541 07281413492D          

 14 15  0  0  0  0            999 V2000
    3.5724    3.7125    0.0000 C   0  0  0  0  0  0  0  0  0  0  0  0
    2.8579    3.3000    0.0000 C   0  0  0  0  0  0  0  0  0  0  0  0
    2.8579   -1.6500    0.0000 C   0  0  0  0  0  0  0  0  0  0  0  0
    3.5724   -1.2375    0.0000 C   0  0  0  0  0  0  0  0  0  0  0  0
    2.1434   -1.2375    0.0000 C   0  0  0  0  0  0  0  0  0  0  0  0
    3.5724   -0.4125    0.0000 C   0  0  0  0  0  0  0  0  0  0  0  0
    2.1434   -0.4125    0.0000 C   0  0  0  0  0  0  0  0  0  0  0  0
    2.1434    2.0625    0.0000 C   0  0  0  0  0  0  0  0  0  0  0  0
    3.5724    2.0625    0.0000 C   0  0  0  0  0  0  0  0  0  0  0  0
    2.1434    1.2375    0.0000 C   0  0  0  0  0  0  0  0  0  0  0  0
    3.5724    1.2375    0.0000 C   0  0  0  0  0  0  0  0  0  0  0  0
    2.8579    2.4750    0.0000 C   0  0  0  0  0  0  0  0  0  0  0  0
    2.8579   -0.0000    0.0000 C   0  0  0  0  0  0  0  0  0  0  0  0
    2.8579    0.8250    0.0000 C   0  0  0  0  0  0  0  0  0  0  0  0
  2  1  1  0  0  0  0
  4  3  2  0  0  0  0
  5  3  1  0  0  0  0
  6  4  1  0  0  0  0
  7  5  2  0  0  0  0
 10  8  1  0  0  0  0
 11  9  2  0  0  0  0
 12  2  1  0  0  0  0
 12  8  2  0  0  0  0
 12  9  1  0  0  0  0
 13  6  2  0  0  0  0
 13  7  1  0  0  0  0
 14 10  2  0  0  0  0
 14 11  1  0  0  0  0
 14 13  1  0  0  0  0
M  END