215
  Mrv0541 07281413492D          

 44 47  0  0  0  0            999 V2000
   -7.8592    4.5375    0.0000 C   0  0  0  0  0  0  0  0  0  0  0  0
    2.8579    7.4250    0.0000 C   0  0  0  0  0  0  0  0  0  0  0  0
   -5.7158    0.8250    0.0000 C   0  0  0  0  0  0  0  0  0  0  0  0
    0.7145   11.1375    0.0000 C   0  0  0  0  0  0  0  0  0  0  0  0
   -5.0013    1.2375    0.0000 C   0  0  0  0  0  0  0  0  0  0  0  0
   -6.4302    1.2375    0.0000 C   0  0  0  0  0  0  0  0  0  0  0  0
    0.0000   10.7250    0.0000 C   0  0  0  0  0  0  0  0  0  0  0  0
    1.4289   10.7250    0.0000 C   0  0  0  0  0  0  0  0  0  0  0  0
   -5.0013    2.0625    0.0000 C   0  0  0  0  0  0  0  0  0  0  0  0
   -6.4302    2.0625    0.0000 C   0  0  0  0  0  0  0  0  0  0  0  0
    0.0000    9.9000    0.0000 C   0  0  0  0  0  0  0  0  0  0  0  0
    1.4289    9.9000    0.0000 C   0  0  0  0  0  0  0  0  0  0  0  0
   -3.5724    6.1875    0.0000 C   0  0  0  0  0  0  0  0  0  0  0  0
   -1.4289    5.7750    0.0000 C   0  0  0  0  0  0  0  0  0  0  0  0
   -4.2868    5.7750    0.0000 C   0  0  0  0  0  0  0  0  0  0  0  0
   -0.7145    6.1875    0.0000 C   0  0  0  0  0  0  0  0  0  0  0  0
   -2.8579    4.9500    0.0000 C   0  0  0  0  0  0  0  0  0  0  0  0
   -2.1434    7.0125    0.0000 C   0  0  0  0  0  0  0  0  0  0  0  0
   -7.1447    4.9500    0.0000 C   0  0  0  0  0  0  0  0  0  0  0  0
    2.1434    7.0125    0.0000 C   0  0  0  0  0  0  0  0  0  0  0  0
   -2.8579    5.7750    0.0000 C   0  0  0  0  0  0  0  0  0  0  0  0
   -2.1434    6.1875    0.0000 C   0  0  0  0  0  0  0  0  0  0  0  0
   -5.7158    2.4750    0.0000 C   0  0  0  0  0  0  0  0  0  0  0  0
    0.7145    9.4875    0.0000 C   0  0  0  0  0  0  0  0  0  0  0  0
   -3.5724    4.5375    0.0000 C   0  0  0  0  0  0  0  0  0  0  0  0
   -1.4289    7.4250    0.0000 C   0  0  0  0  0  0  0  0  0  0  0  0
   -4.2868    4.9500    0.0000 C   0  0  0  0  0  0  0  0  0  0  0  0
   -0.7145    7.0125    0.0000 C   0  0  0  0  0  0  0  0  0  0  0  0
   -6.4302    4.5375    0.0000 C   0  0  0  0  0  0  0  0  0  0  0  0
    1.4289    7.4250    0.0000 C   0  0  0  0  0  0  0  0  0  0  0  0
   -6.4302    3.7125    0.0000 C   0  0  0  0  0  0  0  0  0  0  0  0
    1.4289    8.2500    0.0000 C   0  0  0  0  0  0  0  0  0  0  0  0
   -3.5724    3.7125    0.0000 Cl  0  0  0  0  0  0  0  0  0  0  0  0
   -1.4289    8.2500    0.0000 Cl  0  0  0  0  0  0  0  0  0  0  0  0
   -5.7158    3.3000    0.0000 N   0  0  0  0  0  0  0  0  0  0  0  0
    0.7145    8.6625    0.0000 N   0  0  0  0  0  0  0  0  0  0  0  0
   -5.0013    4.5375    0.0000 N   0  0  0  0  0  0  0  0  0  0  0  0
    0.0000    7.4250    0.0000 N   0  0  0  0  0  0  0  0  0  0  0  0
   -5.7158    4.9500    0.0000 N   0  0  0  0  0  0  0  0  0  0  0  0
    0.7145    7.0125    0.0000 N   0  0  0  0  0  0  0  0  0  0  0  0
   -7.1447    5.7750    0.0000 O   0  0  0  0  0  0  0  0  0  0  0  0
    2.1434    6.1875    0.0000 O   0  0  0  0  0  0  0  0  0  0  0  0
   -7.1447    3.3000    0.0000 O   0  0  0  0  0  0  0  0  0  0  0  0
    2.1434    8.6625    0.0000 O   0  0  0  0  0  0  0  0  0  0  0  0
  5  3  2  0  0  0  0
  6  3  1  0  0  0  0
  7  4  2  0  0  0  0
  8  4  1  0  0  0  0
  9  5  1  0  0  0  0
 10  6  2  0  0  0  0
 11  7  1  0  0  0  0
 12  8  2  0  0  0  0
 15 13  2  0  0  0  0
 16 14  2  0  0  0  0
 19  1  1  0  0  0  0
 20  2  1  0  0  0  0
 21 13  1  0  0  0  0
 21 17  2  0  0  0  0
 22 14  1  0  0  0  0
 22 18  2  0  0  0  0
 22 21  1  0  0  0  0
 23  9  2  0  0  0  0
 23 10  1  0  0  0  0
 24 11  2  0  0  0  0
 24 12  1  0  0  0  0
 25 17  1  0  0  0  0
 26 18  1  0  0  0  0
 27 15  1  0  0  0  0
 27 25  2  0  0  0  0
 28 16  1  0  0  0  0
 28 26  2  0  0  0  0
 29 19  1  0  0  0  0
 30 20  1  0  0  0  0
 31 29  1  0  0  0  0
 32 30  1  0  0  0  0
 33 25  1  0  0  0  0
 34 26  1  0  0  0  0
 35 23  1  4  0  0  0
 35 31  2  0  0  0  0
 36 24  1  4  0  0  0
 36 32  2  0  0  0  0
 37 27  1  0  0  0  0
 38 28  1  0  0  0  0
 39 29  1  0  0  0  0
 39 37  2  0  0  0  0
 40 30  1  0  0  0  0
 40 38  2  0  0  0  0
 41 19  2  0  0  0  0
 42 20  2  0  0  0  0
 43 31  1  0  0  0  0
 44 32  1  0  0  0  0
M  END