216
  Mrv0541 07281413492D          

 54 59  0  0  0  0            999 V2000
    5.0013  -14.4375    0.0000 C   0  0  0  0  0  0  0  0  0  0  0  0
    2.1434   -7.8375    0.0000 C   0  0  0  0  0  0  0  0  0  0  0  0
   -0.7145   -3.7125    0.0000 C   0  0  0  0  0  0  0  0  0  0  0  0
    4.2868  -13.2000    0.0000 C   0  0  0  0  0  0  0  0  0  0  0  0
    3.5724  -14.4375    0.0000 C   0  0  0  0  0  0  0  0  0  0  0  0
   -0.0000   -6.6000    0.0000 C   0  0  0  0  0  0  0  0  0  0  0  0
    1.4289   -4.9500    0.0000 C   0  0  0  0  0  0  0  0  0  0  0  0
    1.4289   -0.0000    0.0000 C   0  0  0  0  0  0  0  0  0  0  0  0
    0.7145  -10.3125    0.0000 C   0  0  0  0  0  0  0  0  0  0  0  0
    2.1434  -10.3125    0.0000 C   0  0  0  0  0  0  0  0  0  0  0  0
    0.7145  -11.1375    0.0000 C   0  0  0  0  0  0  0  0  0  0  0  0
    2.1434  -11.1375    0.0000 C   0  0  0  0  0  0  0  0  0  0  0  0
    3.5724  -12.7875    0.0000 C   0  0  0  0  0  0  0  0  0  0  0  0
    2.8579  -14.0250    0.0000 C   0  0  0  0  0  0  0  0  0  0  0  0
   -0.0000   -7.4250    0.0000 C   0  0  0  0  0  0  0  0  0  0  0  0
    1.4289   -4.1250    0.0000 C   0  0  0  0  0  0  0  0  0  0  0  0
    0.7145   -0.4125    0.0000 C   0  0  0  0  0  0  0  0  0  0  0  0
    1.4289   -6.6000    0.0000 C   0  0  0  0  0  0  0  0  0  0  0  0
   -0.0000   -4.9500    0.0000 C   0  0  0  0  0  0  0  0  0  0  0  0
    2.8579   -0.0000    0.0000 C   0  0  0  0  0  0  0  0  0  0  0  0
    3.5724   -1.2375    0.0000 C   0  0  0  0  0  0  0  0  0  0  0  0
    4.2868  -14.0250    0.0000 C   0  0  0  0  0  0  0  0  0  0  0  0
    1.4289   -7.4250    0.0000 C   0  0  0  0  0  0  0  0  0  0  0  0
   -0.0000   -4.1250    0.0000 C   0  0  0  0  0  0  0  0  0  0  0  0
    0.7145   -6.1875    0.0000 C   0  0  0  0  0  0  0  0  0  0  0  0
    0.7145   -5.3625    0.0000 C   0  0  0  0  0  0  0  0  0  0  0  0
    2.1434   -0.4125    0.0000 C   0  0  0  0  0  0  0  0  0  0  0  0
    1.4289   -9.9000    0.0000 C   0  0  0  0  0  0  0  0  0  0  0  0
    1.4289  -11.5500    0.0000 C   0  0  0  0  0  0  0  0  0  0  0  0
    2.8579  -13.2000    0.0000 C   0  0  0  0  0  0  0  0  0  0  0  0
    3.5724   -0.4125    0.0000 C   0  0  0  0  0  0  0  0  0  0  0  0
    0.7145   -7.8375    0.0000 C   0  0  0  0  0  0  0  0  0  0  0  0
    0.7145   -3.7125    0.0000 C   0  0  0  0  0  0  0  0  0  0  0  0
    0.7145   -1.2375    0.0000 C   0  0  0  0  0  0  0  0  0  0  0  0
    2.8579   -1.6500    0.0000 C   0  0  0  0  0  0  0  0  0  0  0  0
    2.1434   -1.2375    0.0000 C   0  0  0  0  0  0  0  0  0  0  0  0
    1.4289   -1.6500    0.0000 C   0  0  0  0  0  0  0  0  0  0  0  0
    1.4289   -9.0750    0.0000 N   0  0  0  0  0  0  0  0  0  0  0  0
    0.7145   -8.6625    0.0000 N   0  0  0  0  0  0  0  0  0  0  0  0
    0.7145   -2.8875    0.0000 N   0  0  0  0  0  0  0  0  0  0  0  0
    1.4289   -2.4750    0.0000 N   0  0  0  0  0  0  0  0  0  0  0  0
   -0.0000   -1.6500    0.0000 O   0  0  0  0  0  0  0  0  0  0  0  0
    5.0013    0.4125    0.0000 O   0  0  0  0  0  0  0  0  0  0  0  0
    4.6993   -0.7145    0.0000 O   0  0  0  0  0  0  0  0  0  0  0  0
    3.8743    0.7145    0.0000 O   0  0  0  0  0  0  0  0  0  0  0  0
    2.8579   -3.3000    0.0000 O   0  0  0  0  0  0  0  0  0  0  0  0
    2.0329   -2.4750    0.0000 O   0  0  0  0  0  0  0  0  0  0  0  0
    3.6829   -2.4750    0.0000 O   0  0  0  0  0  0  0  0  0  0  0  0
    2.5559  -12.0730    0.0000 O   0  0  0  0  0  0  0  0  0  0  0  0
    1.7309  -13.5020    0.0000 O   0  0  0  0  0  0  0  0  0  0  0  0
    1.4289  -12.3750    0.0000 O   0  0  0  0  0  0  0  0  0  0  0  0
    4.2868    0.0000    0.0000 S   0  0  0  0  0  0  0  0  0  0  0  0
    2.8579   -2.4750    0.0000 S   0  0  0  0  0  0  0  0  0  0  0  0
    2.1434  -12.7875    0.0000 S   0  0  0  0  0  0  0  0  0  0  0  0
 11  9  1  0  0  0  0
 12 10  2  0  0  0  0
 13  4  1  0  0  0  0
 14  5  2  0  0  0  0
 15  6  1  0  0  0  0
 16  7  1  0  0  0  0
 17  8  2  0  0  0  0
 22  1  1  0  0  0  0
 22  4  2  0  0  0  0
 22  5  1  0  0  0  0
 23  2  1  0  0  0  0
 23 18  2  0  0  0  0
 24  3  1  0  0  0  0
 24 19  2  0  0  0  0
 25  6  2  0  0  0  0
 25 18  1  0  0  0  0
 26  7  2  0  0  0  0
 26 19  1  0  0  0  0
 26 25  1  0  0  0  0
 27  8  1  0  0  0  0
 27 20  2  0  0  0  0
 28  9  2  0  0  0  0
 28 10  1  0  0  0  0
 29 11  2  0  0  0  0
 29 12  1  0  0  0  0
 30 13  2  0  0  0  0
 30 14  1  0  0  0  0
 31 20  1  0  0  0  0
 31 21  2  0  0  0  0
 32 15  2  0  0  0  0
 32 23  1  0  0  0  0
 33 16  2  0  0  0  0
 33 24  1  0  0  0  0
 34 17  1  0  0  0  0
 35 21  1  0  0  0  0
 36 27  1  0  0  0  0
 36 35  2  0  0  0  0
 37 34  2  0  0  0  0
 37 36  1  0  0  0  0
 38 28  1  0  0  0  0
 39 32  1  0  0  0  0
 39 38  2  0  0  0  0
 40 33  1  0  0  0  0
 41 37  1  0  0  0  0
 41 40  2  0  0  0  0
 42 34  1  0  0  0  0
 51 29  1  0  0  0  0
 52 31  1  0  0  0  0
 52 43  1  0  0  0  0
 52 44  2  0  0  0  0
 52 45  2  0  0  0  0
 53 35  1  0  0  0  0
 53 46  1  0  0  0  0
 53 47  2  0  0  0  0
 53 48  2  0  0  0  0
 54 30  1  0  0  0  0
 54 49  2  0  0  0  0
 54 50  2  0  0  0  0
 54 51  1  0  0  0  0
M  END