217
  Mrv0541 07281413492D          

 21 21  0  0  0  0            999 V2000
    2.1434   -0.4125    0.0000 C   0  0  0  0  0  0  0  0  0  0  0  0
    2.7009    3.4516    0.0000 C   0  0  0  0  0  0  0  0  0  0  0  0
    1.5852    3.1105    0.0000 C   0  0  0  0  0  0  0  0  0  0  0  0
    3.0420    2.3358    0.0000 C   0  0  0  0  0  0  0  0  0  0  0  0
   -0.0103    4.1224    0.0000 C   0  0  0  0  0  0  0  0  0  0  0  0
    1.1055    3.7813    0.0000 C   0  0  0  0  0  0  0  0  0  0  0  0
   -0.3514    3.0067    0.0000 C   0  0  0  0  0  0  0  0  0  0  0  0
   -0.2822   -0.7752    0.0000 C   0  0  0  0  0  0  0  0  0  0  0  0
   -0.8125    0.1433    0.0000 C   0  0  0  0  0  0  0  0  0  0  0  0
    0.7145   -0.4125    0.0000 C   0  0  0  0  0  0  0  0  0  0  0  0
    1.4289    0.8250    0.0000 C   0  0  0  0  0  0  0  0  0  0  0  0
   -0.0000    0.8250    0.0000 C   0  0  0  0  0  0  0  0  0  0  0  0
    1.4289   -0.0000    0.0000 C   0  0  0  0  0  0  0  0  0  0  0  0
    2.3136    2.7232    0.0000 C   0  0  0  0  0  0  0  0  0  0  0  0
    0.3770    3.3940    0.0000 C   0  0  0  0  0  0  0  0  0  0  0  0
   -0.0000   -0.0000    0.0000 C   0  0  0  0  0  0  0  0  0  0  0  0
    0.7145    1.2375    0.0000 C   0  0  0  0  0  0  0  0  0  0  0  0
    1.9263    1.9947    0.0000 O   0  0  0  0  0  0  0  0  0  0  0  0
    0.7643    2.6656    0.0000 O   0  0  0  0  0  0  0  0  0  0  0  0
    1.1018    1.9659    0.0000 O   0  0  0  0  0  0  0  0  0  0  0  0
    0.3272    1.9659    0.0000 O   0  0  0  0  0  0  0  0  0  0  0  0
 13  1  1  0  0  0  0
 13 10  1  0  0  0  0
 13 11  1  0  0  0  0
 14  2  1  0  0  0  0
 14  3  1  0  0  0  0
 14  4  1  0  0  0  0
 15  5  1  0  0  0  0
 15  6  1  0  0  0  0
 15  7  1  0  0  0  0
 16  8  1  0  0  0  0
 16  9  1  0  0  0  0
 16 10  1  0  0  0  0
 16 12  1  0  0  0  0
 17 11  1  0  0  0  0
 17 12  1  0  0  0  0
 18 14  1  0  0  0  0
 19 15  1  0  0  0  0
 20 17  1  0  0  0  0
 20 18  1  0  0  0  0
 21 17  1  0  0  0  0
 21 19  1  0  0  0  0
M  END