220
  Mrv0541 07281413492D          

 13 13  0  0  0  0            999 V2000
   -0.7145    3.7125    0.0000 C   0  0  0  0  0  0  0  0  0  0  0  0
    1.2375    3.1895    0.0000 C   0  0  0  0  0  0  0  0  0  0  0  0
    0.7145   -0.4125    0.0000 C   0  0  0  0  0  0  0  0  0  0  0  0
    1.4289   -0.0000    0.0000 C   0  0  0  0  0  0  0  0  0  0  0  0
   -0.0000   -0.0000    0.0000 C   0  0  0  0  0  0  0  0  0  0  0  0
    1.4289    0.8250    0.0000 C   0  0  0  0  0  0  0  0  0  0  0  0
   -0.0000    0.8250    0.0000 C   0  0  0  0  0  0  0  0  0  0  0  0
    0.7145    1.2375    0.0000 C   0  0  0  0  0  0  0  0  0  0  0  0
   -0.4125    1.7605    0.0000 O   0  0  0  0  0  0  0  0  0  0  0  0
   -0.7145    2.8875    0.0000 O   0  0  0  0  0  0  0  0  0  0  0  0
    0.4125    3.1895    0.0000 O   0  0  0  0  0  0  0  0  0  0  0  0
    0.7145    2.0625    0.0000 O   0  0  0  0  0  0  0  0  0  0  0  0
   -0.0000    2.4750    0.0000 P   0  0  0  0  0  0  0  0  0  0  0  0
  4  3  2  0  0  0  0
  5  3  1  0  0  0  0
  6  4  1  0  0  0  0
  7  5  2  0  0  0  0
  8  6  2  0  0  0  0
  8  7  1  0  0  0  0
 10  1  1  0  0  0  0
 11  2  1  0  0  0  0
 12  8  1  0  0  0  0
 13  9  2  0  0  0  0
 13 10  1  0  0  0  0
 13 11  1  0  0  0  0
 13 12  1  0  0  0  0
M  END