222
  Mrv0541 07281413492D          

 23 26  0  0  0  0            999 V2000
    4.9886   -3.3565    0.0000 C   0  0  0  0  0  0  0  0  0  0  0  0
    5.4011   -2.6420    0.0000 C   0  0  0  0  0  0  0  0  0  0  0  0
   -0.7145   -0.4125    0.0000 C   0  0  0  0  0  0  0  0  0  0  0  0
   -0.7145   -1.2375    0.0000 C   0  0  0  0  0  0  0  0  0  0  0  0
    4.1636   -3.3565    0.0000 C   0  0  0  0  0  0  0  0  0  0  0  0
    4.9886   -1.9275    0.0000 C   0  0  0  0  0  0  0  0  0  0  0  0
    0.0000   -0.0000    0.0000 C   0  0  0  0  0  0  0  0  0  0  0  0
   -0.0000   -1.6500    0.0000 C   0  0  0  0  0  0  0  0  0  0  0  0
    3.7511   -2.6420    0.0000 C   0  0  0  0  0  0  0  0  0  0  0  0
    4.1636   -1.9275    0.0000 C   0  0  0  0  0  0  0  0  0  0  0  0
    0.7145   -0.4125    0.0000 C   0  0  0  0  0  0  0  0  0  0  0  0
    0.7145   -1.2375    0.0000 C   0  0  0  0  0  0  0  0  0  0  0  0
    2.8579   -1.6500    0.0000 C   0  0  0  0  0  0  0  0  0  0  0  0
    1.4289   -0.0000    0.0000 C   0  0  0  0  0  0  0  0  0  0  0  0
    2.1434   -1.2375    0.0000 C   0  0  0  0  0  0  0  0  0  0  0  0
    2.9441   -2.4705    0.0000 C   0  0  0  0  0  0  0  0  0  0  0  0
    3.6116   -1.3144    0.0000 C   0  0  0  0  0  0  0  0  0  0  0  0
    2.1434   -0.4125    0.0000 C   0  0  0  0  0  0  0  0  0  0  0  0
    1.4289    0.8250    0.0000 Br  0  0  0  0  0  0  0  0  0  0  0  0
    1.4289   -1.6500    0.0000 N   0  0  0  0  0  0  0  0  0  0  0  0
    2.3310   -3.0225    0.0000 O   0  0  0  0  0  0  0  0  0  0  0  0
    3.7831   -0.5075    0.0000 O   0  0  0  0  0  0  0  0  0  0  0  0
    2.8579   -0.0000    0.0000 O   0  0  0  0  0  0  0  0  0  0  0  0
  2  1  2  0  0  0  0
  4  3  2  0  0  0  0
  5  1  1  0  0  0  0
  6  2  1  0  0  0  0
  7  3  1  0  0  0  0
  8  4  1  0  0  0  0
  9  5  2  0  0  0  0
 10  6  2  0  0  0  0
 10  9  1  0  0  0  0
 11  7  2  0  0  0  0
 12  8  2  0  0  0  0
 12 11  1  0  0  0  0
 14 11  1  0  0  0  0
 15 13  1  0  0  0  0
 16  9  1  0  0  0  0
 16 13  1  0  0  0  0
 17 10  1  0  0  0  0
 17 13  1  0  0  0  0
 18 14  2  0  0  0  0
 18 15  1  0  0  0  0
 19 14  1  0  0  0  0
 20 12  1  0  0  0  0
 20 15  2  0  0  0  0
 21 16  2  0  0  0  0
 22 17  2  0  0  0  0
 23 18  1  0  0  0  0
M  END