232
  Mrv0541 07281413492D          

 11 10  0  0  0  0            999 V2000
    2.7599   -0.8053    0.0000 C   0  0  0  0  0  0  0  0  0  0  0  0
    8.1608   -2.6762    0.0000 C   0  0  0  0  0  0  0  0  0  0  0  0
    7.8908   -1.2730    0.0000 C   0  0  0  0  0  0  0  0  0  0  0  0
    3.3000   -1.4289    0.0000 C   0  0  0  0  0  0  0  0  0  0  0  0
    7.3507   -2.8321    0.0000 C   0  0  0  0  0  0  0  0  0  0  0  0
    7.0806   -1.4289    0.0000 C   0  0  0  0  0  0  0  0  0  0  0  0
    4.1101   -1.2730    0.0000 C   0  0  0  0  0  0  0  0  0  0  0  0
    4.6502   -1.8967    0.0000 C   0  0  0  0  0  0  0  0  0  0  0  0
    5.4604   -1.7408    0.0000 C   0  0  0  0  0  0  0  0  0  0  0  0
    6.0004   -2.3644    0.0000 C   0  0  0  0  0  0  0  0  0  0  0  0
    6.8106   -2.2085    0.0000 C   0  0  0  0  0  0  0  0  0  0  0  0
  4  1  1  0  0  0  0
  5  2  1  0  0  0  0
  6  3  1  0  0  0  0
  7  4  1  0  0  0  0
  8  7  1  0  0  0  0
  9  8  1  0  0  0  0
 10  9  1  0  0  0  0
 11  5  1  0  0  0  0
 11  6  1  0  0  0  0
 11 10  1  0  0  0  0
M  END