237
  Mrv0541 07281413492D          

 32 32  0  0  0  0            999 V2000
   18.5762   -5.7750    0.0000 C   0  0  0  0  0  0  0  0  0  0  0  0
   19.2907   -4.5375    0.0000 C   0  0  0  0  0  0  0  0  0  0  0  0
    6.4302    1.2375    0.0000 C   0  0  0  0  0  0  0  0  0  0  0  0
    7.1447    2.4750    0.0000 C   0  0  0  0  0  0  0  0  0  0  0  0
   17.1473   -2.4750    0.0000 C   0  0  0  0  0  0  0  0  0  0  0  0
   10.0026    1.6500    0.0000 C   0  0  0  0  0  0  0  0  0  0  0  0
   17.1473   -3.3000    0.0000 C   0  0  0  0  0  0  0  0  0  0  0  0
    9.2881    1.2375    0.0000 C   0  0  0  0  0  0  0  0  0  0  0  0
   16.4328   -2.0625    0.0000 C   0  0  0  0  0  0  0  0  0  0  0  0
   10.7171    1.2375    0.0000 C   0  0  0  0  0  0  0  0  0  0  0  0
   17.8618   -3.7125    0.0000 C   0  0  0  0  0  0  0  0  0  0  0  0
    8.5737    1.6500    0.0000 C   0  0  0  0  0  0  0  0  0  0  0  0
   15.7184    2.4750    0.0000 C   0  0  0  0  0  0  0  0  0  0  0  0
   15.0039    2.8875    0.0000 C   0  0  0  0  0  0  0  0  0  0  0  0
   16.4328   -1.2375    0.0000 C   0  0  0  0  0  0  0  0  0  0  0  0
   11.4315    1.6500    0.0000 C   0  0  0  0  0  0  0  0  0  0  0  0
   17.8618   -4.5375    0.0000 C   0  0  0  0  0  0  0  0  0  0  0  0
    7.8592    1.2375    0.0000 C   0  0  0  0  0  0  0  0  0  0  0  0
   15.7184    1.6500    0.0000 C   0  0  0  0  0  0  0  0  0  0  0  0
   14.2894    2.4750    0.0000 C   0  0  0  0  0  0  0  0  0  0  0  0
   15.7184   -0.8250    0.0000 C   0  0  0  0  0  0  0  0  0  0  0  0
   12.1460    1.2375    0.0000 C   0  0  0  0  0  0  0  0  0  0  0  0
   18.5762   -4.9500    0.0000 C   0  0  0  0  0  0  0  0  0  0  0  0
    7.1447    1.6500    0.0000 C   0  0  0  0  0  0  0  0  0  0  0  0
   15.0039    1.2375    0.0000 C   0  0  0  0  0  0  0  0  0  0  0  0
   14.2894    1.6500    0.0000 C   0  0  0  0  0  0  0  0  0  0  0  0
   15.0039    0.4125    0.0000 C   0  0  0  0  0  0  0  0  0  0  0  0
   13.5749    1.2375    0.0000 C   0  0  0  0  0  0  0  0  0  0  0  0
   14.2894   -0.0000    0.0000 O   0  0  0  0  0  0  0  0  0  0  0  0
   13.5749    0.4125    0.0000 O   0  0  0  0  0  0  0  0  0  0  0  0
   15.7184   -0.0000    0.0000 O   0  0  0  0  0  0  0  0  0  0  0  0
   12.8605    1.6500    0.0000 O   0  0  0  0  0  0  0  0  0  0  0  0
  7  5  1  0  0  0  0
  8  6  1  0  0  0  0
  9  5  1  0  0  0  0
 10  6  1  0  0  0  0
 11  7  1  0  0  0  0
 12  8  1  0  0  0  0
 14 13  2  0  0  0  0
 15  9  1  0  0  0  0
 16 10  1  0  0  0  0
 17 11  1  0  0  0  0
 18 12  1  0  0  0  0
 19 13  1  0  0  0  0
 20 14  1  0  0  0  0
 21 15  1  0  0  0  0
 22 16  1  0  0  0  0
 23  1  1  0  0  0  0
 23  2  1  0  0  0  0
 23 17  1  0  0  0  0
 24  3  1  0  0  0  0
 24  4  1  0  0  0  0
 24 18  1  0  0  0  0
 25 19  2  0  0  0  0
 26 20  2  0  0  0  0
 26 25  1  0  0  0  0
 27 25  1  0  0  0  0
 28 26  1  0  0  0  0
 29 27  2  0  0  0  0
 30 28  2  0  0  0  0
 31 21  1  0  0  0  0
 31 27  1  0  0  0  0
 32 22  1  0  0  0  0
 32 28  1  0  0  0  0
M  END