248
  Mrv0541 07281413492D          

 33 35  0  0  0  0            999 V2000
    0.6632    4.9500    0.0000 C   0  0  0  0  0  0  0  0  0  0  0  0
    0.2507    5.6645    0.0000 C   0  0  0  0  0  0  0  0  0  0  0  0
    0.2507    4.2355    0.0000 C   0  0  0  0  0  0  0  0  0  0  0  0
   -4.2868    4.9500    0.0000 C   0  0  0  0  0  0  0  0  0  0  0  0
   -0.5743    5.6645    0.0000 C   0  0  0  0  0  0  0  0  0  0  0  0
   -0.5743    4.2355    0.0000 C   0  0  0  0  0  0  0  0  0  0  0  0
   -5.9368    7.8079    0.0000 C   0  0  0  0  0  0  0  0  0  0  0  0
   -4.6993    8.5224    0.0000 C   0  0  0  0  0  0  0  0  0  0  0  0
   -5.5243   11.3802    0.0000 C   0  0  0  0  0  0  0  0  0  0  0  0
   -6.7618   10.6658    0.0000 C   0  0  0  0  0  0  0  0  0  0  0  0
   -5.5243    7.0934    0.0000 C   0  0  0  0  0  0  0  0  0  0  0  0
   -4.2868    7.8079    0.0000 C   0  0  0  0  0  0  0  0  0  0  0  0
   -5.9368   12.0947    0.0000 C   0  0  0  0  0  0  0  0  0  0  0  0
   -7.1743   11.3802    0.0000 C   0  0  0  0  0  0  0  0  0  0  0  0
   -4.6993    4.2355    0.0000 C   0  0  0  0  0  0  0  0  0  0  0  0
   -4.6993    5.6645    0.0000 C   0  0  0  0  0  0  0  0  0  0  0  0
   -3.4618    6.3789    0.0000 C   0  0  0  0  0  0  0  0  0  0  0  0
   -3.0493    5.6645    0.0000 C   0  0  0  0  0  0  0  0  0  0  0  0
   -0.9868    4.9500    0.0000 C   0  0  0  0  0  0  0  0  0  0  0  0
   -5.5243    8.5224    0.0000 C   0  0  0  0  0  0  0  0  0  0  0  0
   -5.9368   10.6658    0.0000 C   0  0  0  0  0  0  0  0  0  0  0  0
   -4.6993    7.0934    0.0000 C   0  0  0  0  0  0  0  0  0  0  0  0
   -6.7618   12.0947    0.0000 C   0  0  0  0  0  0  0  0  0  0  0  0
   -1.8118    4.9500    0.0000 C   0  0  0  0  0  0  0  0  0  0  0  0
   -5.1118    3.5211    0.0000 N   0  0  0  0  0  0  0  0  0  0  0  0
   -5.9368    9.2368    0.0000 N   0  0  0  0  0  0  0  0  0  0  0  0
   -5.5243    9.9513    0.0000 N   0  0  0  0  0  0  0  0  0  0  0  0
   -4.2868    6.3789    0.0000 N   0  0  0  0  0  0  0  0  0  0  0  0
   -7.1743   12.8092    0.0000 N   0  0  0  0  0  0  0  0  0  0  0  0
   -2.2243    4.2355    0.0000 O   0  0  0  0  0  0  0  0  0  0  0  0
   -7.9993   12.8092    0.0000 O   0  0  0  0  0  0  0  0  0  0  0  0
   -6.7618   13.5237    0.0000 O   0  0  0  0  0  0  0  0  0  0  0  0
   -2.2243    5.6645    0.0000 O   0  0  0  0  0  0  0  0  0  0  0  0
  2  1  2  0  0  0  0
  3  1  1  0  0  0  0
  5  2  1  0  0  0  0
  6  3  2  0  0  0  0
 11  7  1  0  0  0  0
 12  8  2  0  0  0  0
 13  9  1  0  0  0  0
 14 10  2  0  0  0  0
 15  4  1  0  0  0  0
 16  4  1  0  0  0  0
 18 17  1  0  0  0  0
 19  5  2  0  0  0  0
 19  6  1  0  0  0  0
 20  7  2  0  0  0  0
 20  8  1  0  0  0  0
 21  9  2  0  0  0  0
 21 10  1  0  0  0  0
 22 11  2  0  0  0  0
 22 12  1  0  0  0  0
 23 13  2  0  0  0  0
 23 14  1  0  0  0  0
 24 19  1  0  0  0  0
 25 15  3  0  0  0  0
 26 20  1  0  0  0  0
 27 21  1  0  0  0  0
 27 26  2  0  0  0  0
 28 16  1  0  0  0  0
 28 17  1  0  0  0  0
 28 22  1  0  0  0  0
 29 23  1  0  0  0  0
 30 24  2  0  0  0  0
 31 29  2  0  0  0  0
 32 29  2  0  0  0  0
 33 18  1  0  0  0  0
 33 24  1  0  0  0  0
M  END