251
  Mrv0541 07281413492D          

 24 24  0  0  0  0            999 V2000
   -5.7158    9.0750    0.0000 C   0  0  0  0  0  0  0  0  0  0  0  0
   -5.0013    8.6625    0.0000 C   0  0  0  0  0  0  0  0  0  0  0  0
   -4.2868    9.0750    0.0000 C   0  0  0  0  0  0  0  0  0  0  0  0
   -3.5724    8.6625    0.0000 C   0  0  0  0  0  0  0  0  0  0  0  0
   -2.8579    9.0750    0.0000 C   0  0  0  0  0  0  0  0  0  0  0  0
   -2.1434    8.6625    0.0000 C   0  0  0  0  0  0  0  0  0  0  0  0
   -1.4289    9.0750    0.0000 C   0  0  0  0  0  0  0  0  0  0  0  0
   -0.7145    8.6625    0.0000 C   0  0  0  0  0  0  0  0  0  0  0  0
   -0.0000    9.0750    0.0000 C   0  0  0  0  0  0  0  0  0  0  0  0
    0.7145    8.6625    0.0000 C   0  0  0  0  0  0  0  0  0  0  0  0
    1.4289    9.0750    0.0000 C   0  0  0  0  0  0  0  0  0  0  0  0
    2.1434    8.6625    0.0000 C   0  0  0  0  0  0  0  0  0  0  0  0
    2.8579    9.0750    0.0000 C   0  0  0  0  0  0  0  0  0  0  0  0
    3.5724    8.6625    0.0000 C   0  0  0  0  0  0  0  0  0  0  0  0
    5.0013    8.6625    0.0000 C   0  0  0  0  0  0  0  0  0  0  0  0
    4.2868    9.9000    0.0000 C   0  0  0  0  0  0  0  0  0  0  0  0
    5.7158    9.0750    0.0000 C   0  0  0  0  0  0  0  0  0  0  0  0
    5.0013   10.3125    0.0000 C   0  0  0  0  0  0  0  0  0  0  0  0
    4.2868    9.0750    0.0000 C   0  0  0  0  0  0  0  0  0  0  0  0
    5.7158    9.9000    0.0000 C   0  0  0  0  0  0  0  0  0  0  0  0
    7.1447   10.7250    0.0000 O   0  0  0  0  0  0  0  0  0  0  0  0
    6.8427    9.5980    0.0000 O   0  0  0  0  0  0  0  0  0  0  0  0
    6.0177   11.0270    0.0000 O   0  0  0  0  0  0  0  0  0  0  0  0
    6.4302   10.3125    0.0000 S   0  0  0  0  0  0  0  0  0  0  0  0
  2  1  1  0  0  0  0
  3  2  1  0  0  0  0
  4  3  1  0  0  0  0
  5  4  1  0  0  0  0
  6  5  1  0  0  0  0
  7  6  1  0  0  0  0
  8  7  1  0  0  0  0
  9  8  1  0  0  0  0
 10  9  1  0  0  0  0
 11 10  1  0  0  0  0
 12 11  1  0  0  0  0
 13 12  1  0  0  0  0
 14 13  1  0  0  0  0
 17 15  1  0  0  0  0
 18 16  2  0  0  0  0
 19 14  1  0  0  0  0
 19 15  2  0  0  0  0
 19 16  1  0  0  0  0
 20 17  2  0  0  0  0
 20 18  1  0  0  0  0
 24 20  1  0  0  0  0
 24 21  1  0  0  0  0
 24 22  2  0  0  0  0
 24 23  2  0  0  0  0
M  END