252
  Mrv0541 07281413492D          

 66 72  0  0  0  0            999 V2000
    9.2881   -5.3625    0.0000 C   0  0  0  0  0  0  0  0  0  0  0  0
    3.5724   -0.4125    0.0000 C   0  0  0  0  0  0  0  0  0  0  0  0
    9.2881  -10.3125    0.0000 C   0  0  0  0  0  0  0  0  0  0  0  0
   -0.7145    2.0625    0.0000 C   0  0  0  0  0  0  0  0  0  0  0  0
    8.5737   -9.9000    0.0000 C   0  0  0  0  0  0  0  0  0  0  0  0
    0.0000    2.4750    0.0000 C   0  0  0  0  0  0  0  0  0  0  0  0
   10.0026   -9.9000    0.0000 C   0  0  0  0  0  0  0  0  0  0  0  0
   -0.7145    1.2375    0.0000 C   0  0  0  0  0  0  0  0  0  0  0  0
    7.1447   -4.1250    0.0000 C   0  0  0  0  0  0  0  0  0  0  0  0
    5.7158    0.8250    0.0000 C   0  0  0  0  0  0  0  0  0  0  0  0
    7.1447   -4.9500    0.0000 C   0  0  0  0  0  0  0  0  0  0  0  0
    5.0013    1.2375    0.0000 C   0  0  0  0  0  0  0  0  0  0  0  0
    4.2868   -2.4750    0.0000 C   0  0  0  0  0  0  0  0  0  0  0  0
    3.5724   -2.8875    0.0000 C   0  0  0  0  0  0  0  0  0  0  0  0
    8.5737   -4.1250    0.0000 C   0  0  0  0  0  0  0  0  0  0  0  0
    5.0013   -0.4125    0.0000 C   0  0  0  0  0  0  0  0  0  0  0  0
    9.2881   -7.8375    0.0000 C   0  0  0  0  0  0  0  0  0  0  0  0
    1.4289    0.8250    0.0000 C   0  0  0  0  0  0  0  0  0  0  0  0
    7.8592   -7.8375    0.0000 C   0  0  0  0  0  0  0  0  0  0  0  0
    2.1434    2.0625    0.0000 C   0  0  0  0  0  0  0  0  0  0  0  0
    8.5737   -4.9500    0.0000 C   0  0  0  0  0  0  0  0  0  0  0  0
    4.2868    0.0000    0.0000 C   0  0  0  0  0  0  0  0  0  0  0  0
    7.8592   -3.7125    0.0000 C   0  0  0  0  0  0  0  0  0  0  0  0
    5.7158    0.0000    0.0000 C   0  0  0  0  0  0  0  0  0  0  0  0
    8.5737   -7.4250    0.0000 C   0  0  0  0  0  0  0  0  0  0  0  0
    2.1434    1.2375    0.0000 C   0  0  0  0  0  0  0  0  0  0  0  0
    8.5737   -9.0750    0.0000 C   0  0  0  0  0  0  0  0  0  0  0  0
    0.7145    2.0625    0.0000 C   0  0  0  0  0  0  0  0  0  0  0  0
    9.2881   -8.6625    0.0000 C   0  0  0  0  0  0  0  0  0  0  0  0
    0.7145    1.2375    0.0000 C   0  0  0  0  0  0  0  0  0  0  0  0
    7.8592   -5.3625    0.0000 C   0  0  0  0  0  0  0  0  0  0  0  0
    4.2868    0.8250    0.0000 C   0  0  0  0  0  0  0  0  0  0  0  0
   10.0026   -9.0750    0.0000 C   0  0  0  0  0  0  0  0  0  0  0  0
    0.0000    0.8250    0.0000 C   0  0  0  0  0  0  0  0  0  0  0  0
    7.8592   -8.6625    0.0000 C   0  0  0  0  0  0  0  0  0  0  0  0
    1.4289    2.4750    0.0000 C   0  0  0  0  0  0  0  0  0  0  0  0
    5.7158   -2.4750    0.0000 C   0  0  0  0  0  0  0  0  0  0  0  0
    7.1447   -2.4750    0.0000 C   0  0  0  0  0  0  0  0  0  0  0  0
    6.4302   -1.2375    0.0000 C   0  0  0  0  0  0  0  0  0  0  0  0
    5.0013   -2.8875    0.0000 N   0  0  0  0  0  0  0  0  0  0  0  0
    7.8592   -2.8875    0.0000 N   0  0  0  0  0  0  0  0  0  0  0  0
    6.4302   -0.4125    0.0000 N   0  0  0  0  0  0  0  0  0  0  0  0
    6.4302   -2.8875    0.0000 N   0  0  0  0  0  0  0  0  0  0  0  0
    5.7158   -1.6500    0.0000 N   0  0  0  0  0  0  0  0  0  0  0  0
    7.1447   -1.6500    0.0000 N   0  0  0  0  0  0  0  0  0  0  0  0
    8.5737   -6.6000    0.0000 N   0  0  0  0  0  0  0  0  0  0  0  0
    2.8579    0.8250    0.0000 N   0  0  0  0  0  0  0  0  0  0  0  0
    7.8592   -6.1875    0.0000 N   0  0  0  0  0  0  0  0  0  0  0  0
    3.5724    1.2375    0.0000 N   0  0  0  0  0  0  0  0  0  0  0  0
    2.8579   -2.4750    0.0000 O   0  0  0  0  0  0  0  0  0  0  0  0
   11.4315   -8.2500    0.0000 O   0  0  0  0  0  0  0  0  0  0  0  0
   10.3046   -7.9480    0.0000 O   0  0  0  0  0  0  0  0  0  0  0  0
   11.1296   -9.3770    0.0000 O   0  0  0  0  0  0  0  0  0  0  0  0
    0.0000   -0.8250    0.0000 O   0  0  0  0  0  0  0  0  0  0  0  0
    0.8250    0.0000    0.0000 O   0  0  0  0  0  0  0  0  0  0  0  0
   -0.8250    0.0000    0.0000 O   0  0  0  0  0  0  0  0  0  0  0  0
    6.4302   -9.4875    0.0000 O   0  0  0  0  0  0  0  0  0  0  0  0
    7.5572   -9.7895    0.0000 O   0  0  0  0  0  0  0  0  0  0  0  0
    6.7322   -8.3605    0.0000 O   0  0  0  0  0  0  0  0  0  0  0  0
    1.4289    4.1250    0.0000 O   0  0  0  0  0  0  0  0  0  0  0  0
    0.6039    3.3000    0.0000 O   0  0  0  0  0  0  0  0  0  0  0  0
    2.2539    3.3000    0.0000 O   0  0  0  0  0  0  0  0  0  0  0  0
   10.7171   -8.6625    0.0000 S   0  0  0  0  0  0  0  0  0  0  0  0
    0.0000    0.0000    0.0000 S   0  0  0  0  0  0  0  0  0  0  0  0
    7.1447   -9.0750    0.0000 S   0  0  0  0  0  0  0  0  0  0  0  0
    1.4289    3.3000    0.0000 S   0  0  0  0  0  0  0  0  0  0  0  0
  5  3  2  0  0  0  0
  6  4  2  0  0  0  0
  7  3  1  0  0  0  0
  8  4  1  0  0  0  0
 11  9  1  0  0  0  0
 12 10  1  0  0  0  0
 14 13  1  0  0  0  0
 21  1  1  0  0  0  0
 21 15  2  0  0  0  0
 22  2  1  0  0  0  0
 22 16  2  0  0  0  0
 23  9  2  0  0  0  0
 23 15  1  0  0  0  0
 24 10  2  0  0  0  0
 24 16  1  0  0  0  0
 25 17  2  0  0  0  0
 25 19  1  0  0  0  0
 26 18  2  0  0  0  0
 26 20  1  0  0  0  0
 27  5  1  0  0  0  0
 28  6  1  0  0  0  0
 29 17  1  0  0  0  0
 29 27  2  0  0  0  0
 30 18  1  0  0  0  0
 30 28  2  0  0  0  0
 31 11  2  0  0  0  0
 31 21  1  0  0  0  0
 32 12  2  0  0  0  0
 32 22  1  0  0  0  0
 33  7  2  0  0  0  0
 33 29  1  0  0  0  0
 34  8  2  0  0  0  0
 34 30  1  0  0  0  0
 35 19  2  0  0  0  0
 35 27  1  0  0  0  0
 36 20  2  0  0  0  0
 36 28  1  0  0  0  0
 40 13  1  0  0  0  0
 40 37  2  0  0  0  0
 41 23  1  0  0  0  0
 41 38  1  0  0  0  0
 42 24  1  0  0  0  0
 42 39  1  0  0  0  0
 43 37  1  0  0  0  0
 43 38  2  0  0  0  0
 44 37  1  0  0  0  0
 44 39  2  0  0  0  0
 45 38  1  0  0  0  0
 45 39  1  0  0  0  0
 46 25  1  0  0  0  0
 47 26  1  0  0  0  0
 48 31  1  0  0  0  0
 48 46  2  0  0  0  0
 49 32  1  0  0  0  0
 49 47  2  0  0  0  0
 50 14  1  0  0  0  0
 63 33  1  0  0  0  0
 63 51  1  0  0  0  0
 63 52  2  0  0  0  0
 63 53  2  0  0  0  0
 64 34  1  0  0  0  0
 64 54  1  0  0  0  0
 64 55  2  0  0  0  0
 64 56  2  0  0  0  0
 65 35  1  0  0  0  0
 65 57  1  0  0  0  0
 65 58  2  0  0  0  0
 65 59  2  0  0  0  0
 66 36  1  0  0  0  0
 66 60  1  0  0  0  0
 66 61  2  0  0  0  0
 66 62  2  0  0  0  0
M  END