257
  Mrv0541 07281413492D          

 29 30  0  0  0  0            999 V2000
   -7.7984    1.9718    0.0000 C   0  0  0  0  0  0  0  0  0  0  0  0
   -7.1447    2.4750    0.0000 C   0  0  0  0  0  0  0  0  0  0  0  0
   -6.3820    2.1605    0.0000 C   0  0  0  0  0  0  0  0  0  0  0  0
   -5.7283    2.6637    0.0000 C   0  0  0  0  0  0  0  0  0  0  0  0
   -4.9656    2.3492    0.0000 C   0  0  0  0  0  0  0  0  0  0  0  0
   -4.3119    2.8524    0.0000 C   0  0  0  0  0  0  0  0  0  0  0  0
   -3.5492    2.5379    0.0000 C   0  0  0  0  0  0  0  0  0  0  0  0
   -2.8954    3.0412    0.0000 C   0  0  0  0  0  0  0  0  0  0  0  0
   -2.1327    2.7266    0.0000 C   0  0  0  0  0  0  0  0  0  0  0  0
   -1.4790    3.2299    0.0000 C   0  0  0  0  0  0  0  0  0  0  0  0
   -0.7163    2.9153    0.0000 C   0  0  0  0  0  0  0  0  0  0  0  0
    5.0583    2.8524    0.0000 C   0  0  0  0  0  0  0  0  0  0  0  0
    0.2643    0.9653    0.0000 C   0  0  0  0  0  0  0  0  0  0  0  0
    4.9494    3.6702    0.0000 C   0  0  0  0  0  0  0  0  0  0  0  0
    4.4046    2.3492    0.0000 C   0  0  0  0  0  0  0  0  0  0  0  0
    1.0270    0.6507    0.0000 C   0  0  0  0  0  0  0  0  0  0  0  0
    0.1553    1.7830    0.0000 C   0  0  0  0  0  0  0  0  0  0  0  0
   -0.0626    3.4186    0.0000 C   0  0  0  0  0  0  0  0  0  0  0  0
    4.1867    3.9847    0.0000 C   0  0  0  0  0  0  0  0  0  0  0  0
    3.6419    2.6637    0.0000 C   0  0  0  0  0  0  0  0  0  0  0  0
    1.6807    1.1540    0.0000 C   0  0  0  0  0  0  0  0  0  0  0  0
    0.8091    2.2863    0.0000 C   0  0  0  0  0  0  0  0  0  0  0  0
    0.7001    3.1041    0.0000 C   0  0  0  0  0  0  0  0  0  0  0  0
    3.5330    3.4815    0.0000 C   0  0  0  0  0  0  0  0  0  0  0  0
    1.5718    1.9718    0.0000 C   0  0  0  0  0  0  0  0  0  0  0  0
    1.3538    3.6073    0.0000 O   0  0  0  0  0  0  0  0  0  0  0  0
    2.7703    3.7960    0.0000 O   0  0  0  0  0  0  0  0  0  0  0  0
    2.2255    2.4750    0.0000 O   0  0  0  0  0  0  0  0  0  0  0  0
    2.1165    3.2928    0.0000 P   0  0  0  0  0  0  0  0  0  0  0  0
  2  1  1  0  0  0  0
  3  2  1  0  0  0  0
  4  3  1  0  0  0  0
  5  4  1  0  0  0  0
  6  5  1  0  0  0  0
  7  6  1  0  0  0  0
  8  7  1  0  0  0  0
  9  8  1  0  0  0  0
 10  9  1  0  0  0  0
 11 10  1  0  0  0  0
 14 12  2  0  0  0  0
 15 12  1  0  0  0  0
 16 13  2  0  0  0  0
 17 13  1  0  0  0  0
 18 11  1  0  0  0  0
 19 14  1  0  0  0  0
 20 15  2  0  0  0  0
 21 16  1  0  0  0  0
 22 17  2  0  0  0  0
 23 18  1  0  0  0  0
 24 19  2  0  0  0  0
 24 20  1  0  0  0  0
 25 21  2  0  0  0  0
 25 22  1  0  0  0  0
 26 23  1  0  0  0  0
 27 24  1  0  0  0  0
 28 25  1  0  0  0  0
 29 26  1  0  0  0  0
 29 27  1  0  0  0  0
 29 28  1  0  0  0  0
M  END