259
  Mrv0541 07281413492D          

 15 17  0  0  0  0            999 V2000
    2.4820    0.2719    0.0000 C   0  0  0  0  0  0  0  0  0  0  0  0
    3.2890    0.4434    0.0000 C   0  0  0  0  0  0  0  0  0  0  0  0
    2.2271   -0.5127    0.0000 C   0  0  0  0  0  0  0  0  0  0  0  0
    6.0250    0.2719    0.0000 C   0  0  0  0  0  0  0  0  0  0  0  0
    5.2180    0.4434    0.0000 C   0  0  0  0  0  0  0  0  0  0  0  0
    5.7279   -1.1258    0.0000 C   0  0  0  0  0  0  0  0  0  0  0  0
    6.2800   -0.5127    0.0000 C   0  0  0  0  0  0  0  0  0  0  0  0
    4.6660   -0.1696    0.0000 C   0  0  0  0  0  0  0  0  0  0  0  0
    3.8410   -0.1696    0.0000 C   0  0  0  0  0  0  0  0  0  0  0  0
    2.7791   -1.1258    0.0000 C   0  0  0  0  0  0  0  0  0  0  0  0
    4.9210   -0.9543    0.0000 C   0  0  0  0  0  0  0  0  0  0  0  0
    3.5861   -0.9543    0.0000 C   0  0  0  0  0  0  0  0  0  0  0  0
    7.0869   -0.6842    0.0000 Cl  0  0  0  0  0  0  0  0  0  0  0  0
    2.5242   -1.9104    0.0000 Cl  0  0  0  0  0  0  0  0  0  0  0  0
    4.2535   -1.4392    0.0000 O   0  0  0  0  0  0  0  0  0  0  0  0
  2  1  2  0  0  0  0
  3  1  1  0  0  0  0
  5  4  2  0  0  0  0
  7  4  1  0  0  0  0
  7  6  2  0  0  0  0
  8  5  1  0  0  0  0
  9  2  1  0  0  0  0
  9  8  1  0  0  0  0
 10  3  2  0  0  0  0
 11  6  1  0  0  0  0
 11  8  2  0  0  0  0
 12  9  2  0  0  0  0
 12 10  1  0  0  0  0
 13  7  1  0  0  0  0
 14 10  1  0  0  0  0
 15 11  1  0  0  0  0
 15 12  1  0  0  0  0
M  END