261
  Mrv0541 07281413492D          

 24 25  0  0  0  0            999 V2000
    0.0000    2.4750    0.0000 C   0  0  0  0  0  0  0  0  0  0  0  0
    1.4289    0.8250    0.0000 C   0  0  0  0  0  0  0  0  0  0  0  0
    1.4289    2.4750    0.0000 C   0  0  0  0  0  0  0  0  0  0  0  0
    0.0000    0.8250    0.0000 C   0  0  0  0  0  0  0  0  0  0  0  0
    0.7145    2.0625    0.0000 C   0  0  0  0  0  0  0  0  0  0  0  0
    0.7145    1.2375    0.0000 C   0  0  0  0  0  0  0  0  0  0  0  0
   -0.0000    3.3000    0.0000 C   0  0  0  0  0  0  0  0  0  0  0  0
    1.4289    0.0000    0.0000 C   0  0  0  0  0  0  0  0  0  0  0  0
    1.4289    3.3000    0.0000 C   0  0  0  0  0  0  0  0  0  0  0  0
    0.0000   -0.0000    0.0000 C   0  0  0  0  0  0  0  0  0  0  0  0
    0.7145    3.7125    0.0000 C   0  0  0  0  0  0  0  0  0  0  0  0
    0.7145   -0.4125    0.0000 C   0  0  0  0  0  0  0  0  0  0  0  0
   -0.7145    3.7125    0.0000 Cl  0  0  0  0  0  0  0  0  0  0  0  0
    2.1434   -0.4125    0.0000 Cl  0  0  0  0  0  0  0  0  0  0  0  0
    0.7145    4.5375    0.0000 N   0  0  0  0  0  0  0  0  0  0  0  0
    0.7145   -1.2375    0.0000 N   0  0  0  0  0  0  0  0  0  0  0  0
    2.8579    4.1250    0.0000 O   0  0  0  0  0  0  0  0  0  0  0  0
    1.7309    4.4270    0.0000 O   0  0  0  0  0  0  0  0  0  0  0  0
    2.5559    2.9980    0.0000 O   0  0  0  0  0  0  0  0  0  0  0  0
   -1.4289   -0.8250    0.0000 O   0  0  0  0  0  0  0  0  0  0  0  0
   -0.3020   -1.1270    0.0000 O   0  0  0  0  0  0  0  0  0  0  0  0
   -1.1270    0.3020    0.0000 O   0  0  0  0  0  0  0  0  0  0  0  0
    2.1434    3.7125    0.0000 S   0  0  0  0  0  0  0  0  0  0  0  0
   -0.7145   -0.4125    0.0000 S   0  0  0  0  0  0  0  0  0  0  0  0
  5  1  2  0  0  0  0
  5  3  1  0  0  0  0
  6  2  2  0  0  0  0
  6  4  1  0  0  0  0
  6  5  1  0  0  0  0
  7  1  1  0  0  0  0
  8  2  1  0  0  0  0
  9  3  2  0  0  0  0
 10  4  2  0  0  0  0
 11  7  2  0  0  0  0
 11  9  1  0  0  0  0
 12  8  2  0  0  0  0
 12 10  1  0  0  0  0
 13  7  1  0  0  0  0
 14  8  1  0  0  0  0
 15 11  1  0  0  0  0
 16 12  1  0  0  0  0
 23  9  1  0  0  0  0
 23 17  1  0  0  0  0
 23 18  2  0  0  0  0
 23 19  2  0  0  0  0
 24 10  1  0  0  0  0
 24 20  1  0  0  0  0
 24 21  2  0  0  0  0
 24 22  2  0  0  0  0
M  END