266
  Mrv0541 07281413492D          

 24 26  0  0  0  0            999 V2000
   -2.2337   -0.6205    0.0000 C   0  0  0  0  0  0  0  0  0  0  0  0
   -1.1067   -0.3185    0.0000 C   0  0  0  0  0  0  0  0  0  0  0  0
   -2.5357    0.5065    0.0000 C   0  0  0  0  0  0  0  0  0  0  0  0
   -2.2337    3.6664    0.0000 C   0  0  0  0  0  0  0  0  0  0  0  0
   -1.1067    3.3644    0.0000 C   0  0  0  0  0  0  0  0  0  0  0  0
   -2.5357    2.5394    0.0000 C   0  0  0  0  0  0  0  0  0  0  0  0
    3.3523    1.1104    0.0000 C   0  0  0  0  0  0  0  0  0  0  0  0
    3.3523    1.9354    0.0000 C   0  0  0  0  0  0  0  0  0  0  0  0
    2.6378    0.6979    0.0000 C   0  0  0  0  0  0  0  0  0  0  0  0
    2.6378    2.3479    0.0000 C   0  0  0  0  0  0  0  0  0  0  0  0
   -1.8212    1.5229    0.0000 C   0  0  0  0  0  0  0  0  0  0  0  0
   -0.5837    0.8085    0.0000 C   0  0  0  0  0  0  0  0  0  0  0  0
   -1.4087    0.8085    0.0000 C   0  0  0  0  0  0  0  0  0  0  0  0
   -1.4087    2.2374    0.0000 C   0  0  0  0  0  0  0  0  0  0  0  0
    1.9233    1.1104    0.0000 C   0  0  0  0  0  0  0  0  0  0  0  0
    1.9233    1.9354    0.0000 C   0  0  0  0  0  0  0  0  0  0  0  0
   -0.1712    1.5229    0.0000 C   0  0  0  0  0  0  0  0  0  0  0  0
   -0.5837    2.2374    0.0000 C   0  0  0  0  0  0  0  0  0  0  0  0
   -1.8212    0.0940    0.0000 C   0  0  0  0  0  0  0  0  0  0  0  0
   -1.8212    2.9519    0.0000 C   0  0  0  0  0  0  0  0  0  0  0  0
    1.1387    0.8555    0.0000 N   0  0  0  0  0  0  0  0  0  0  0  0
    1.1387    2.1904    0.0000 N   0  0  0  0  0  0  0  0  0  0  0  0
    0.6538    1.5229    0.0000 N   0  0  0  0  0  0  0  0  0  0  0  0
   -0.1712    2.9519    0.0000 O   0  0  0  0  0  0  0  0  0  0  0  0
  8  7  1  0  0  0  0
  9  7  2  0  0  0  0
 10  8  2  0  0  0  0
 13 11  2  0  0  0  0
 13 12  1  0  0  0  0
 14 11  1  0  0  0  0
 15  9  1  0  0  0  0
 16 10  1  0  0  0  0
 16 15  1  0  0  0  0
 17 12  2  0  0  0  0
 18 14  2  0  0  0  0
 18 17  1  0  0  0  0
 19  1  1  0  0  0  0
 19  2  1  0  0  0  0
 19  3  1  0  0  0  0
 19 13  1  0  0  0  0
 20  4  1  0  0  0  0
 20  5  1  0  0  0  0
 20  6  1  0  0  0  0
 20 14  1  0  0  0  0
 21 15  2  0  0  0  0
 22 16  2  0  0  0  0
 23 17  1  0  0  0  0
 23 21  1  0  0  0  0
 23 22  1  0  0  0  0
 24 18  1  0  0  0  0
M  END