274
  Mrv0541 07281413492D          

 43 45  0  0  1  0            999 V2000
    5.3313   -2.0698    0.0000 C   0  0  0  0  0  0  0  0  0  0  0  0
    4.0673   -2.0698    0.0000 C   0  0  0  0  0  0  0  0  0  0  0  0
   -2.8579   -1.6500    0.0000 C   0  0  0  0  0  0  0  0  0  0  0  0
   -2.1434   -2.0625    0.0000 C   0  0  0  0  0  0  0  0  0  0  0  0
   -2.8579   -0.8250    0.0000 C   0  0  0  0  0  0  0  0  0  0  0  0
    0.7145   -2.0625    0.0000 C   0  0  0  0  0  0  0  0  0  0  0  0
    1.4289   -1.6500    0.0000 C   0  0  0  0  0  0  0  0  0  0  0  0
   -1.4289   -1.6500    0.0000 C   0  0  0  0  0  0  0  0  0  0  0  0
   -2.1434   -0.4125    0.0000 C   0  0  0  0  0  0  0  0  0  0  0  0
    0.0000   -1.6500    0.0000 C   0  0  0  0  0  0  0  0  0  0  0  0
    5.8263   -0.4125    0.0000 C   0  0  0  0  0  0  0  0  0  0  0  0
    5.8263    0.4125    0.0000 C   0  0  0  0  0  0  0  0  0  0  0  0
    0.7145   -0.4125    0.0000 C   0  0  0  0  0  0  0  0  0  0  0  0
    2.1434    0.4125    0.0000 C   0  0  0  0  0  0  0  0  0  0  0  0
    1.4289   -0.8250    0.0000 C   0  0  0  0  0  0  0  0  0  0  0  0
   -1.4289   -0.8250    0.0000 C   0  0  0  0  0  0  0  0  0  0  0  0
   -0.0000   -0.8250    0.0000 C   0  0  0  0  0  0  0  0  0  0  0  0
    5.1118   -0.8250    0.0000 C   0  0  1  0  0  0  0  0  0  0  0  0
    2.1434   -0.4125    0.0000 C   0  0  2  0  0  0  0  0  0  0  0  0
    5.1118    0.8250    0.0000 C   0  0  0  0  0  0  0  0  0  0  0  0
    4.2868   -0.8250    0.0000 C   0  0  1  0  0  0  0  0  0  0  0  0
    3.5724   -0.4125    0.0000 C   0  0  0  0  0  0  0  0  0  0  0  0
    4.3974    2.0625    0.0000 C   0  0  0  0  0  0  0  0  0  0  0  0
    4.6993   -1.5395    0.0000 C   0  0  0  0  0  0  0  0  0  0  0  0
    3.6829    1.6500    0.0000 C   0  0  0  0  0  0  0  0  0  0  0  0
    4.3974    2.8875    0.0000 C   0  0  0  0  0  0  0  0  0  0  0  0
    2.9684    1.2375    0.0000 F   0  0  0  0  0  0  0  0  0  0  0  0
    3.2704    2.3645    0.0000 F   0  0  0  0  0  0  0  0  0  0  0  0
    4.0954    0.9355    0.0000 F   0  0  0  0  0  0  0  0  0  0  0  0
    4.3974    3.7125    0.0000 F   0  0  0  0  0  0  0  0  0  0  0  0
    5.2224    2.8875    0.0000 F   0  0  0  0  0  0  0  0  0  0  0  0
    3.5724    2.8875    0.0000 F   0  0  0  0  0  0  0  0  0  0  0  0
    2.1434    1.2375    0.0000 N   0  0  0  0  0  0  0  0  0  0  0  0
    4.3974    0.4125    0.0000 O   0  0  0  0  0  0  0  0  0  0  0  0
    3.5724    0.4125    0.0000 O   0  0  0  0  0  0  0  0  0  0  0  0
   -0.7145   -0.4125    0.0000 O   0  0  0  0  0  0  0  0  0  0  0  0
    2.8579   -0.8250    0.0000 O   0  0  0  0  0  0  0  0  0  0  0  0
    5.1118    1.6500    0.0000 O   0  0  0  0  0  0  0  0  0  0  0  0
    6.5408   -0.8250    0.0000 H   0  0  0  0  0  0  0  0  0  0  0  0
    6.5408    0.8250    0.0000 H   0  0  0  0  0  0  0  0  0  0  0  0
    4.8983   -0.0281    0.0000 H   0  0  0  0  0  0  0  0  0  0  0  0
    1.4289   -0.0000    0.0000 H   0  0  0  0  0  0  0  0  0  0  0  0
    4.5004   -0.0281    0.0000 H   0  0  0  0  0  0  0  0  0  0  0  0
  4  3  2  0  0  0  0
  5  3  1  0  0  0  0
  7  6  2  0  0  0  0
  8  4  1  0  0  0  0
  9  5  2  0  0  0  0
 10  6  1  0  0  0  0
 12 11  2  0  0  0  0
 15  7  1  0  0  0  0
 15 13  2  0  0  0  0
 16  8  2  0  0  0  0
 16  9  1  0  0  0  0
 17 10  2  0  0  0  0
 17 13  1  0  0  0  0
 18 11  1  6  0  0  0
 19 14  1  0  0  0  0
 19 15  1  0  0  0  0
 20 12  1  0  0  0  0
 21 18  1  0  0  0  0
 21 22  1  6  0  0  0
 24  1  1  0  0  0  0
 24  2  1  0  0  0  0
 24 18  1  0  0  0  0
 24 21  1  0  0  0  0
 25 23  1  0  0  0  0
 26 23  1  0  0  0  0
 27 25  1  0  0  0  0
 28 25  1  0  0  0  0
 29 25  1  0  0  0  0
 30 26  1  0  0  0  0
 31 26  1  0  0  0  0
 32 26  1  0  0  0  0
 33 14  3  0  0  0  0
 34 20  2  0  0  0  0
 35 22  2  0  0  0  0
 36 16  1  0  0  0  0
 36 17  1  0  0  0  0
 19 37  1  6  0  0  0
 37 22  1  0  0  0  0
 38 20  1  0  0  0  0
 38 23  1  0  0  0  0
 39 11  1  0  0  0  0
 40 12  1  0  0  0  0
 18 41  1  1  0  0  0
 19 42  1  6  0  0  0
 21 43  1  1  0  0  0
M  END