279
  Mrv0541 07281413492D          

 32 33  0  0  0  0            999 V2000
   -2.8579    2.4750    0.0000 C   0  0  0  0  0  0  0  0  0  0  0  0
   -2.8579    3.3000    0.0000 C   0  0  0  0  0  0  0  0  0  0  0  0
   -3.5724    2.0625    0.0000 C   0  0  0  0  0  0  0  0  0  0  0  0
   -7.1447    5.7750    0.0000 C   0  0  0  0  0  0  0  0  0  0  0  0
   -8.5737    4.9500    0.0000 C   0  0  0  0  0  0  0  0  0  0  0  0
   -7.8592    4.5375    0.0000 C   0  0  0  0  0  0  0  0  0  0  0  0
   -7.8592    6.1875    0.0000 C   0  0  0  0  0  0  0  0  0  0  0  0
   -3.5724    3.7125    0.0000 C   0  0  0  0  0  0  0  0  0  0  0  0
   -4.2868    2.4750    0.0000 C   0  0  0  0  0  0  0  0  0  0  0  0
   -7.1447    4.9500    0.0000 C   0  0  0  0  0  0  0  0  0  0  0  0
   -8.5737    5.7750    0.0000 C   0  0  0  0  0  0  0  0  0  0  0  0
   -4.2868    3.3000    0.0000 C   0  0  0  0  0  0  0  0  0  0  0  0
   -5.0013    3.7125    0.0000 C   0  0  0  0  0  0  0  0  0  0  0  0
   -9.2881    7.8375    0.0000 C   0  0  0  0  0  0  0  0  0  0  0  0
   -5.7158    4.9500    0.0000 C   0  0  0  0  0  0  0  0  0  0  0  0
  -10.0026    8.2500    0.0000 C   0  0  0  0  0  0  0  0  0  0  0  0
   -9.2881    7.0125    0.0000 C   0  0  0  0  0  0  0  0  0  0  0  0
   -7.8592    3.7125    0.0000 Cl  0  0  0  0  0  0  0  0  0  0  0  0
   -7.8592    7.0125    0.0000 Cl  0  0  0  0  0  0  0  0  0  0  0  0
   -3.5724    4.5375    0.0000 F   0  0  0  0  0  0  0  0  0  0  0  0
   -5.0013    2.0625    0.0000 F   0  0  0  0  0  0  0  0  0  0  0  0
   -8.5737    8.2500    0.0000 F   0  0  0  0  0  0  0  0  0  0  0  0
  -10.7171    8.6625    0.0000 F   0  0  0  0  0  0  0  0  0  0  0  0
   -9.5901    8.9645    0.0000 F   0  0  0  0  0  0  0  0  0  0  0  0
  -10.4151    7.5355    0.0000 F   0  0  0  0  0  0  0  0  0  0  0  0
   -8.4631    7.0125    0.0000 F   0  0  0  0  0  0  0  0  0  0  0  0
  -10.1131    7.0125    0.0000 F   0  0  0  0  0  0  0  0  0  0  0  0
   -6.4302    4.5375    0.0000 N   0  0  0  0  0  0  0  0  0  0  0  0
   -5.0013    4.5375    0.0000 N   0  0  0  0  0  0  0  0  0  0  0  0
   -5.7158    3.3000    0.0000 O   0  0  0  0  0  0  0  0  0  0  0  0
   -5.7158    5.7750    0.0000 O   0  0  0  0  0  0  0  0  0  0  0  0
   -9.2881    6.1875    0.0000 O   0  0  0  0  0  0  0  0  0  0  0  0
  2  1  2  0  0  0  0
  3  1  1  0  0  0  0
  6  5  1  0  0  0  0
  7  4  2  0  0  0  0
  8  2  1  0  0  0  0
  9  3  2  0  0  0  0
 10  4  1  0  0  0  0
 10  6  2  0  0  0  0
 11  5  2  0  0  0  0
 11  7  1  0  0  0  0
 12  8  2  0  0  0  0
 12  9  1  0  0  0  0
 13 12  1  0  0  0  0
 16 14  1  0  0  0  0
 17 14  1  0  0  0  0
 18  6  1  0  0  0  0
 19  7  1  0  0  0  0
 20  8  1  0  0  0  0
 21  9  1  0  0  0  0
 22 14  1  0  0  0  0
 23 16  1  0  0  0  0
 24 16  1  0  0  0  0
 25 16  1  0  0  0  0
 26 17  1  0  0  0  0
 27 17  1  0  0  0  0
 28 10  1  0  0  0  0
 28 15  1  0  0  0  0
 29 13  2  0  0  0  0
 29 15  1  4  0  0  0
 30 13  1  0  0  0  0
 31 15  2  0  0  0  0
 32 11  1  0  0  0  0
 32 17  1  0  0  0  0
M  END