282
  Mrv0541 07281413492D          

 25 24  0  0  0  0            999 V2000
   -7.2632   -7.1447    0.0000 C   0  0  0  0  0  0  0  0  0  0  0  0
   -1.5474   -7.1447    0.0000 C   0  0  0  0  0  0  0  0  0  0  0  0
   -7.9776   -6.7322    0.0000 C   0  0  0  0  0  0  0  0  0  0  0  0
   -0.8329   -6.7322    0.0000 C   0  0  0  0  0  0  0  0  0  0  0  0
   -6.5487   -6.7322    0.0000 C   0  0  0  0  0  0  0  0  0  0  0  0
   -2.2619   -6.7322    0.0000 C   0  0  0  0  0  0  0  0  0  0  0  0
   -8.6921   -7.1447    0.0000 C   0  0  0  0  0  0  0  0  0  0  0  0
   -0.1185   -7.1447    0.0000 C   0  0  0  0  0  0  0  0  0  0  0  0
   -5.8342   -7.1447    0.0000 C   0  0  0  0  0  0  0  0  0  0  0  0
   -2.9763   -7.1447    0.0000 C   0  0  0  0  0  0  0  0  0  0  0  0
   -9.4066   -6.7322    0.0000 C   0  0  0  0  0  0  0  0  0  0  0  0
    0.5960   -6.7322    0.0000 C   0  0  0  0  0  0  0  0  0  0  0  0
   -5.1198   -6.7322    0.0000 C   0  0  0  0  0  0  0  0  0  0  0  0
   -3.6908   -6.7322    0.0000 C   0  0  0  0  0  0  0  0  0  0  0  0
  -10.1211   -7.1447    0.0000 C   0  0  0  0  0  0  0  0  0  0  0  0
    1.3105   -7.1447    0.0000 C   0  0  0  0  0  0  0  0  0  0  0  0
  -11.5500   -7.1447    0.0000 C   0  0  0  0  0  0  0  0  0  0  0  0
    2.7394   -7.1447    0.0000 C   0  0  0  0  0  0  0  0  0  0  0  0
  -12.2645   -6.7322    0.0000 N   0  0  0  0  0  0  0  0  0  0  0  0
  -11.5500   -7.9697    0.0000 N   0  0  0  0  0  0  0  0  0  0  0  0
    3.4539   -6.7322    0.0000 N   0  0  0  0  0  0  0  0  0  0  0  0
    2.7394   -7.9697    0.0000 N   0  0  0  0  0  0  0  0  0  0  0  0
   -4.4053   -7.1447    0.0000 N   0  0  0  0  0  0  0  0  0  0  0  0
  -10.8355   -6.7322    0.0000 N   0  0  0  0  0  0  0  0  0  0  0  0
    2.0249   -6.7322    0.0000 N   0  0  0  0  0  0  0  0  0  0  0  0
  3  1  1  0  0  0  0
  4  2  1  0  0  0  0
  5  1  1  0  0  0  0
  6  2  1  0  0  0  0
  7  3  1  0  0  0  0
  8  4  1  0  0  0  0
  9  5  1  0  0  0  0
 10  6  1  0  0  0  0
 11  7  1  0  0  0  0
 12  8  1  0  0  0  0
 13  9  1  0  0  0  0
 14 10  1  0  0  0  0
 15 11  1  0  0  0  0
 16 12  1  0  0  0  0
 19 17  2  0  0  0  0
 20 17  1  0  0  0  0
 21 18  2  0  0  0  0
 22 18  1  0  0  0  0
 23 13  1  0  0  0  0
 23 14  1  0  0  0  0
 24 15  1  0  0  0  0
 24 17  1  0  0  0  0
 25 16  1  0  0  0  0
 25 18  1  0  0  0  0
M  END