287
  Mrv0541 07281413492D          

 21 21  0  0  0  0            999 V2000
    3.8551    1.4289    0.0000 C   0  0  0  0  0  0  0  0  0  0  0  0
   11.0886    1.3239    0.0000 C   0  0  0  0  0  0  0  0  0  0  0  0
   10.3543    0.4172    0.0000 C   0  0  0  0  0  0  0  0  0  0  0  0
   10.1819    2.0581    0.0000 C   0  0  0  0  0  0  0  0  0  0  0  0
    8.5712   -1.0055    0.0000 C   0  0  0  0  0  0  0  0  0  0  0  0
    7.1735   -1.3026    0.0000 C   0  0  0  0  0  0  0  0  0  0  0  0
    4.5695    1.8414    0.0000 C   0  0  0  0  0  0  0  0  0  0  0  0
    6.7130    1.4289    0.0000 C   0  0  0  0  0  0  0  0  0  0  0  0
    5.9985    1.8414    0.0000 C   0  0  0  0  0  0  0  0  0  0  0  0
    9.4476    1.1514    0.0000 C   0  0  0  0  0  0  0  0  0  0  0  0
    8.1419    1.4289    0.0000 C   0  0  0  0  0  0  0  0  0  0  0  0
    7.6150    0.0564    0.0000 C   0  0  0  0  0  0  0  0  0  0  0  0
   10.2681    1.2376    0.0000 C   0  0  0  0  0  0  0  0  0  0  0  0
    8.8956    1.7645    0.0000 N   0  0  0  0  0  0  0  0  0  0  0  0
    9.0351    0.4369    0.0000 N   0  0  0  0  0  0  0  0  0  0  0  0
    7.7866   -0.7505    0.0000 N   0  0  0  0  0  0  0  0  0  0  0  0
    8.2281    0.6085    0.0000 N   0  0  0  0  0  0  0  0  0  0  0  0
    5.9985    2.6664    0.0000 O   0  0  0  0  0  0  0  0  0  0  0  0
    6.8304    0.3114    0.0000 O   0  0  0  0  0  0  0  0  0  0  0  0
    5.2840    1.4289    0.0000 O   0  0  0  0  0  0  0  0  0  0  0  0
    7.4274    1.8414    0.0000 S   0  0  0  0  0  0  0  0  0  0  0  0
  7  1  1  0  0  0  0
  9  8  1  0  0  0  0
 13  2  1  0  0  0  0
 13  3  1  0  0  0  0
 13  4  1  0  0  0  0
 13 10  1  0  0  0  0
 14 10  1  0  0  0  0
 14 11  2  0  0  0  0
 15 10  2  0  0  0  0
 16  5  1  0  0  0  0
 16  6  1  0  0  0  0
 16 12  1  0  0  0  0
 17 11  1  0  0  0  0
 17 12  1  0  0  0  0
 17 15  1  0  0  0  0
 18  9  2  0  0  0  0
 19 12  2  0  0  0  0
 20  7  1  0  0  0  0
 20  9  1  0  0  0  0
 21  8  1  0  0  0  0
 21 11  1  0  0  0  0
M  END