288
  Mrv0541 07281413492D          

 23 24  0  0  0  0            999 V2000
   -1.3222   -1.7116    0.0000 C   0  0  0  0  0  0  0  0  0  0  0  0
   -0.6078   -1.2991    0.0000 C   0  0  0  0  0  0  0  0  0  0  0  0
   -2.0367   -0.4741    0.0000 C   0  0  0  0  0  0  0  0  0  0  0  0
    0.8212   -0.4741    0.0000 C   0  0  0  0  0  0  0  0  0  0  0  0
    0.1067    0.7634    0.0000 C   0  0  0  0  0  0  0  0  0  0  0  0
    0.4087   -2.5687    0.0000 C   0  0  0  0  0  0  0  0  0  0  0  0
    1.4886   -1.7840    0.0000 C   0  0  0  0  0  0  0  0  0  0  0  0
    0.1067   -0.0616    0.0000 C   0  0  0  0  0  0  0  0  0  0  0  0
   -2.0367   -1.2991    0.0000 C   0  0  0  0  0  0  0  0  0  0  0  0
   -0.6078   -0.4741    0.0000 C   0  0  0  0  0  0  0  0  0  0  0  0
   -1.3222   -0.0616    0.0000 C   0  0  0  0  0  0  0  0  0  0  0  0
   -0.6078    2.8259    0.0000 C   0  0  0  0  0  0  0  0  0  0  0  0
   -0.6078    2.0009    0.0000 C   0  0  0  0  0  0  0  0  0  0  0  0
   -2.7512   -1.7116    0.0000 Cl  0  0  0  0  0  0  0  0  0  0  0  0
   -1.3222    0.7634    0.0000 Cl  0  0  0  0  0  0  0  0  0  0  0  0
   -1.3222    3.2384    0.0000 F   0  0  0  0  0  0  0  0  0  0  0  0
    0.1067    3.2384    0.0000 F   0  0  0  0  0  0  0  0  0  0  0  0
    0.2172    2.0009    0.0000 F   0  0  0  0  0  0  0  0  0  0  0  0
   -1.4328    2.0009    0.0000 F   0  0  0  0  0  0  0  0  0  0  0  0
    1.2337   -2.5687    0.0000 N   0  0  0  0  0  0  0  0  0  0  0  0
    0.1537   -1.7840    0.0000 N   0  0  0  0  0  0  0  0  0  0  0  0
    0.8212   -1.2991    0.0000 N   0  0  0  0  0  0  0  0  0  0  0  0
   -0.6078    1.1759    0.0000 O   0  0  0  0  0  0  0  0  0  0  0  0
  2  1  2  0  0  0  0
  8  4  1  0  0  0  0
  8  5  1  0  0  0  0
  9  1  1  0  0  0  0
  9  3  2  0  0  0  0
 10  2  1  0  0  0  0
 10  8  1  0  0  0  0
 11  3  1  0  0  0  0
 11 10  2  0  0  0  0
 13 12  1  0  0  0  0
 14  9  1  0  0  0  0
 15 11  1  0  0  0  0
 16 12  1  0  0  0  0
 17 12  1  0  0  0  0
 18 13  1  0  0  0  0
 19 13  1  0  0  0  0
 20  6  1  0  0  0  0
 20  7  2  0  0  0  0
 21  6  2  0  0  0  0
 22  4  1  0  0  0  0
 22  7  1  0  0  0  0
 22 21  1  0  0  0  0
 23  5  1  0  0  0  0
 23 13  1  0  0  0  0
M  END