291
  Mrv0541 07281413492D          

 24 26  0  0  0  0            999 V2000
    1.0334    7.2722    0.0000 C   0  0  0  0  0  0  0  0  0  0  0  0
    0.2084    7.2722    0.0000 C   0  0  0  0  0  0  0  0  0  0  0  0
    1.4459    6.5577    0.0000 C   0  0  0  0  0  0  0  0  0  0  0  0
   -0.2041    6.5577    0.0000 C   0  0  0  0  0  0  0  0  0  0  0  0
    1.0334    5.8432    0.0000 C   0  0  0  0  0  0  0  0  0  0  0  0
   -2.6791    3.6998    0.0000 C   0  0  0  0  0  0  0  0  0  0  0  0
   -1.4416    2.9853    0.0000 C   0  0  0  0  0  0  0  0  0  0  0  0
   -3.0916    2.9853    0.0000 C   0  0  0  0  0  0  0  0  0  0  0  0
   -1.8541    2.2709    0.0000 C   0  0  0  0  0  0  0  0  0  0  0  0
   -1.4416    4.4143    0.0000 C   0  0  0  0  0  0  0  0  0  0  0  0
   -0.6166    4.4143    0.0000 C   0  0  0  0  0  0  0  0  0  0  0  0
   -0.9186    5.5413    0.0000 C   0  0  0  0  0  0  0  0  0  0  0  0
    0.5103    4.7163    0.0000 C   0  0  0  0  0  0  0  0  0  0  0  0
    0.0978    2.6217    0.0000 C   0  0  0  0  0  0  0  0  0  0  0  0
    1.1778    3.4063    0.0000 C   0  0  0  0  0  0  0  0  0  0  0  0
   -1.8541    3.6998    0.0000 C   0  0  0  0  0  0  0  0  0  0  0  0
    0.2084    5.8432    0.0000 C   0  0  0  0  0  0  0  0  0  0  0  0
   -2.6791    2.2709    0.0000 C   0  0  0  0  0  0  0  0  0  0  0  0
   -0.2041    5.1288    0.0000 C   0  0  0  0  0  0  0  0  0  0  0  0
   -3.0916    1.5564    0.0000 Cl  0  0  0  0  0  0  0  0  0  0  0  0
   -1.6331    5.9538    0.0000 N   0  0  0  0  0  0  0  0  0  0  0  0
    0.9228    2.6217    0.0000 N   0  0  0  0  0  0  0  0  0  0  0  0
   -0.1571    3.4063    0.0000 N   0  0  0  0  0  0  0  0  0  0  0  0
    0.5103    3.8913    0.0000 N   0  0  0  0  0  0  0  0  0  0  0  0
  2  1  2  0  0  0  0
  3  1  1  0  0  0  0
  4  2  1  0  0  0  0
  5  3  2  0  0  0  0
  8  6  1  0  0  0  0
  9  7  2  0  0  0  0
 11 10  1  0  0  0  0
 16  6  2  0  0  0  0
 16  7  1  0  0  0  0
 16 10  1  0  0  0  0
 17  4  2  0  0  0  0
 17  5  1  0  0  0  0
 18  8  2  0  0  0  0
 18  9  1  0  0  0  0
 19 11  1  0  0  0  0
 19 12  1  0  0  0  0
 19 13  1  0  0  0  0
 19 17  1  0  0  0  0
 20 18  1  0  0  0  0
 21 12  3  0  0  0  0
 22 14  1  0  0  0  0
 22 15  2  0  0  0  0
 23 14  2  0  0  0  0
 24 13  1  0  0  0  0
 24 15  1  0  0  0  0
 24 23  1  0  0  0  0
M  END