292
  Mrv0541 07281413492D          

 19 21  0  0  0  0            999 V2000
    0.1849   -0.6374    0.0000 C   0  0  0  0  0  0  0  0  0  0  0  0
   -0.7123   -2.2596    0.0000 C   0  0  0  0  0  0  0  0  0  0  0  0
    0.5004   -1.3997    0.0000 C   0  0  0  0  0  0  0  0  0  0  0  0
    0.1011   -2.1216    0.0000 C   0  0  0  0  0  0  0  0  0  0  0  0
    1.9362   -1.4148    0.0000 C   0  0  0  0  0  0  0  0  0  0  0  0
    1.6411   -2.0402    0.0000 C   0  0  0  0  0  0  0  0  0  0  0  0
    1.1407   -0.9495    0.0000 C   0  0  0  0  0  0  0  0  0  0  0  0
    0.9106   -1.6699    0.0000 C   0  0  0  0  0  0  0  0  0  0  0  0
    0.9807   -0.1341    0.0000 C   0  0  0  0  0  0  0  0  0  0  0  0
    2.7243   -1.1707    0.0000 Cl  0  0  0  0  0  0  0  0  0  0  0  0
    1.9087   -2.8206    0.0000 Cl  0  0  0  0  0  0  0  0  0  0  0  0
    1.3626   -0.1549    0.0000 Cl  0  0  0  0  0  0  0  0  0  0  0  0
    0.9270   -2.4947    0.0000 Cl  0  0  0  0  0  0  0  0  0  0  0  0
    1.4674    0.5320    0.0000 Cl  0  0  0  0  0  0  0  0  0  0  0  0
    0.4010    0.4529    0.0000 Cl  0  0  0  0  0  0  0  0  0  0  0  0
   -2.0027   -0.4867    0.0000 O   0  0  0  0  0  0  0  0  0  0  0  0
   -0.6078   -0.4088    0.0000 O   0  0  0  0  0  0  0  0  0  0  0  0
   -1.3273   -1.7097    0.0000 O   0  0  0  0  0  0  0  0  0  0  0  0
   -1.2808   -0.8860    0.0000 S   0  0  0  0  0  0  0  0  0  0  0  0
  3  1  1  0  0  0  0
  4  2  1  0  0  0  0
  4  3  1  0  0  0  0
  6  5  2  0  0  0  0
  7  3  1  0  0  0  0
  7  5  1  0  0  0  0
  8  4  1  0  0  0  0
  8  6  1  0  0  0  0
  9  7  1  0  0  0  0
  9  8  1  0  0  0  0
 10  5  1  0  0  0  0
 11  6  1  0  0  0  0
 12  7  1  0  0  0  0
 13  8  1  0  0  0  0
 14  9  1  0  0  0  0
 15  9  1  0  0  0  0
 17  1  1  0  0  0  0
 18  2  1  0  0  0  0
 19 16  2  0  0  0  0
 19 17  1  0  0  0  0
 19 18  1  0  0  0  0
M  END