293
  Mrv0541 07281413492D          

 13 12  0  0  0  0            999 V2000
    1.5395    3.2704    0.0000 C   0  0  0  0  0  0  0  0  0  0  0  0
    0.1105    2.4454    0.0000 C   0  0  0  0  0  0  0  0  0  0  0  0
   -0.4125   -0.7145    0.0000 C   0  0  0  0  0  0  0  0  0  0  0  0
   -0.4125    3.5724    0.0000 C   0  0  0  0  0  0  0  0  0  0  0  0
    1.2375    2.1434    0.0000 C   0  0  0  0  0  0  0  0  0  0  0  0
    0.8250    0.0000    0.0000 C   0  0  0  0  0  0  0  0  0  0  0  0
    0.8250    2.8579    0.0000 C   0  0  0  0  0  0  0  0  0  0  0  0
    0.0000    0.0000    0.0000 N   0  0  0  0  0  0  0  0  0  0  0  0
    0.8250    1.4289    0.0000 N   0  0  0  0  0  0  0  0  0  0  0  0
    1.2375   -0.7145    0.0000 O   0  0  0  0  0  0  0  0  0  0  0  0
    1.2375    0.7145    0.0000 O   0  0  0  0  0  0  0  0  0  0  0  0
    0.4125    3.5724    0.0000 S   0  0  0  0  0  0  0  0  0  0  0  0
    2.0625    2.1434    0.0000 H   0  0  0  0  0  0  0  0  0  0  0  0
  7  1  1  0  0  0  0
  7  2  1  0  0  0  0
  7  5  1  0  0  0  0
  8  3  1  4  0  0  0
  8  6  2  0  0  0  0
  9  5  2  0  0  0  0
 10  6  1  0  0  0  0
 11  6  1  0  0  0  0
 11  9  1  0  0  0  0
 12  4  1  0  0  0  0
 12  7  1  0  0  0  0
 13  5  1  0  0  0  0
M  END