299
  Mrv0541 07281413492D          

 69 68  0  0  0  0            999 V2000
   -5.2816   10.4743    0.0000 C   0  0  0  0  0  0  0  0  0  0  0  0
   11.1512   -0.6632    0.0000 C   0  0  0  0  0  0  0  0  0  0  0  0
    1.8631   -2.7257    0.0000 C   0  0  0  0  0  0  0  0  0  0  0  0
   -5.2816    9.6493    0.0000 C   0  0  0  0  0  0  0  0  0  0  0  0
   10.4368   -0.2507    0.0000 C   0  0  0  0  0  0  0  0  0  0  0  0
    1.1487   -3.1382    0.0000 C   0  0  0  0  0  0  0  0  0  0  0  0
   -5.9961    9.2368    0.0000 C   0  0  0  0  0  0  0  0  0  0  0  0
   10.4368    0.5743    0.0000 C   0  0  0  0  0  0  0  0  0  0  0  0
    0.4342   -2.7257    0.0000 C   0  0  0  0  0  0  0  0  0  0  0  0
   -5.9961    8.4118    0.0000 C   0  0  0  0  0  0  0  0  0  0  0  0
    9.7223    0.9868    0.0000 C   0  0  0  0  0  0  0  0  0  0  0  0
   -0.2803   -3.1382    0.0000 C   0  0  0  0  0  0  0  0  0  0  0  0
   -6.7105    7.9993    0.0000 C   0  0  0  0  0  0  0  0  0  0  0  0
    9.7223    1.8118    0.0000 C   0  0  0  0  0  0  0  0  0  0  0  0
   -0.9948   -2.7257    0.0000 C   0  0  0  0  0  0  0  0  0  0  0  0
   -6.7105    7.1743    0.0000 C   0  0  0  0  0  0  0  0  0  0  0  0
    9.0078    2.2243    0.0000 C   0  0  0  0  0  0  0  0  0  0  0  0
   -1.7092   -3.1382    0.0000 C   0  0  0  0  0  0  0  0  0  0  0  0
   -7.4250    6.7618    0.0000 C   0  0  0  0  0  0  0  0  0  0  0  0
    9.0078    3.0493    0.0000 C   0  0  0  0  0  0  0  0  0  0  0  0
   -2.4237   -2.7257    0.0000 C   0  0  0  0  0  0  0  0  0  0  0  0
   -7.4250    5.9368    0.0000 C   0  0  0  0  0  0  0  0  0  0  0  0
    8.2934    3.4618    0.0000 C   0  0  0  0  0  0  0  0  0  0  0  0
   -3.1382   -3.1382    0.0000 C   0  0  0  0  0  0  0  0  0  0  0  0
   -8.1395    5.5243    0.0000 C   0  0  0  0  0  0  0  0  0  0  0  0
    8.2934    4.2868    0.0000 C   0  0  0  0  0  0  0  0  0  0  0  0
   -3.8526   -2.7257    0.0000 C   0  0  0  0  0  0  0  0  0  0  0  0
   -8.1395    4.6993    0.0000 C   0  0  0  0  0  0  0  0  0  0  0  0
    7.5789    4.6993    0.0000 C   0  0  0  0  0  0  0  0  0  0  0  0
   -3.8526   -1.9007    0.0000 C   0  0  0  0  0  0  0  0  0  0  0  0
   -7.4250    4.2868    0.0000 C   0  0  0  0  0  0  0  0  0  0  0  0
    6.8644    4.2868    0.0000 C   0  0  0  0  0  0  0  0  0  0  0  0
   -3.1382   -1.4882    0.0000 C   0  0  0  0  0  0  0  0  0  0  0  0
   -6.7105    4.6993    0.0000 C   0  0  0  0  0  0  0  0  0  0  0  0
    6.1499    4.6993    0.0000 C   0  0  0  0  0  0  0  0  0  0  0  0
   -3.1382   -0.6632    0.0000 C   0  0  0  0  0  0  0  0  0  0  0  0
   -5.9961    4.2868    0.0000 C   0  0  0  0  0  0  0  0  0  0  0  0
    5.4355    4.2868    0.0000 C   0  0  0  0  0  0  0  0  0  0  0  0
   -2.4237   -0.2507    0.0000 C   0  0  0  0  0  0  0  0  0  0  0  0
   -5.2816    4.6993    0.0000 C   0  0  0  0  0  0  0  0  0  0  0  0
    4.7210    4.6993    0.0000 C   0  0  0  0  0  0  0  0  0  0  0  0
   -2.4237    0.5743    0.0000 C   0  0  0  0  0  0  0  0  0  0  0  0
   -4.5671    4.2868    0.0000 C   0  0  0  0  0  0  0  0  0  0  0  0
    4.0065    4.2868    0.0000 C   0  0  0  0  0  0  0  0  0  0  0  0
   -1.7092    0.9868    0.0000 C   0  0  0  0  0  0  0  0  0  0  0  0
   -3.8526    4.6993    0.0000 C   0  0  0  0  0  0  0  0  0  0  0  0
    3.2921    4.6993    0.0000 C   0  0  0  0  0  0  0  0  0  0  0  0
   -1.7092    1.8118    0.0000 C   0  0  0  0  0  0  0  0  0  0  0  0
   -3.1382    4.2868    0.0000 C   0  0  0  0  0  0  0  0  0  0  0  0
    2.5776    4.2868    0.0000 C   0  0  0  0  0  0  0  0  0  0  0  0
   -0.9948    2.2243    0.0000 C   0  0  0  0  0  0  0  0  0  0  0  0
   -0.9948    4.6993    0.0000 C   0  0  0  0  0  0  0  0  0  0  0  0
    0.4342    4.6993    0.0000 C   0  0  0  0  0  0  0  0  0  0  0  0
   -0.2803    4.2868    0.0000 C   0  0  0  0  0  0  0  0  0  0  0  0
   -2.4237    4.6993    0.0000 C   0  0  0  0  0  0  0  0  0  0  0  0
    1.8631    4.6993    0.0000 C   0  0  0  0  0  0  0  0  0  0  0  0
   -0.9948    3.0493    0.0000 C   0  0  0  0  0  0  0  0  0  0  0  0
   -2.4237    5.5243    0.0000 O   0  0  0  0  0  0  0  0  0  0  0  0
    1.8631    5.5243    0.0000 O   0  0  0  0  0  0  0  0  0  0  0  0
   -1.7092    3.4618    0.0000 O   0  0  0  0  0  0  0  0  0  0  0  0
   -1.7092    4.2868    0.0000 O   0  0  0  0  0  0  0  0  0  0  0  0
    1.1487    4.2868    0.0000 O   0  0  0  0  0  0  0  0  0  0  0  0
   -0.2803    3.4618    0.0000 O   0  0  0  0  0  0  0  0  0  0  0  0
   -8.8539    5.9368    0.0000 H   0  0  0  0  0  0  0  0  0  0  0  0
    9.0078    4.6993    0.0000 H   0  0  0  0  0  0  0  0  0  0  0  0
   -4.5671   -3.1382    0.0000 H   0  0  0  0  0  0  0  0  0  0  0  0
   -8.8539    4.2868    0.0000 H   0  0  0  0  0  0  0  0  0  0  0  0
    7.5789    5.5243    0.0000 H   0  0  0  0  0  0  0  0  0  0  0  0
   -4.5671   -1.4882    0.0000 H   0  0  0  0  0  0  0  0  0  0  0  0
  4  1  1  0  0  0  0
  5  2  1  0  0  0  0
  6  3  1  0  0  0  0
  7  4  1  0  0  0  0
  8  5  1  0  0  0  0
  9  6  1  0  0  0  0
 10  7  1  0  0  0  0
 11  8  1  0  0  0  0
 12  9  1  0  0  0  0
 13 10  1  0  0  0  0
 14 11  1  0  0  0  0
 15 12  1  0  0  0  0
 16 13  1  0  0  0  0
 17 14  1  0  0  0  0
 18 15  1  0  0  0  0
 19 16  1  0  0  0  0
 20 17  1  0  0  0  0
 21 18  1  0  0  0  0
 22 19  1  0  0  0  0
 23 20  1  0  0  0  0
 24 21  1  0  0  0  0
 25 22  1  0  0  0  0
 26 23  1  0  0  0  0
 27 24  1  0  0  0  0
 28 25  2  0  0  0  0
 29 26  2  0  0  0  0
 30 27  2  0  0  0  0
 31 28  1  0  0  0  0
 32 29  1  0  0  0  0
 33 30  1  0  0  0  0
 34 31  1  0  0  0  0
 35 32  1  0  0  0  0
 36 33  1  0  0  0  0
 37 34  1  0  0  0  0
 38 35  1  0  0  0  0
 39 36  1  0  0  0  0
 40 37  1  0  0  0  0
 41 38  1  0  0  0  0
 42 39  1  0  0  0  0
 43 40  1  0  0  0  0
 44 41  1  0  0  0  0
 45 42  1  0  0  0  0
 46 43  1  0  0  0  0
 47 44  1  0  0  0  0
 48 45  1  0  0  0  0
 49 46  1  0  0  0  0
 50 47  1  0  0  0  0
 51 48  1  0  0  0  0
 54 52  1  0  0  0  0
 54 53  1  0  0  0  0
 55 49  1  0  0  0  0
 56 50  1  0  0  0  0
 57 51  1  0  0  0  0
 58 55  2  0  0  0  0
 59 56  2  0  0  0  0
 60 57  2  0  0  0  0
 61 52  1  0  0  0  0
 61 55  1  0  0  0  0
 62 53  1  0  0  0  0
 62 56  1  0  0  0  0
 63 54  1  0  0  0  0
 63 57  1  0  0  0  0
 64 25  1  0  0  0  0
 65 26  1  0  0  0  0
 66 27  1  0  0  0  0
 67 28  1  0  0  0  0
 68 29  1  0  0  0  0
 69 30  1  0  0  0  0
M  END