302
  Mrv0541 07281413492D          

 19 20  0  0  0  0            999 V2000
   -2.7717    3.7887    0.0000 C   0  0  0  0  0  0  0  0  0  0  0  0
   -2.2414    1.5067    0.0000 C   0  0  0  0  0  0  0  0  0  0  0  0
   -1.5269    1.9192    0.0000 C   0  0  0  0  0  0  0  0  0  0  0  0
   -2.9559    1.9192    0.0000 C   0  0  0  0  0  0  0  0  0  0  0  0
    0.4441    4.1342    0.0000 C   0  0  0  0  0  0  0  0  0  0  0  0
    0.9744    4.7662    0.0000 C   0  0  0  0  0  0  0  0  0  0  0  0
   -1.5269    2.7442    0.0000 C   0  0  0  0  0  0  0  0  0  0  0  0
   -2.9559    2.7442    0.0000 C   0  0  0  0  0  0  0  0  0  0  0  0
   -0.3683    4.2775    0.0000 C   0  0  0  0  0  0  0  0  0  0  0  0
    0.6923    5.5414    0.0000 C   0  0  0  0  0  0  0  0  0  0  0  0
   -0.6505    5.0527    0.0000 C   0  0  0  0  0  0  0  0  0  0  0  0
   -0.1202    5.6847    0.0000 C   0  0  0  0  0  0  0  0  0  0  0  0
   -1.7111    3.7887    0.0000 C   0  0  0  0  0  0  0  0  0  0  0  0
   -2.2414    3.1567    0.0000 C   0  0  0  0  0  0  0  0  0  0  0  0
   -1.4630    5.1960    0.0000 Cl  0  0  0  0  0  0  0  0  0  0  0  0
   -0.4024    6.4599    0.0000 Cl  0  0  0  0  0  0  0  0  0  0  0  0
   -0.8986    3.6455    0.0000 N   0  0  0  0  0  0  0  0  0  0  0  0
    1.2226    6.1734    0.0000 O   0  0  0  0  0  0  0  0  0  0  0  0
   -1.9933    4.5640    0.0000 O   0  0  0  0  0  0  0  0  0  0  0  0
  3  2  1  0  0  0  0
  4  2  1  0  0  0  0
  6  5  2  0  0  0  0
  7  3  1  0  0  0  0
  8  4  1  0  0  0  0
  9  5  1  0  0  0  0
 10  6  1  0  0  0  0
 11  9  2  0  0  0  0
 12 10  2  0  0  0  0
 12 11  1  0  0  0  0
 14  1  1  0  0  0  0
 14  7  1  0  0  0  0
 14  8  1  0  0  0  0
 14 13  1  0  0  0  0
 15 11  1  0  0  0  0
 16 12  1  0  0  0  0
 17  9  1  4  0  0  0
 17 13  2  0  0  0  0
 18 10  1  0  0  0  0
 19 13  1  0  0  0  0
M  END