303
  Mrv0541 07281413492D          

 19 21  0  0  0  0            999 V2000
    3.1257    0.7783    0.0000 C   0  0  0  0  0  0  0  0  0  0  0  0
   -0.9993   -1.4757    0.0000 C   0  0  0  0  0  0  0  0  0  0  0  0
   -0.1743   -1.4757    0.0000 C   0  0  0  0  0  0  0  0  0  0  0  0
    0.6507   -0.6507    0.0000 C   0  0  0  0  0  0  0  0  0  0  0  0
    0.6507    0.7783    0.0000 C   0  0  0  0  0  0  0  0  0  0  0  0
    1.4757   -0.6507    0.0000 C   0  0  0  0  0  0  0  0  0  0  0  0
    1.4757    0.7783    0.0000 C   0  0  0  0  0  0  0  0  0  0  0  0
   -1.8243   -0.6507    0.0000 C   0  0  0  0  0  0  0  0  0  0  0  0
   -1.8243    0.7783    0.0000 C   0  0  0  0  0  0  0  0  0  0  0  0
   -3.0618    0.0638    0.0000 C   0  0  0  0  0  0  0  0  0  0  0  0
   -0.5868   -0.7612    0.0000 C   0  0  0  0  0  0  0  0  0  0  0  0
    0.2382    0.0638    0.0000 C   0  0  0  0  0  0  0  0  0  0  0  0
   -1.4118    0.0638    0.0000 C   0  0  0  0  0  0  0  0  0  0  0  0
    1.8882    0.0638    0.0000 C   0  0  0  0  0  0  0  0  0  0  0  0
   -0.5868    0.0638    0.0000 C   0  0  0  0  0  0  0  0  0  0  0  0
   -2.6493   -0.6507    0.0000 N   0  0  0  0  0  0  0  0  0  0  0  0
   -2.6493    0.7783    0.0000 N   0  0  0  0  0  0  0  0  0  0  0  0
   -0.5868    0.8888    0.0000 O   0  0  0  0  0  0  0  0  0  0  0  0
    2.7132    0.0638    0.0000 O   0  0  0  0  0  0  0  0  0  0  0  0
  3  2  1  0  0  0  0
  6  4  1  0  0  0  0
  7  5  2  0  0  0  0
 11  2  1  0  0  0  0
 11  3  1  0  0  0  0
 12  4  2  0  0  0  0
 12  5  1  0  0  0  0
 13  8  2  0  0  0  0
 13  9  1  0  0  0  0
 14  6  2  0  0  0  0
 14  7  1  0  0  0  0
 15 11  1  0  0  0  0
 15 12  1  0  0  0  0
 15 13  1  0  0  0  0
 16  8  1  0  0  0  0
 16 10  2  0  0  0  0
 17  9  2  0  0  0  0
 17 10  1  0  0  0  0
 18 15  1  0  0  0  0
 19  1  1  0  0  0  0
 19 14  1  0  0  0  0
M  END