304
  Mrv0541 07281413492D          

 26 27  0  0  0  0            999 V2000
   -2.8579    4.1250    0.0000 C   0  0  0  0  0  0  0  0  0  0  0  0
    4.8011    1.9668    0.0000 C   0  0  0  0  0  0  0  0  0  0  0  0
   -2.1434    3.7125    0.0000 C   0  0  0  0  0  0  0  0  0  0  0  0
    2.1434    3.7125    0.0000 C   0  0  0  0  0  0  0  0  0  0  0  0
    2.1434    5.3625    0.0000 C   0  0  0  0  0  0  0  0  0  0  0  0
    0.0000    4.1250    0.0000 C   0  0  0  0  0  0  0  0  0  0  0  0
    2.8579    4.1250    0.0000 C   0  0  0  0  0  0  0  0  0  0  0  0
    1.4289    4.9500    0.0000 C   0  0  0  0  0  0  0  0  0  0  0  0
    2.8579    4.9500    0.0000 C   0  0  0  0  0  0  0  0  0  0  0  0
    1.4289    4.1250    0.0000 C   0  0  0  0  0  0  0  0  0  0  0  0
   -0.7145    3.7125    0.0000 C   0  0  0  0  0  0  0  0  0  0  0  0
    4.3260    4.0481    0.0000 C   0  0  0  0  0  0  0  0  0  0  0  0
    3.5724    3.7125    0.0000 C   0  0  0  0  0  0  0  0  0  0  0  0
    4.8781    3.4350    0.0000 C   0  0  0  0  0  0  0  0  0  0  0  0
    6.1835    2.8538    0.0000 C   0  0  0  0  0  0  0  0  0  0  0  0
    0.7145    5.3625    0.0000 Cl  0  0  0  0  0  0  0  0  0  0  0  0
    4.4976    4.8550    0.0000 Cl  0  0  0  0  0  0  0  0  0  0  0  0
    3.5724    5.3625    0.0000 F   0  0  0  0  0  0  0  0  0  0  0  0
    7.0039    2.9400    0.0000 F   0  0  0  0  0  0  0  0  0  0  0  0
    5.8479    2.1001    0.0000 F   0  0  0  0  0  0  0  0  0  0  0  0
    3.6586    2.8920    0.0000 N   0  0  0  0  0  0  0  0  0  0  0  0
    4.4656    2.7205    0.0000 N   0  0  0  0  0  0  0  0  0  0  0  0
   -0.7145    2.8875    0.0000 O   0  0  0  0  0  0  0  0  0  0  0  0
   -1.4289    4.1250    0.0000 O   0  0  0  0  0  0  0  0  0  0  0  0
    0.7145    3.7125    0.0000 O   0  0  0  0  0  0  0  0  0  0  0  0
    5.6985    3.5212    0.0000 O   0  0  0  0  0  0  0  0  0  0  0  0
  3  1  1  0  0  0  0
  7  4  2  0  0  0  0
  8  5  1  0  0  0  0
  9  5  2  0  0  0  0
  9  7  1  0  0  0  0
 10  4  1  0  0  0  0
 10  8  2  0  0  0  0
 11  6  1  0  0  0  0
 13  7  1  0  0  0  0
 13 12  1  0  0  0  0
 14 12  2  0  0  0  0
 16  8  1  0  0  0  0
 17 12  1  0  0  0  0
 18  9  1  0  0  0  0
 19 15  1  0  0  0  0
 20 15  1  0  0  0  0
 21 13  2  0  0  0  0
 22  2  1  0  0  0  0
 22 14  1  0  0  0  0
 22 21  1  0  0  0  0
 23 11  2  0  0  0  0
 24  3  1  0  0  0  0
 24 11  1  0  0  0  0
 25  6  1  0  0  0  0
 25 10  1  0  0  0  0
 26 14  1  0  0  0  0
 26 15  1  0  0  0  0
M  END