305
  Mrv0541 07281413492D          

 18 20  0  0  0  0            999 V2000
    3.3523    1.1104    0.0000 C   0  0  0  0  0  0  0  0  0  0  0  0
    3.3523    1.9354    0.0000 C   0  0  0  0  0  0  0  0  0  0  0  0
    2.6378    0.6979    0.0000 C   0  0  0  0  0  0  0  0  0  0  0  0
    1.1858    3.4029    0.0000 C   0  0  0  0  0  0  0  0  0  0  0  0
    2.2253    4.4425    0.0000 C   0  0  0  0  0  0  0  0  0  0  0  0
    3.3053    3.6579    0.0000 C   0  0  0  0  0  0  0  0  0  0  0  0
    1.9704    3.6579    0.0000 C   0  0  0  0  0  0  0  0  0  0  0  0
    2.6378    2.3479    0.0000 C   0  0  0  0  0  0  0  0  0  0  0  0
    2.6378    3.1729    0.0000 C   0  0  0  0  0  0  0  0  0  0  0  0
    1.9233    1.1104    0.0000 C   0  0  0  0  0  0  0  0  0  0  0  0
    1.9233    1.9354    0.0000 C   0  0  0  0  0  0  0  0  0  0  0  0
    0.6538    1.5229    0.0000 C   0  0  0  0  0  0  0  0  0  0  0  0
    0.0407    0.9709    0.0000 F   0  0  0  0  0  0  0  0  0  0  0  0
    0.0407    2.0750    0.0000 F   0  0  0  0  0  0  0  0  0  0  0  0
    0.4011    3.1480    0.0000 N   0  0  0  0  0  0  0  0  0  0  0  0
    3.0503    4.4425    0.0000 N   0  0  0  0  0  0  0  0  0  0  0  0
    1.1387    0.8555    0.0000 O   0  0  0  0  0  0  0  0  0  0  0  0
    1.1387    2.1904    0.0000 O   0  0  0  0  0  0  0  0  0  0  0  0
  2  1  2  0  0  0  0
  3  1  1  0  0  0  0
  7  4  1  0  0  0  0
  7  5  2  0  0  0  0
  8  2  1  0  0  0  0
  9  6  2  0  0  0  0
  9  7  1  0  0  0  0
  9  8  1  0  0  0  0
 10  3  2  0  0  0  0
 11  8  2  0  0  0  0
 11 10  1  0  0  0  0
 13 12  1  0  0  0  0
 14 12  1  0  0  0  0
 15  4  3  0  0  0  0
 16  5  1  0  0  0  0
 16  6  1  0  0  0  0
 17 10  1  0  0  0  0
 17 12  1  0  0  0  0
 18 11  1  0  0  0  0
 18 12  1  0  0  0  0
M  END