306
  Mrv0541 07281413492D          

 18 17  0  0  0  0            999 V2000
   -2.5855    3.2704    0.0000 C   0  0  0  0  0  0  0  0  0  0  0  0
   -0.1105    3.2704    0.0000 C   0  0  0  0  0  0  0  0  0  0  0  0
   -0.1105    0.4125    0.0000 C   0  0  0  0  0  0  0  0  0  0  0  0
    2.7770   -0.3020    0.0000 C   0  0  0  0  0  0  0  0  0  0  0  0
    0.8250   -0.8250    0.0000 C   0  0  0  0  0  0  0  0  0  0  0  0
   -2.1730    2.5559    0.0000 C   0  0  0  0  0  0  0  0  0  0  0  0
   -0.9355    3.2704    0.0000 C   0  0  0  0  0  0  0  0  0  0  0  0
    0.3020    1.1270    0.0000 C   0  0  0  0  0  0  0  0  0  0  0  0
   -0.1105    1.8414    0.0000 C   0  0  0  0  0  0  0  0  0  0  0  0
   -0.9355    1.8414    0.0000 C   0  0  0  0  0  0  0  0  0  0  0  0
    0.3020    2.5559    0.0000 Cl  0  0  0  0  0  0  0  0  0  0  0  0
   -1.3480    2.5559    0.0000 N   0  0  0  0  0  0  0  0  0  0  0  0
   -1.3480    1.1270    0.0000 O   0  0  0  0  0  0  0  0  0  0  0  0
    2.2539    0.8250    0.0000 O   0  0  0  0  0  0  0  0  0  0  0  0
    1.9520   -0.3020    0.0000 O   0  0  0  0  0  0  0  0  0  0  0  0
    0.8250   -0.0000    0.0000 O   0  0  0  0  0  0  0  0  0  0  0  0
    1.1270    1.1270    0.0000 O   0  0  0  0  0  0  0  0  0  0  0  0
    1.5395    0.4125    0.0000 P   0  0  0  0  0  0  0  0  0  0  0  0
  6  1  1  0  0  0  0
  7  2  1  0  0  0  0
  8  3  1  0  0  0  0
  9  8  2  0  0  0  0
 10  9  1  0  0  0  0
 11  9  1  0  0  0  0
 12  6  1  0  0  0  0
 12  7  1  0  0  0  0
 12 10  1  0  0  0  0
 13 10  2  0  0  0  0
 15  4  1  0  0  0  0
 16  5  1  0  0  0  0
 17  8  1  0  0  0  0
 18 14  2  0  0  0  0
 18 15  1  0  0  0  0
 18 16  1  0  0  0  0
 18 17  1  0  0  0  0
M  END