308
  Mrv0541 07281413492D          

 28 31  0  0  0  0            999 V2000
   -0.3793    3.2198    0.0000 C   0  0  0  0  0  0  0  0  0  0  0  0
   -1.0406   -1.5913    0.0000 C   0  0  0  0  0  0  0  0  0  0  0  0
   -2.3746    7.4130    0.0000 C   0  0  0  0  0  0  0  0  0  0  0  0
   -0.2201   -1.5050    0.0000 C   0  0  0  0  0  0  0  0  0  0  0  0
   -1.5255   -0.9238    0.0000 C   0  0  0  0  0  0  0  0  0  0  0  0
   -3.1816    7.2414    0.0000 C   0  0  0  0  0  0  0  0  0  0  0  0
   -1.8226    6.7999    0.0000 C   0  0  0  0  0  0  0  0  0  0  0  0
    0.1155   -0.7514    0.0000 C   0  0  0  0  0  0  0  0  0  0  0  0
   -1.1900   -0.1702    0.0000 C   0  0  0  0  0  0  0  0  0  0  0  0
   -3.4366    6.4568    0.0000 C   0  0  0  0  0  0  0  0  0  0  0  0
   -2.0776    6.0153    0.0000 C   0  0  0  0  0  0  0  0  0  0  0  0
   -1.2284    4.0044    0.0000 C   0  0  0  0  0  0  0  0  0  0  0  0
   -2.2903    3.0483    0.0000 C   0  0  0  0  0  0  0  0  0  0  0  0
   -1.7805    4.6175    0.0000 C   0  0  0  0  0  0  0  0  0  0  0  0
   -2.8424    3.6614    0.0000 C   0  0  0  0  0  0  0  0  0  0  0  0
   -1.4834    3.2198    0.0000 C   0  0  0  0  0  0  0  0  0  0  0  0
   -0.3695   -0.0839    0.0000 C   0  0  0  0  0  0  0  0  0  0  0  0
   -2.8845    5.8437    0.0000 C   0  0  0  0  0  0  0  0  0  0  0  0
   -2.5874    4.4460    0.0000 C   0  0  0  0  0  0  0  0  0  0  0  0
   -0.2639    2.1218    0.0000 C   0  0  0  0  0  0  0  0  0  0  0  0
   -1.3438    1.3372    0.0000 C   0  0  0  0  0  0  0  0  0  0  0  0
   -0.9313    2.6067    0.0000 C   0  0  0  0  0  0  0  0  0  0  0  0
   -0.0339    0.6697    0.0000 N   0  0  0  0  0  0  0  0  0  0  0  0
   -0.5188    1.3372    0.0000 N   0  0  0  0  0  0  0  0  0  0  0  0
    0.5207    2.3767    0.0000 O   0  0  0  0  0  0  0  0  0  0  0  0
   -1.8288    0.6697    0.0000 O   0  0  0  0  0  0  0  0  0  0  0  0
   -3.1395    5.0591    0.0000 O   0  0  0  0  0  0  0  0  0  0  0  0
   -1.5988    2.1218    0.0000 O   0  0  0  0  0  0  0  0  0  0  0  0
  4  2  2  0  0  0  0
  5  2  1  0  0  0  0
  6  3  2  0  0  0  0
  7  3  1  0  0  0  0
  8  4  1  0  0  0  0
  9  5  2  0  0  0  0
 10  6  1  0  0  0  0
 11  7  2  0  0  0  0
 14 12  1  0  0  0  0
 15 13  2  0  0  0  0
 16 12  2  0  0  0  0
 16 13  1  0  0  0  0
 17  8  2  0  0  0  0
 17  9  1  0  0  0  0
 18 10  2  0  0  0  0
 18 11  1  0  0  0  0
 19 14  2  0  0  0  0
 19 15  1  0  0  0  0
 22  1  1  0  0  0  0
 22 16  1  0  0  0  0
 22 20  1  0  0  0  0
 23 17  1  0  0  0  0
 24 20  1  0  0  0  0
 24 21  1  0  0  0  0
 24 23  1  0  0  0  0
 25 20  2  0  0  0  0
 26 21  2  0  0  0  0
 27 18  1  0  0  0  0
 27 19  1  0  0  0  0
 28 21  1  0  0  0  0
 28 22  1  0  0  0  0
M  END