313
  Mrv0541 07281413492D          

 32 34  0  0  0  0            999 V2000
   -1.2991    4.5352    0.0000 C   0  0  0  0  0  0  0  0  0  0  0  0
   -2.0367   12.6027    0.0000 C   0  0  0  0  0  0  0  0  0  0  0  0
   -2.8617   11.7777    0.0000 C   0  0  0  0  0  0  0  0  0  0  0  0
   -1.2117   11.7777    0.0000 C   0  0  0  0  0  0  0  0  0  0  0  0
   -3.6486    2.8282    0.0000 C   0  0  0  0  0  0  0  0  0  0  0  0
   -6.0425    2.8791    0.0000 C   0  0  0  0  0  0  0  0  0  0  0  0
   -5.2579    2.6242    0.0000 C   0  0  0  0  0  0  0  0  0  0  0  0
   -6.2140    3.6861    0.0000 C   0  0  0  0  0  0  0  0  0  0  0  0
   -4.6448    3.1762    0.0000 C   0  0  0  0  0  0  0  0  0  0  0  0
   -5.6010    4.2381    0.0000 C   0  0  0  0  0  0  0  0  0  0  0  0
   -0.6078    8.4777    0.0000 C   0  0  0  0  0  0  0  0  0  0  0  0
   -2.0367    8.4777    0.0000 C   0  0  0  0  0  0  0  0  0  0  0  0
   -0.6078    9.3027    0.0000 C   0  0  0  0  0  0  0  0  0  0  0  0
   -2.0367    9.3027    0.0000 C   0  0  0  0  0  0  0  0  0  0  0  0
   -2.7512    5.5902    0.0000 C   0  0  0  0  0  0  0  0  0  0  0  0
   -1.3222    7.2402    0.0000 C   0  0  0  0  0  0  0  0  0  0  0  0
   -2.0837    4.2803    0.0000 C   0  0  0  0  0  0  0  0  0  0  0  0
   -1.3222    8.0652    0.0000 C   0  0  0  0  0  0  0  0  0  0  0  0
   -1.3222    9.7152    0.0000 C   0  0  0  0  0  0  0  0  0  0  0  0
   -4.8163    3.9832    0.0000 C   0  0  0  0  0  0  0  0  0  0  0  0
   -2.7512    4.7652    0.0000 C   0  0  0  0  0  0  0  0  0  0  0  0
   -3.4186    4.2803    0.0000 C   0  0  0  0  0  0  0  0  0  0  0  0
   -1.3222   10.5402    0.0000 C   0  0  0  0  0  0  0  0  0  0  0  0
   -2.0367   11.7777    0.0000 C   0  0  0  0  0  0  0  0  0  0  0  0
   -2.0367    6.0027    0.0000 N   0  0  0  0  0  0  0  0  0  0  0  0
   -2.3387    3.4956    0.0000 N   0  0  0  0  0  0  0  0  0  0  0  0
   -3.1637    3.4956    0.0000 N   0  0  0  0  0  0  0  0  0  0  0  0
   -0.6078   10.9527    0.0000 O   0  0  0  0  0  0  0  0  0  0  0  0
   -2.0367    6.8277    0.0000 O   0  0  0  0  0  0  0  0  0  0  0  0
   -4.2032    4.5352    0.0000 O   0  0  0  0  0  0  0  0  0  0  0  0
   -2.0367   10.9527    0.0000 O   0  0  0  0  0  0  0  0  0  0  0  0
   -3.4656    6.0027    0.0000 H   0  0  0  0  0  0  0  0  0  0  0  0
  7  6  2  0  0  0  0
  8  6  1  0  0  0  0
  9  7  1  0  0  0  0
 10  8  2  0  0  0  0
 13 11  1  0  0  0  0
 14 12  2  0  0  0  0
 17  1  1  0  0  0  0
 18 11  2  0  0  0  0
 18 12  1  0  0  0  0
 18 16  1  0  0  0  0
 19 13  2  0  0  0  0
 19 14  1  0  0  0  0
 20  9  2  0  0  0  0
 20 10  1  0  0  0  0
 21 15  1  0  0  0  0
 21 17  1  0  0  0  0
 22 21  2  0  0  0  0
 23 19  1  0  0  0  0
 24  2  1  0  0  0  0
 24  3  1  0  0  0  0
 24  4  1  0  0  0  0
 25 15  2  0  0  0  0
 26 17  2  0  0  0  0
 27  5  1  0  0  0  0
 27 22  1  0  0  0  0
 27 26  1  0  0  0  0
 28 23  2  0  0  0  0
 29 16  1  0  0  0  0
 29 25  1  0  0  0  0
 30 20  1  0  0  0  0
 30 22  1  0  0  0  0
 31 23  1  0  0  0  0
 31 24  1  0  0  0  0
 32 15  1  0  0  0  0
M  END