314
  Mrv0541 07281413492D          

 24 25  0  0  0  0            999 V2000
    4.9279    1.1104    0.0000 C   0  0  0  0  0  0  0  0  0  0  0  0
   -3.2949    2.4585    0.0000 C   0  0  0  0  0  0  0  0  0  0  0  0
   -0.4370   -0.8415    0.0000 C   0  0  0  0  0  0  0  0  0  0  0  0
    2.7845    2.3479    0.0000 C   0  0  0  0  0  0  0  0  0  0  0  0
    4.2135    0.6979    0.0000 C   0  0  0  0  0  0  0  0  0  0  0  0
   -2.5804    2.0460    0.0000 C   0  0  0  0  0  0  0  0  0  0  0  0
   -1.1515   -0.4290    0.0000 C   0  0  0  0  0  0  0  0  0  0  0  0
   -0.1435    2.1904    0.0000 C   0  0  0  0  0  0  0  0  0  0  0  0
    1.3556    0.6979    0.0000 C   0  0  0  0  0  0  0  0  0  0  0  0
    2.0701    1.9354    0.0000 C   0  0  0  0  0  0  0  0  0  0  0  0
    2.0701    1.1104    0.0000 C   0  0  0  0  0  0  0  0  0  0  0  0
    0.6411    1.9354    0.0000 C   0  0  0  0  0  0  0  0  0  0  0  0
   -0.6284    1.5229    0.0000 C   0  0  0  0  0  0  0  0  0  0  0  0
    2.7845    0.6979    0.0000 C   0  0  0  0  0  0  0  0  0  0  0  0
    1.3556    2.3479    0.0000 N   0  0  0  0  0  0  0  0  0  0  0  0
   -0.1435    0.8555    0.0000 N   0  0  0  0  0  0  0  0  0  0  0  0
    0.6411    1.1104    0.0000 N   0  0  0  0  0  0  0  0  0  0  0  0
    2.7845   -0.1271    0.0000 O   0  0  0  0  0  0  0  0  0  0  0  0
    3.4990    1.1104    0.0000 O   0  0  0  0  0  0  0  0  0  0  0  0
   -2.5804    1.2210    0.0000 O   0  0  0  0  0  0  0  0  0  0  0  0
   -1.1515    0.3960    0.0000 O   0  0  0  0  0  0  0  0  0  0  0  0
   -1.4534    1.5229    0.0000 O   0  0  0  0  0  0  0  0  0  0  0  0
   -1.8659    0.8085    0.0000 P   0  0  0  0  0  0  0  0  0  0  0  0
   -2.2784    0.0940    0.0000 S   0  0  0  0  0  0  0  0  0  0  0  0
  5  1  1  0  0  0  0
  6  2  1  0  0  0  0
  7  3  1  0  0  0  0
 10  4  1  0  0  0  0
 11  9  2  0  0  0  0
 11 10  1  0  0  0  0
 12  8  2  0  0  0  0
 13  8  1  0  0  0  0
 14 11  1  0  0  0  0
 15 10  2  0  0  0  0
 15 12  1  0  0  0  0
 16 13  2  0  0  0  0
 17  9  1  0  0  0  0
 17 12  1  0  0  0  0
 17 16  1  0  0  0  0
 18 14  2  0  0  0  0
 19  5  1  0  0  0  0
 19 14  1  0  0  0  0
 20  6  1  0  0  0  0
 21  7  1  0  0  0  0
 22 13  1  0  0  0  0
 23 20  1  0  0  0  0
 23 21  1  0  0  0  0
 23 22  1  0  0  0  0
 24 23  2  0  0  0  0
M  END