320
  Mrv0541 07281413492D          

 17 17  0  0  0  0            999 V2000
    2.8579   -0.8250    0.0000 C   0  0  0  0  0  0  0  0  0  0  0  0
    2.5559    0.3020    0.0000 C   0  0  0  0  0  0  0  0  0  0  0  0
    1.7309   -1.1270    0.0000 C   0  0  0  0  0  0  0  0  0  0  0  0
    1.4289    0.8250    0.0000 C   0  0  0  0  0  0  0  0  0  0  0  0
    0.0000    0.8250    0.0000 C   0  0  0  0  0  0  0  0  0  0  0  0
    0.7145    1.2375    0.0000 C   0  0  0  0  0  0  0  0  0  0  0  0
    1.4289    0.0000    0.0000 C   0  0  0  0  0  0  0  0  0  0  0  0
    0.0000   -0.0000    0.0000 C   0  0  0  0  0  0  0  0  0  0  0  0
    0.7145   -0.4125    0.0000 C   0  0  0  0  0  0  0  0  0  0  0  0
    2.1434   -0.4125    0.0000 C   0  0  0  0  0  0  0  0  0  0  0  0
    0.7145    2.0625    0.0000 N   0  0  0  0  0  0  0  0  0  0  0  0
   -0.7145   -0.4125    0.0000 N   0  0  0  0  0  0  0  0  0  0  0  0
    0.7145   -1.2375    0.0000 O   0  0  0  0  0  0  0  0  0  0  0  0
   -0.0000    2.4750    0.0000 O   0  0  0  0  0  0  0  0  0  0  0  0
    1.4289    2.4750    0.0000 O   0  0  0  0  0  0  0  0  0  0  0  0
   -0.7145   -1.2375    0.0000 O   0  0  0  0  0  0  0  0  0  0  0  0
   -1.4289   -0.0000    0.0000 O   0  0  0  0  0  0  0  0  0  0  0  0
  6  4  2  0  0  0  0
  6  5  1  0  0  0  0
  7  4  1  0  0  0  0
  8  5  2  0  0  0  0
  9  7  2  0  0  0  0
  9  8  1  0  0  0  0
 10  1  1  0  0  0  0
 10  2  1  0  0  0  0
 10  3  1  0  0  0  0
 10  7  1  0  0  0  0
 11  6  1  0  0  0  0
 12  8  1  0  0  0  0
 13  9  1  0  0  0  0
 14 11  2  0  0  0  0
 15 11  2  0  0  0  0
 16 12  2  0  0  0  0
 17 12  2  0  0  0  0
M  END