321
  Mrv0541 07281413492D          

 24 25  0  0  0  0            999 V2000
    2.0329   -0.0000    0.0000 C   0  0  0  0  0  0  0  0  0  0  0  0
    3.2704    0.7145    0.0000 C   0  0  0  0  0  0  0  0  0  0  0  0
    2.8579   -2.8579    0.0000 C   0  0  0  0  0  0  0  0  0  0  0  0
    1.6204   -2.1434    0.0000 C   0  0  0  0  0  0  0  0  0  0  0  0
    3.2704   -2.1434    0.0000 C   0  0  0  0  0  0  0  0  0  0  0  0
    2.0329   -1.4289    0.0000 C   0  0  0  0  0  0  0  0  0  0  0  0
    4.5079    0.0000    0.0000 C   0  0  0  0  0  0  0  0  0  0  0  0
    2.8579    0.0000    0.0000 C   0  0  0  0  0  0  0  0  0  0  0  0
    2.0329   -2.8579    0.0000 C   0  0  0  0  0  0  0  0  0  0  0  0
    2.8579   -1.4289    0.0000 C   0  0  0  0  0  0  0  0  0  0  0  0
    4.0954   -0.7145    0.0000 C   0  0  0  0  0  0  0  0  0  0  0  0
    6.7374    1.6077    0.0000 C   0  0  0  0  0  0  0  0  0  0  0  0
    5.7454    0.7145    0.0000 C   0  0  0  0  0  0  0  0  0  0  0  0
    7.4911    1.9432    0.0000 C   0  0  0  0  0  0  0  0  0  0  0  0
    1.6204   -3.5724    0.0000 F   0  0  0  0  0  0  0  0  0  0  0  0
    8.2447    2.2788    0.0000 F   0  0  0  0  0  0  0  0  0  0  0  0
    7.8266    1.1896    0.0000 F   0  0  0  0  0  0  0  0  0  0  0  0
    7.1555    2.6969    0.0000 F   0  0  0  0  0  0  0  0  0  0  0  0
    6.0229    2.0202    0.0000 N   0  0  0  0  0  0  0  0  0  0  0  0
    5.4098    1.4681    0.0000 N   0  0  0  0  0  0  0  0  0  0  0  0
    3.2704   -0.7145    0.0000 N   0  0  0  0  0  0  0  0  0  0  0  0
    4.5079   -1.4289    0.0000 O   0  0  0  0  0  0  0  0  0  0  0  0
    5.3329    0.0000    0.0000 O   0  0  0  0  0  0  0  0  0  0  0  0
    6.5659    0.8007    0.0000 S   0  0  0  0  0  0  0  0  0  0  0  0
  5  3  1  0  0  0  0
  6  4  2  0  0  0  0
  8  1  1  0  0  0  0
  8  2  1  0  0  0  0
  9  3  2  0  0  0  0
  9  4  1  0  0  0  0
 10  5  2  0  0  0  0
 10  6  1  0  0  0  0
 11  7  1  0  0  0  0
 14 12  1  0  0  0  0
 15  9  1  0  0  0  0
 16 14  1  0  0  0  0
 17 14  1  0  0  0  0
 18 14  1  0  0  0  0
 19 12  2  0  0  0  0
 20 13  2  0  0  0  0
 20 19  1  0  0  0  0
 21  8  1  0  0  0  0
 21 10  1  0  0  0  0
 21 11  1  0  0  0  0
 22 11  2  0  0  0  0
 23  7  1  0  0  0  0
 23 13  1  0  0  0  0
 24 12  1  0  0  0  0
 24 13  1  0  0  0  0
M  END