323
  Mrv0541 07281413492D          

 21 25  0  0  0  0            999 V2000
    1.2241   -0.2760    0.0000 C   0  0  0  0  0  0  0  0  0  0  0  0
    1.8232    0.2770    0.0000 C   0  0  0  0  0  0  0  0  0  0  0  0
    0.5772    0.2536    0.0000 C   0  0  0  0  0  0  0  0  0  0  0  0
    1.1682    0.7897    0.0000 C   0  0  0  0  0  0  0  0  0  0  0  0
    1.9338    1.0595    0.0000 C   0  0  0  0  0  0  0  0  0  0  0  0
    0.2235    0.7673    0.0000 C   0  0  0  0  0  0  0  0  0  0  0  0
    0.9490    1.1683    0.0000 C   0  0  0  0  0  0  0  0  0  0  0  0
    1.4350    1.6096    0.0000 C   0  0  0  0  0  0  0  0  0  0  0  0
    0.1696    1.5465    0.0000 C   0  0  0  0  0  0  0  0  0  0  0  0
    0.7741    2.1200    0.0000 C   0  0  0  0  0  0  0  0  0  0  0  0
    2.5539   -0.1061    0.0000 Cl  0  0  0  0  0  0  0  0  0  0  0  0
   -0.0298   -0.3050    0.0000 Cl  0  0  0  0  0  0  0  0  0  0  0  0
    0.9085    0.0066    0.0000 Cl  0  0  0  0  0  0  0  0  0  0  0  0
    2.6685    0.6842    0.0000 Cl  0  0  0  0  0  0  0  0  0  0  0  0
   -0.5554    0.4952    0.0000 Cl  0  0  0  0  0  0  0  0  0  0  0  0
    1.1777    1.9610    0.0000 Cl  0  0  0  0  0  0  0  0  0  0  0  0
    1.9950    2.2155    0.0000 Cl  0  0  0  0  0  0  0  0  0  0  0  0
   -0.6457    1.4202    0.0000 Cl  0  0  0  0  0  0  0  0  0  0  0  0
    1.1558    2.8514    0.0000 Cl  0  0  0  0  0  0  0  0  0  0  0  0
    0.3202    2.8089    0.0000 Cl  0  0  0  0  0  0  0  0  0  0  0  0
    1.2486   -1.1006    0.0000 O   0  0  0  0  0  0  0  0  0  0  0  0
  2  1  1  0  0  0  0
  3  1  1  0  0  0  0
  4  2  1  0  0  0  0
  5  2  1  0  0  0  0
  6  3  1  0  0  0  0
  6  4  1  0  0  0  0
  7  3  1  0  0  0  0
  7  5  1  0  0  0  0
  8  4  1  0  0  0  0
  8  5  1  0  0  0  0
  9  6  1  0  0  0  0
  9  7  1  0  0  0  0
 10  8  1  0  0  0  0
 10  9  1  0  0  0  0
 11  2  1  0  0  0  0
 12  3  1  0  0  0  0
 13  4  1  0  0  0  0
 14  5  1  0  0  0  0
 15  6  1  0  0  0  0
 16  7  1  0  0  0  0
 17  8  1  0  0  0  0
 18  9  1  0  0  0  0
 19 10  1  0  0  0  0
 20 10  1  0  0  0  0
 21  1  2  0  0  0  0
M  END