324
  Mrv0541 07281413492D          

 27 29  0  0  0  0            999 V2000
   -0.2137   -3.4992    0.0000 C   0  0  0  0  0  0  0  0  0  0  0  0
    0.9974   -3.2219    0.0000 C   0  0  0  0  0  0  0  0  0  0  0  0
    1.5271   -2.1823    0.0000 C   0  0  0  0  0  0  0  0  0  0  0  0
   -0.0422   -2.6922    0.0000 C   0  0  0  0  0  0  0  0  0  0  0  0
    2.9195    0.4125    0.0000 C   0  0  0  0  0  0  0  0  0  0  0  0
    2.5070    1.1270    0.0000 C   0  0  0  0  0  0  0  0  0  0  0  0
    2.5070   -0.3020    0.0000 C   0  0  0  0  0  0  0  0  0  0  0  0
   -2.0886   -0.6343    0.0000 C   0  0  0  0  0  0  0  0  0  0  0  0
   -1.4211   -0.1494    0.0000 C   0  0  0  0  0  0  0  0  0  0  0  0
    1.6820    1.1270    0.0000 C   0  0  0  0  0  0  0  0  0  0  0  0
    1.6820   -0.3020    0.0000 C   0  0  0  0  0  0  0  0  0  0  0  0
   -1.2486   -1.7903    0.0000 C   0  0  0  0  0  0  0  0  0  0  0  0
   -2.0023   -1.4548    0.0000 C   0  0  0  0  0  0  0  0  0  0  0  0
   -0.6674   -0.4849    0.0000 C   0  0  0  0  0  0  0  0  0  0  0  0
   -0.5812   -1.3054    0.0000 C   0  0  0  0  0  0  0  0  0  0  0  0
    0.0000   -0.0000    0.0000 C   0  0  0  0  0  0  0  0  0  0  0  0
    0.7846   -0.2549    0.0000 C   0  0  0  0  0  0  0  0  0  0  0  0
   -0.0000    0.8250    0.0000 C   0  0  0  0  0  0  0  0  0  0  0  0
    0.4875   -1.6527    0.0000 C   0  0  0  0  0  0  0  0  0  0  0  0
    0.7425   -2.4373    0.0000 C   0  0  0  0  0  0  0  0  0  0  0  0
    1.2695    0.4125    0.0000 C   0  0  0  0  0  0  0  0  0  0  0  0
   -2.6698   -1.9397    0.0000 Cl  0  0  0  0  0  0  0  0  0  0  0  0
    0.1725   -1.6410    0.0000 Cl  0  0  0  0  0  0  0  0  0  0  0  0
   -0.6674    1.3099    0.0000 O   0  0  0  0  0  0  0  0  0  0  0  0
   -0.1256   -2.2047    0.0000 O   0  0  0  0  0  0  0  0  0  0  0  0
    1.0396   -1.0396    0.0000 O   0  0  0  0  0  0  0  0  0  0  0  0
    0.7846    1.0799    0.0000 O   0  0  0  0  0  0  0  0  0  0  0  0
  4  1  1  0  0  0  0
  6  5  1  0  0  0  0
  7  5  1  0  0  0  0
  9  8  2  0  0  0  0
 10  6  1  0  0  0  0
 11  7  1  0  0  0  0
 13  8  1  0  0  0  0
 13 12  2  0  0  0  0
 14  9  1  0  0  0  0
 15 12  1  0  0  0  0
 15 14  2  0  0  0  0
 16 14  1  0  0  0  0
 17 16  2  0  0  0  0
 18 16  1  0  0  0  0
 20  2  1  0  0  0  0
 20  3  1  0  0  0  0
 20  4  1  0  0  0  0
 20 19  1  0  0  0  0
 21 10  1  0  0  0  0
 21 11  1  0  0  0  0
 21 17  1  0  0  0  0
 22 13  1  0  0  0  0
 23 15  1  0  0  0  0
 24 18  2  0  0  0  0
 25 19  2  0  0  0  0
 26 17  1  0  0  0  0
 26 19  1  0  0  0  0
 27 18  1  0  0  0  0
 27 21  1  0  0  0  0
M  END