329
  Mrv0541 07281413492D          

 20 20  0  0  0  0            999 V2000
    2.6664    2.5855    0.0000 C   0  0  0  0  0  0  0  0  0  0  0  0
    0.7145   -1.2375    0.0000 C   0  0  0  0  0  0  0  0  0  0  0  0
    0.6039    3.3000    0.0000 C   0  0  0  0  0  0  0  0  0  0  0  0
    2.2539    3.3000    0.0000 C   0  0  0  0  0  0  0  0  0  0  0  0
    1.4289    0.8250    0.0000 C   0  0  0  0  0  0  0  0  0  0  0  0
    0.0000    0.8250    0.0000 C   0  0  0  0  0  0  0  0  0  0  0  0
    2.1434    4.5375    0.0000 C   0  0  0  0  0  0  0  0  0  0  0  0
    0.7145   -0.4125    0.0000 C   0  0  0  0  0  0  0  0  0  0  0  0
    0.7145    1.2375    0.0000 C   0  0  0  0  0  0  0  0  0  0  0  0
    1.4289    0.0000    0.0000 C   0  0  0  0  0  0  0  0  0  0  0  0
    0.0000   -0.0000    0.0000 C   0  0  0  0  0  0  0  0  0  0  0  0
    1.4289    4.1250    0.0000 C   0  0  0  0  0  0  0  0  0  0  0  0
    0.7145    2.0625    0.0000 C   0  0  0  0  0  0  0  0  0  0  0  0
    1.4289    3.3000    0.0000 C   0  0  0  0  0  0  0  0  0  0  0  0
    2.1434    5.3625    0.0000 Cl  0  0  0  0  0  0  0  0  0  0  0  0
    2.1434   -0.4125    0.0000 Cl  0  0  0  0  0  0  0  0  0  0  0  0
   -0.7145   -0.4125    0.0000 Cl  0  0  0  0  0  0  0  0  0  0  0  0
    1.4289    2.4750    0.0000 N   0  0  0  0  0  0  0  0  0  0  0  0
    0.7145    4.5375    0.0000 O   0  0  0  0  0  0  0  0  0  0  0  0
   -0.0000    2.4750    0.0000 O   0  0  0  0  0  0  0  0  0  0  0  0
  4  1  1  0  0  0  0
  8  2  1  0  0  0  0
  9  5  2  0  0  0  0
  9  6  1  0  0  0  0
 10  5  1  0  0  0  0
 10  8  2  0  0  0  0
 11  6  2  0  0  0  0
 11  8  1  0  0  0  0
 12  7  1  0  0  0  0
 13  9  1  0  0  0  0
 14  3  1  0  0  0  0
 14  4  1  0  0  0  0
 14 12  1  0  0  0  0
 15  7  1  0  0  0  0
 16 10  1  0  0  0  0
 17 11  1  0  0  0  0
 18 13  2  0  0  0  0
 18 14  1  4  0  0  0
 19 12  2  0  0  0  0
 20 13  1  0  0  0  0
M  END