332
  Mrv0541 07281413492D          

 27 28  0  0  0  0            999 V2000
    3.5724    8.6625    0.0000 C   0  0  0  0  0  0  0  0  0  0  0  0
    6.4302    8.6625    0.0000 C   0  0  0  0  0  0  0  0  0  0  0  0
    3.5724    3.7125    0.0000 C   0  0  0  0  0  0  0  0  0  0  0  0
    3.9849    6.9020    0.0000 C   0  0  0  0  0  0  0  0  0  0  0  0
    3.1599    5.4730    0.0000 C   0  0  0  0  0  0  0  0  0  0  0  0
    2.8579    6.6000    0.0000 C   0  0  0  0  0  0  0  0  0  0  0  0
    3.5724    1.2375    0.0000 C   0  0  0  0  0  0  0  0  0  0  0  0
    5.7158    2.4750    0.0000 C   0  0  0  0  0  0  0  0  0  0  0  0
    5.7158    3.3000    0.0000 C   0  0  0  0  0  0  0  0  0  0  0  0
    5.0013    2.0625    0.0000 C   0  0  0  0  0  0  0  0  0  0  0  0
    5.0013    8.6625    0.0000 C   0  0  0  0  0  0  0  0  0  0  0  0
    4.2868    7.4250    0.0000 C   0  0  0  0  0  0  0  0  0  0  0  0
    5.7158    7.4250    0.0000 C   0  0  0  0  0  0  0  0  0  0  0  0
    4.2868    8.2500    0.0000 C   0  0  0  0  0  0  0  0  0  0  0  0
    5.7158    8.2500    0.0000 C   0  0  0  0  0  0  0  0  0  0  0  0
    4.2868    3.3000    0.0000 C   0  0  0  0  0  0  0  0  0  0  0  0
    5.0013    7.0125    0.0000 C   0  0  0  0  0  0  0  0  0  0  0  0
    5.0013    3.7125    0.0000 C   0  0  0  0  0  0  0  0  0  0  0  0
    4.2868    2.4750    0.0000 C   0  0  0  0  0  0  0  0  0  0  0  0
    5.0013    4.5375    0.0000 C   0  0  0  0  0  0  0  0  0  0  0  0
    5.0013    6.1875    0.0000 C   0  0  0  0  0  0  0  0  0  0  0  0
    3.5724    6.1875    0.0000 C   0  0  0  0  0  0  0  0  0  0  0  0
    4.2868    4.9500    0.0000 N   0  0  0  0  0  0  0  0  0  0  0  0
    4.2868    5.7750    0.0000 N   0  0  0  0  0  0  0  0  0  0  0  0
    5.7158    4.9500    0.0000 O   0  0  0  0  0  0  0  0  0  0  0  0
    5.7158    5.7750    0.0000 O   0  0  0  0  0  0  0  0  0  0  0  0
    3.5724    2.0625    0.0000 O   0  0  0  0  0  0  0  0  0  0  0  0
  9  8  2  0  0  0  0
 10  8  1  0  0  0  0
 14  1  1  0  0  0  0
 14 11  2  0  0  0  0
 14 12  1  0  0  0  0
 15  2  1  0  0  0  0
 15 11  1  0  0  0  0
 15 13  2  0  0  0  0
 16  3  1  0  0  0  0
 17 12  2  0  0  0  0
 17 13  1  0  0  0  0
 18  9  1  0  0  0  0
 18 16  2  0  0  0  0
 19 10  2  0  0  0  0
 19 16  1  0  0  0  0
 20 18  1  0  0  0  0
 21 17  1  0  0  0  0
 22  4  1  0  0  0  0
 22  5  1  0  0  0  0
 22  6  1  0  0  0  0
 23 20  2  0  0  0  0
 24 21  1  0  0  0  0
 24 22  1  0  0  0  0
 23 24  1  4  0  0  0
 25 20  1  0  0  0  0
 26 21  2  0  0  0  0
 27  7  1  0  0  0  0
 27 19  1  0  0  0  0
M  END