336
  Mrv0541 07281413492D          

 36 39  0  0  1  0            999 V2000
    0.1388    2.8945    0.0000 C   0  0  0  0  0  0  0  0  0  0  0  0
   -2.5134    1.0986    0.0000 C   0  0  0  0  0  0  0  0  0  0  0  0
    3.7054   -0.2006    0.0000 C   0  0  0  0  0  0  0  0  0  0  0  0
   -2.5556   -1.0837    0.0000 C   0  0  0  0  0  0  0  0  0  0  0  0
   -1.4937   -2.0399    0.0000 C   0  0  0  0  0  0  0  0  0  0  0  0
   -3.1076   -1.6968    0.0000 C   0  0  0  0  0  0  0  0  0  0  0  0
   -2.0457   -2.6530    0.0000 C   0  0  0  0  0  0  0  0  0  0  0  0
    2.8985   -0.3721    0.0000 C   0  0  0  0  0  0  0  0  0  0  0  0
    3.4084    1.1971    0.0000 C   0  0  0  0  0  0  0  0  0  0  0  0
    1.9339    1.5105    0.0000 C   0  0  0  0  0  0  0  0  0  0  0  0
   -0.0925    0.5840    0.0000 C   0  0  0  0  0  0  0  0  0  0  0  0
    2.6014    1.0256    0.0000 C   0  0  0  0  0  0  0  0  0  0  0  0
    3.9604    0.5840    0.0000 C   0  0  0  0  0  0  0  0  0  0  0  0
   -1.7486   -1.2553    0.0000 C   0  0  0  0  0  0  0  0  0  0  0  0
   -2.8527   -2.4814    0.0000 C   0  0  0  0  0  0  0  0  0  0  0  0
    2.3464    0.2410    0.0000 C   0  0  0  0  0  0  0  0  0  0  0  0
    1.5214    0.2410    0.0000 C   0  0  0  0  0  0  0  0  0  0  0  0
    1.0950    1.8326    0.0000 C   0  0  0  0  0  0  0  0  0  0  0  0
   -0.3896   -0.8137    0.0000 C   0  0  0  0  0  0  0  0  0  0  0  0
   -1.4515    0.1425    0.0000 C   0  0  0  0  0  0  0  0  0  0  0  0
    1.2665    1.0256    0.0000 C   0  0  2  0  0  0  0  0  0  0  0  0
   -3.1498   -3.8792    0.0000 C   0  0  0  0  0  0  0  0  0  0  0  0
    4.7674    0.7556    0.0000 Cl  0  0  0  0  0  0  0  0  0  0  0  0
   -2.8948   -4.6638    0.0000 F   0  0  0  0  0  0  0  0  0  0  0  0
   -3.9344   -4.1341    0.0000 F   0  0  0  0  0  0  0  0  0  0  0  0
   -2.3651   -3.6242    0.0000 F   0  0  0  0  0  0  0  0  0  0  0  0
    0.9694   -0.3721    0.0000 N   0  0  0  0  0  0  0  0  0  0  0  0
    0.1624   -0.2006    0.0000 N   0  0  0  0  0  0  0  0  0  0  0  0
   -1.1966   -0.6422    0.0000 N   0  0  0  0  0  0  0  0  0  0  0  0
    1.7081    2.3846    0.0000 O   0  0  0  0  0  0  0  0  0  0  0  0
   -0.1347   -1.5983    0.0000 O   0  0  0  0  0  0  0  0  0  0  0  0
   -0.8995    0.7556    0.0000 O   0  0  0  0  0  0  0  0  0  0  0  0
    0.3104    2.0875    0.0000 O   0  0  0  0  0  0  0  0  0  0  0  0
   -2.2585    0.3140    0.0000 O   0  0  0  0  0  0  0  0  0  0  0  0
    0.4595    1.1971    0.0000 O   0  0  0  0  0  0  0  0  0  0  0  0
   -3.4047   -3.0945    0.0000 O   0  0  0  0  0  0  0  0  0  0  0  0
  6  4  1  0  0  0  0
  7  5  2  0  0  0  0
  8  3  1  0  0  0  0
 12  9  2  0  0  0  0
 12 10  1  0  0  0  0
 13  3  2  0  0  0  0
 13  9  1  0  0  0  0
 14  4  2  0  0  0  0
 14  5  1  0  0  0  0
 15  6  2  0  0  0  0
 15  7  1  0  0  0  0
 16  8  2  0  0  0  0
 16 12  1  0  0  0  0
 17 16  1  0  0  0  0
 21 10  1  0  0  0  0
 21 17  1  0  0  0  0
 21 18  1  6  0  0  0
 23 13  1  0  0  0  0
 24 22  1  0  0  0  0
 25 22  1  0  0  0  0
 26 22  1  0  0  0  0
 27 17  2  0  0  0  0
 28 11  1  0  0  0  0
 28 19  1  0  0  0  0
 28 27  1  0  0  0  0
 29 14  1  0  0  0  0
 29 19  1  0  0  0  0
 29 20  1  0  0  0  0
 30 18  2  0  0  0  0
 31 19  2  0  0  0  0
 32 20  2  0  0  0  0
 33  1  1  0  0  0  0
 33 18  1  0  0  0  0
 34  2  1  0  0  0  0
 34 20  1  0  0  0  0
 35 11  1  0  0  0  0
 35 21  1  0  0  0  0
 36 15  1  0  0  0  0
 36 22  1  0  0  0  0
M  END