342
  Mrv0541 07281413492D          

 22 23  0  0  0  0            999 V2000
   -1.3184   -1.4586    0.0000 C   0  0  0  0  0  0  0  0  0  0  0  0
    0.1105   -1.4586    0.0000 C   0  0  0  0  0  0  0  0  0  0  0  0
    0.8250    2.2539    0.0000 C   0  0  0  0  0  0  0  0  0  0  0  0
   -0.6039    2.2539    0.0000 C   0  0  0  0  0  0  0  0  0  0  0  0
    1.3480    0.3020    0.0000 C   0  0  0  0  0  0  0  0  0  0  0  0
    1.3480    1.7309    0.0000 C   0  0  0  0  0  0  0  0  0  0  0  0
    0.8250    3.0789    0.0000 C   0  0  0  0  0  0  0  0  0  0  0  0
   -0.6039    3.0789    0.0000 C   0  0  0  0  0  0  0  0  0  0  0  0
    2.1730    0.3020    0.0000 C   0  0  0  0  0  0  0  0  0  0  0  0
    2.1730    1.7309    0.0000 C   0  0  0  0  0  0  0  0  0  0  0  0
   -0.6039   -1.0461    0.0000 C   0  0  0  0  0  0  0  0  0  0  0  0
    0.1105    1.8414    0.0000 C   0  0  0  0  0  0  0  0  0  0  0  0
    0.9355    1.0164    0.0000 C   0  0  0  0  0  0  0  0  0  0  0  0
    0.1105    3.4914    0.0000 C   0  0  0  0  0  0  0  0  0  0  0  0
    2.5855    1.0164    0.0000 C   0  0  0  0  0  0  0  0  0  0  0  0
    0.1105    0.1914    0.0000 C   0  0  0  0  0  0  0  0  0  0  0  0
    0.1105    1.0164    0.0000 C   0  0  0  0  0  0  0  0  0  0  0  0
    0.1105    4.3164    0.0000 Br  0  0  0  0  0  0  0  0  0  0  0  0
    3.4105    1.0164    0.0000 Br  0  0  0  0  0  0  0  0  0  0  0  0
    0.8250   -0.2211    0.0000 O   0  0  0  0  0  0  0  0  0  0  0  0
   -0.7145    1.0164    0.0000 O   0  0  0  0  0  0  0  0  0  0  0  0
   -0.6039   -0.2211    0.0000 O   0  0  0  0  0  0  0  0  0  0  0  0
  7  3  1  0  0  0  0
  8  4  2  0  0  0  0
  9  5  1  0  0  0  0
 10  6  2  0  0  0  0
 11  1  1  0  0  0  0
 11  2  1  0  0  0  0
 12  3  2  0  0  0  0
 12  4  1  0  0  0  0
 13  5  2  0  0  0  0
 13  6  1  0  0  0  0
 14  7  2  0  0  0  0
 14  8  1  0  0  0  0
 15  9  2  0  0  0  0
 15 10  1  0  0  0  0
 17 12  1  0  0  0  0
 17 13  1  0  0  0  0
 17 16  1  0  0  0  0
 18 14  1  0  0  0  0
 19 15  1  0  0  0  0
 20 16  2  0  0  0  0
 21 17  1  0  0  0  0
 22 11  1  0  0  0  0
 22 16  1  0  0  0  0
M  END