344
  Mrv0541 07281413492D          

 23 23  0  0  0  0            999 V2000
    1.7309    2.9980    0.0000 C   0  0  0  0  0  0  0  0  0  0  0  0
    4.2059    2.9980    0.0000 C   0  0  0  0  0  0  0  0  0  0  0  0
    2.1434    3.7125    0.0000 C   0  0  0  0  0  0  0  0  0  0  0  0
    4.6184    3.7125    0.0000 C   0  0  0  0  0  0  0  0  0  0  0  0
    2.9684    3.7125    0.0000 C   0  0  0  0  0  0  0  0  0  0  0  0
    3.3809    4.4270    0.0000 C   0  0  0  0  0  0  0  0  0  0  0  0
    5.8559    5.8559    0.0000 C   0  0  0  0  0  0  0  0  0  0  0  0
    4.6184    6.5704    0.0000 C   0  0  0  0  0  0  0  0  0  0  0  0
    5.4434    6.5704    0.0000 C   0  0  0  0  0  0  0  0  0  0  0  0
    5.4434    5.1414    0.0000 C   0  0  0  0  0  0  0  0  0  0  0  0
    4.2059    5.8559    0.0000 C   0  0  0  0  0  0  0  0  0  0  0  0
    4.6184    5.1414    0.0000 C   0  0  0  0  0  0  0  0  0  0  0  0
    5.8559    7.2849    0.0000 C   0  0  0  0  0  0  0  0  0  0  0  0
    6.2684    7.9993    0.0000 F   0  0  0  0  0  0  0  0  0  0  0  0
    6.5704    6.8724    0.0000 F   0  0  0  0  0  0  0  0  0  0  0  0
    5.1414    7.6974    0.0000 F   0  0  0  0  0  0  0  0  0  0  0  0
    4.2059    4.4270    0.0000 N   0  0  0  0  0  0  0  0  0  0  0  0
    5.8559    4.4270    0.0000 N   0  0  0  0  0  0  0  0  0  0  0  0
    3.3809    5.8559    0.0000 N   0  0  0  0  0  0  0  0  0  0  0  0
    5.4434    3.7125    0.0000 O   0  0  0  0  0  0  0  0  0  0  0  0
    6.6809    4.4270    0.0000 O   0  0  0  0  0  0  0  0  0  0  0  0
    2.9684    5.1414    0.0000 O   0  0  0  0  0  0  0  0  0  0  0  0
    2.9684    6.5704    0.0000 O   0  0  0  0  0  0  0  0  0  0  0  0
  3  1  1  0  0  0  0
  4  2  1  0  0  0  0
  5  3  1  0  0  0  0
  6  5  1  0  0  0  0
  9  7  2  0  0  0  0
  9  8  1  0  0  0  0
 10  7  1  0  0  0  0
 11  8  2  0  0  0  0
 12 10  2  0  0  0  0
 12 11  1  0  0  0  0
 13  9  1  0  0  0  0
 14 13  1  0  0  0  0
 15 13  1  0  0  0  0
 16 13  1  0  0  0  0
 17  4  1  0  0  0  0
 17  6  1  0  0  0  0
 17 12  1  0  0  0  0
 18 10  1  0  0  0  0
 19 11  1  0  0  0  0
 20 18  2  0  0  0  0
 21 18  2  0  0  0  0
 22 19  2  0  0  0  0
 23 19  2  0  0  0  0
M  END