352
  Mrv0541 07281413492D          

 25 27  0  0  0  0            999 V2000
    4.1801    3.1152    0.0000 C   0  0  0  0  0  0  0  0  0  0  0  0
    7.0208    4.1614    0.0000 C   0  0  0  0  0  0  0  0  0  0  0  0
    0.6078    2.7027    0.0000 C   0  0  0  0  0  0  0  0  0  0  0  0
    2.7512    4.7652    0.0000 C   0  0  0  0  0  0  0  0  0  0  0  0
    2.0367    4.3527    0.0000 C   0  0  0  0  0  0  0  0  0  0  0  0
    2.0837    1.8053    0.0000 C   0  0  0  0  0  0  0  0  0  0  0  0
    2.3387    1.0206    0.0000 C   0  0  0  0  0  0  0  0  0  0  0  0
    4.9808    3.5322    0.0000 C   0  0  0  0  0  0  0  0  0  0  0  0
    3.4656    3.5277    0.0000 C   0  0  0  0  0  0  0  0  0  0  0  0
    3.4656    4.3527    0.0000 C   0  0  0  0  0  0  0  0  0  0  0  0
    4.8946    4.3527    0.0000 C   0  0  0  0  0  0  0  0  0  0  0  0
    2.7512    2.2902    0.0000 C   0  0  0  0  0  0  0  0  0  0  0  0
    2.0367    3.5277    0.0000 C   0  0  0  0  0  0  0  0  0  0  0  0
    2.7512    3.1152    0.0000 C   0  0  0  0  0  0  0  0  0  0  0  0
    4.1801    4.7652    0.0000 C   0  0  0  0  0  0  0  0  0  0  0  0
    5.6483    4.6882    0.0000 C   0  0  0  0  0  0  0  0  0  0  0  0
    5.7878    3.3607    0.0000 N   0  0  0  0  0  0  0  0  0  0  0  0
    3.4186    1.8053    0.0000 N   0  0  0  0  0  0  0  0  0  0  0  0
    6.2003    4.0751    0.0000 N   0  0  0  0  0  0  0  0  0  0  0  0
    4.1801    5.5902    0.0000 O   0  0  0  0  0  0  0  0  0  0  0  0
    5.8198    5.4952    0.0000 O   0  0  0  0  0  0  0  0  0  0  0  0
    0.9097    3.8297    0.0000 O   0  0  0  0  0  0  0  0  0  0  0  0
    1.7347    2.4007    0.0000 O   0  0  0  0  0  0  0  0  0  0  0  0
    3.1637    1.0206    0.0000 O   0  0  0  0  0  0  0  0  0  0  0  0
    1.3222    3.1152    0.0000 S   0  0  0  0  0  0  0  0  0  0  0  0
  5  4  2  0  0  0  0
  7  6  1  0  0  0  0
  9  1  1  0  0  0  0
 10  4  1  0  0  0  0
 10  9  2  0  0  0  0
 11  8  1  0  0  0  0
 12  6  1  0  0  0  0
 13  5  1  0  0  0  0
 14  9  1  0  0  0  0
 14 12  1  0  0  0  0
 14 13  2  0  0  0  0
 15 10  1  0  0  0  0
 15 11  1  0  0  0  0
 16 11  2  0  0  0  0
 17  8  2  0  0  0  0
 18 12  2  0  0  0  0
 19  2  1  0  0  0  0
 19 16  1  0  0  0  0
 19 17  1  0  0  0  0
 20 15  2  0  0  0  0
 21 16  1  0  0  0  0
 24  7  1  0  0  0  0
 24 18  1  0  0  0  0
 25  3  1  0  0  0  0
 25 13  1  0  0  0  0
 25 22  2  0  0  0  0
 25 23  2  0  0  0  0
M  END