355
  Mrv0541 07281413492D          

 32 34  0  0  0  0            999 V2000
    3.9934    2.4750    0.0000 C   0  0  0  0  0  0  0  0  0  0  0  0
    3.9934   -1.6500    0.0000 C   0  0  0  0  0  0  0  0  0  0  0  0
   -1.1801   -2.4454    0.0000 C   0  0  0  0  0  0  0  0  0  0  0  0
   -0.3551   -2.4454    0.0000 C   0  0  0  0  0  0  0  0  0  0  0  0
   -1.5926   -1.7309    0.0000 C   0  0  0  0  0  0  0  0  0  0  0  0
    3.9934    0.8250    0.0000 C   0  0  0  0  0  0  0  0  0  0  0  0
   -2.4176   -0.3020    0.0000 C   0  0  0  0  0  0  0  0  0  0  0  0
    0.0574   -1.7309    0.0000 C   0  0  0  0  0  0  0  0  0  0  0  0
   -1.1801   -1.0164    0.0000 C   0  0  0  0  0  0  0  0  0  0  0  0
    3.2789    1.2375    0.0000 C   0  0  0  0  0  0  0  0  0  0  0  0
   -2.8301    0.4125    0.0000 C   0  0  0  0  0  0  0  0  0  0  0  0
   -0.3551   -1.0164    0.0000 C   0  0  0  0  0  0  0  0  0  0  0  0
    2.5645    0.8250    0.0000 C   0  0  0  0  0  0  0  0  0  0  0  0
    1.2949    0.4125    0.0000 C   0  0  0  0  0  0  0  0  0  0  0  0
    3.2789   -0.4125    0.0000 C   0  0  0  0  0  0  0  0  0  0  0  0
    0.8824   -1.7309    0.0000 C   0  0  0  0  0  0  0  0  0  0  0  0
   -3.6551    0.4125    0.0000 F   0  0  0  0  0  0  0  0  0  0  0  0
   -2.4176    1.1270    0.0000 F   0  0  0  0  0  0  0  0  0  0  0  0
    1.7074   -1.7309    0.0000 F   0  0  0  0  0  0  0  0  0  0  0  0
    0.8824   -0.9059    0.0000 F   0  0  0  0  0  0  0  0  0  0  0  0
    0.8824   -2.5559    0.0000 F   0  0  0  0  0  0  0  0  0  0  0  0
    3.9934    0.0000    0.0000 N   0  0  0  0  0  0  0  0  0  0  0  0
    1.7798    1.0799    0.0000 N   0  0  0  0  0  0  0  0  0  0  0  0
    1.7798   -0.2549    0.0000 N   0  0  0  0  0  0  0  0  0  0  0  0
    0.4699    0.4125    0.0000 N   0  0  0  0  0  0  0  0  0  0  0  0
    2.5645   -0.0000    0.0000 N   0  0  0  0  0  0  0  0  0  0  0  0
   -0.6571    0.1105    0.0000 O   0  0  0  0  0  0  0  0  0  0  0  0
    0.8644   -0.4735    0.0000 O   0  0  0  0  0  0  0  0  0  0  0  0
    3.2789    2.0625    0.0000 O   0  0  0  0  0  0  0  0  0  0  0  0
    3.2789   -1.2375    0.0000 O   0  0  0  0  0  0  0  0  0  0  0  0
   -1.5926   -0.3020    0.0000 O   0  0  0  0  0  0  0  0  0  0  0  0
    0.0574   -0.3020    0.0000 S   0  0  0  0  0  0  0  0  0  0  0  0
  4  3  2  0  0  0  0
  5  3  1  0  0  0  0
  8  4  1  0  0  0  0
  9  5  2  0  0  0  0
 10  6  2  0  0  0  0
 11  7  1  0  0  0  0
 12  8  2  0  0  0  0
 12  9  1  0  0  0  0
 13 10  1  0  0  0  0
 16  8  1  0  0  0  0
 17 11  1  0  0  0  0
 18 11  1  0  0  0  0
 19 16  1  0  0  0  0
 20 16  1  0  0  0  0
 21 16  1  0  0  0  0
 22  6  1  0  0  0  0
 22 15  2  0  0  0  0
 23 13  2  0  0  0  0
 23 14  1  0  0  0  0
 24 14  2  0  0  0  0
 25 14  1  0  0  0  0
 26 13  1  0  0  0  0
 26 15  1  0  0  0  0
 26 24  1  0  0  0  0
 29  1  1  0  0  0  0
 29 10  1  0  0  0  0
 30  2  1  0  0  0  0
 30 15  1  0  0  0  0
 31  7  1  0  0  0  0
 31  9  1  0  0  0  0
 32 12  1  0  0  0  0
 32 25  1  0  0  0  0
 32 27  2  0  0  0  0
 32 28  2  0  0  0  0
M  END