357
  Mrv0541 07281413492D          

 16 15  0  0  0  0            999 V2000
   -0.9355    3.2704    0.0000 C   0  0  0  0  0  0  0  0  0  0  0  0
   -3.4105    3.2704    0.0000 C   0  0  0  0  0  0  0  0  0  0  0  0
    2.7770   -0.3020    0.0000 C   0  0  0  0  0  0  0  0  0  0  0  0
    0.1105    0.4125    0.0000 C   0  0  0  0  0  0  0  0  0  0  0  0
   -0.1105    1.8414    0.0000 C   0  0  0  0  0  0  0  0  0  0  0  0
    0.3020    1.1270    0.0000 C   0  0  0  0  0  0  0  0  0  0  0  0
   -1.3480    2.5559    0.0000 C   0  0  0  0  0  0  0  0  0  0  0  0
   -2.1730    2.5559    0.0000 C   0  0  0  0  0  0  0  0  0  0  0  0
   -2.5855    3.2704    0.0000 N   0  0  0  0  0  0  0  0  0  0  0  0
   -2.5855    1.8414    0.0000 O   0  0  0  0  0  0  0  0  0  0  0  0
    2.2539    0.8250    0.0000 O   0  0  0  0  0  0  0  0  0  0  0  0
    1.9520   -0.3020    0.0000 O   0  0  0  0  0  0  0  0  0  0  0  0
    0.8250   -0.0000    0.0000 O   0  0  0  0  0  0  0  0  0  0  0  0
    1.5395    0.4125    0.0000 P   0  0  0  0  0  0  0  0  0  0  0  0
   -0.9355    1.8414    0.0000 S   0  0  0  0  0  0  0  0  0  0  0  0
    1.1270    1.1270    0.0000 S   0  0  0  0  0  0  0  0  0  0  0  0
  6  5  1  0  0  0  0
  7  1  1  0  0  0  0
  8  7  1  0  0  0  0
  9  2  1  4  0  0  0
  9  8  2  0  0  0  0
 10  8  1  0  0  0  0
 12  3  1  0  0  0  0
 13  4  1  0  0  0  0
 14 11  2  0  0  0  0
 14 12  1  0  0  0  0
 14 13  1  0  0  0  0
 15  5  1  0  0  0  0
 15  7  1  0  0  0  0
 16  6  1  0  0  0  0
 16 14  1  0  0  0  0
M  END