359
  Mrv0541 07281413492D          

 21 22  0  0  0  0            999 V2000
   -1.2778    1.5039    0.0000 C   0  0  0  0  0  0  0  0  0  0  0  0
    2.6453    2.7786    0.0000 C   0  0  0  0  0  0  0  0  0  0  0  0
   -0.4932    1.7588    0.0000 C   0  0  0  0  0  0  0  0  0  0  0  0
    1.8607    2.5236    0.0000 C   0  0  0  0  0  0  0  0  0  0  0  0
    3.9934    0.8250    0.0000 C   0  0  0  0  0  0  0  0  0  0  0  0
    3.2789    1.2375    0.0000 C   0  0  0  0  0  0  0  0  0  0  0  0
    3.2789   -0.4125    0.0000 C   0  0  0  0  0  0  0  0  0  0  0  0
    1.5249    1.8646    0.0000 C   0  0  0  0  0  0  0  0  0  0  0  0
    3.9934   -0.0000    0.0000 C   0  0  0  0  0  0  0  0  0  0  0  0
    2.5645    0.8250    0.0000 C   0  0  0  0  0  0  0  0  0  0  0  0
    2.5645   -0.0000    0.0000 C   0  0  0  0  0  0  0  0  0  0  0  0
    1.2949    0.4125    0.0000 C   0  0  0  0  0  0  0  0  0  0  0  0
    4.7079   -0.4125    0.0000 Cl  0  0  0  0  0  0  0  0  0  0  0  0
    1.7798    1.0799    0.0000 N   0  0  0  0  0  0  0  0  0  0  0  0
    0.4699    0.4125    0.0000 O   0  0  0  0  0  0  0  0  0  0  0  0
   -0.3216    2.5658    0.0000 O   0  0  0  0  0  0  0  0  0  0  0  0
    1.2476    3.0756    0.0000 O   0  0  0  0  0  0  0  0  0  0  0  0
    1.7798   -0.2549    0.0000 O   0  0  0  0  0  0  0  0  0  0  0  0
    0.4630    2.8207    0.0000 P   0  0  0  0  0  0  0  0  0  0  0  0
    0.2080    3.6053    0.0000 S   0  0  0  0  0  0  0  0  0  0  0  0
    0.7179    2.0361    0.0000 S   0  0  0  0  0  0  0  0  0  0  0  0
  3  1  1  0  0  0  0
  4  2  1  0  0  0  0
  6  5  2  0  0  0  0
  9  5  1  0  0  0  0
  9  7  2  0  0  0  0
 10  6  1  0  0  0  0
 11  7  1  0  0  0  0
 11 10  2  0  0  0  0
 13  9  1  0  0  0  0
 14  8  1  0  0  0  0
 14 10  1  0  0  0  0
 14 12  1  0  0  0  0
 15 12  2  0  0  0  0
 16  3  1  0  0  0  0
 17  4  1  0  0  0  0
 18 11  1  0  0  0  0
 18 12  1  0  0  0  0
 19 16  1  0  0  0  0
 19 17  1  0  0  0  0
 20 19  2  0  0  0  0
 21  8  1  0  0  0  0
 21 19  1  0  0  0  0
M  END