361
  Mrv0541 07281413492D          

 14 13  0  0  0  0            999 V2000
   -0.4125   -0.7145    0.0000 C   0  0  0  0  0  0  0  0  0  0  0  0
    0.8250    4.2868    0.0000 C   0  0  0  0  0  0  0  0  0  0  0  0
    2.0625    3.5724    0.0000 C   0  0  0  0  0  0  0  0  0  0  0  0
    2.4750    1.4289    0.0000 C   0  0  0  0  0  0  0  0  0  0  0  0
    1.2375    2.1434    0.0000 C   0  0  0  0  0  0  0  0  0  0  0  0
    0.8250    2.8579    0.0000 C   0  0  0  0  0  0  0  0  0  0  0  0
    0.8250    0.0000    0.0000 C   0  0  0  0  0  0  0  0  0  0  0  0
    0.0000    0.0000    0.0000 N   0  0  0  0  0  0  0  0  0  0  0  0
    0.8250    1.4289    0.0000 N   0  0  0  0  0  0  0  0  0  0  0  0
    1.2375    3.5724    0.0000 N   0  0  0  0  0  0  0  0  0  0  0  0
   -0.0000    2.8579    0.0000 O   0  0  0  0  0  0  0  0  0  0  0  0
    1.2375   -0.7145    0.0000 O   0  0  0  0  0  0  0  0  0  0  0  0
    1.2375    0.7145    0.0000 O   0  0  0  0  0  0  0  0  0  0  0  0
    2.0625    2.1434    0.0000 S   0  0  0  0  0  0  0  0  0  0  0  0
  6  5  1  0  0  0  0
  8  1  1  4  0  0  0
  8  7  2  0  0  0  0
  9  5  2  0  0  0  0
 10  2  1  0  0  0  0
 10  3  1  0  0  0  0
 10  6  1  0  0  0  0
 11  6  2  0  0  0  0
 12  7  1  0  0  0  0
 13  7  1  0  0  0  0
 13  9  1  0  0  0  0
 14  4  1  0  0  0  0
 14  5  1  0  0  0  0
M  END