362
  Mrv0541 07281413492D          

 21 21  0  0  0  0            999 V2000
    2.3349    4.4270    0.0000 C   0  0  0  0  0  0  0  0  0  0  0  0
    8.5224    2.2836    0.0000 C   0  0  0  0  0  0  0  0  0  0  0  0
    4.8099    1.5691    0.0000 C   0  0  0  0  0  0  0  0  0  0  0  0
    2.7474    3.7125    0.0000 C   0  0  0  0  0  0  0  0  0  0  0  0
    7.6974    2.2836    0.0000 C   0  0  0  0  0  0  0  0  0  0  0  0
    5.2224    0.8546    0.0000 C   0  0  0  0  0  0  0  0  0  0  0  0
    3.5724    3.7125    0.0000 C   0  0  0  0  0  0  0  0  0  0  0  0
    7.2849    0.1401    0.0000 C   0  0  0  0  0  0  0  0  0  0  0  0
    7.6974    0.8546    0.0000 C   0  0  0  0  0  0  0  0  0  0  0  0
    6.4599    0.1401    0.0000 C   0  0  0  0  0  0  0  0  0  0  0  0
    3.9849    2.9980    0.0000 C   0  0  0  0  0  0  0  0  0  0  0  0
    6.0474    3.7125    0.0000 C   0  0  0  0  0  0  0  0  0  0  0  0
    5.2224    2.2836    0.0000 C   0  0  0  0  0  0  0  0  0  0  0  0
    7.2849    1.5691    0.0000 C   0  0  0  0  0  0  0  0  0  0  0  0
    6.0474    0.8546    0.0000 C   0  0  0  0  0  0  0  0  0  0  0  0
    6.4599    2.9980    0.0000 C   0  0  0  0  0  0  0  0  0  0  0  0
    6.4599    1.5691    0.0000 C   0  0  0  0  0  0  0  0  0  0  0  0
    6.4599    4.4270    0.0000 Cl  0  0  0  0  0  0  0  0  0  0  0  0
    6.0474    2.2836    0.0000 N   0  0  0  0  0  0  0  0  0  0  0  0
    7.2849    2.9980    0.0000 O   0  0  0  0  0  0  0  0  0  0  0  0
    4.8099    2.9980    0.0000 O   0  0  0  0  0  0  0  0  0  0  0  0
  4  1  1  0  0  0  0
  5  2  1  0  0  0  0
  6  3  1  0  0  0  0
  7  4  1  0  0  0  0
  9  8  2  0  0  0  0
 10  8  1  0  0  0  0
 11  7  1  0  0  0  0
 14  5  1  0  0  0  0
 14  9  1  0  0  0  0
 15  6  1  0  0  0  0
 15 10  2  0  0  0  0
 16 12  1  0  0  0  0
 17 14  2  0  0  0  0
 17 15  1  0  0  0  0
 18 12  1  0  0  0  0
 19 13  1  0  0  0  0
 19 16  1  0  0  0  0
 19 17  1  0  0  0  0
 20 16  2  0  0  0  0
 21 11  1  0  0  0  0
 21 13  1  0  0  0  0
M  END