369
  Mrv0541 07281413492D          

 12 12  0  0  0  0            999 V2000
   -0.1467    3.1768    0.0000 C   0  0  0  0  0  0  0  0  0  0  0  0
   -0.1467    2.3518    0.0000 C   0  0  0  0  0  0  0  0  0  0  0  0
    0.9803   -0.1553    0.0000 C   0  0  0  0  0  0  0  0  0  0  0  0
    0.5678    1.1143    0.0000 C   0  0  0  0  0  0  0  0  0  0  0  0
    1.4652   -0.8227    0.0000 C   0  0  0  0  0  0  0  0  0  0  0  0
    1.9501   -1.4901    0.0000 Cl  0  0  0  0  0  0  0  0  0  0  0  0
    0.7977   -1.3076    0.0000 Cl  0  0  0  0  0  0  0  0  0  0  0  0
    2.1326   -0.3378    0.0000 Cl  0  0  0  0  0  0  0  0  0  0  0  0
    1.2352    0.6294    0.0000 N   0  0  0  0  0  0  0  0  0  0  0  0
    0.1553   -0.1553    0.0000 N   0  0  0  0  0  0  0  0  0  0  0  0
    0.5678    1.9393    0.0000 O   0  0  0  0  0  0  0  0  0  0  0  0
   -0.0997    0.6294    0.0000 S   0  0  0  0  0  0  0  0  0  0  0  0
  2  1  1  0  0  0  0
  5  3  1  0  0  0  0
  6  5  1  0  0  0  0
  7  5  1  0  0  0  0
  8  5  1  0  0  0  0
  9  3  1  0  0  0  0
  9  4  2  0  0  0  0
 10  3  2  0  0  0  0
 11  2  1  0  0  0  0
 11  4  1  0  0  0  0
 12  4  1  0  0  0  0
 12 10  1  0  0  0  0
M  END