370
  Mrv0541 07281413492D          

 19 20  0  0  0  0            999 V2000
   -0.7676    1.1270    0.0000 C   0  0  0  0  0  0  0  0  0  0  0  0
    2.1154   -1.0086    0.0000 C   0  0  0  0  0  0  0  0  0  0  0  0
    1.0654   -0.6674    0.0000 C   0  0  0  0  0  0  0  0  0  0  0  0
    6.1368    0.4125    0.0000 C   0  0  0  0  0  0  0  0  0  0  0  0
    0.0574    1.1270    0.0000 C   0  0  0  0  0  0  0  0  0  0  0  0
    3.9934    0.8250    0.0000 C   0  0  0  0  0  0  0  0  0  0  0  0
    3.2789    1.2375    0.0000 C   0  0  0  0  0  0  0  0  0  0  0  0
    3.2789   -0.4125    0.0000 C   0  0  0  0  0  0  0  0  0  0  0  0
    3.9934    0.0000    0.0000 C   0  0  0  0  0  0  0  0  0  0  0  0
    2.5645   -0.0000    0.0000 C   0  0  0  0  0  0  0  0  0  0  0  0
    2.5645    0.8250    0.0000 C   0  0  0  0  0  0  0  0  0  0  0  0
    1.2949    0.4125    0.0000 C   0  0  0  0  0  0  0  0  0  0  0  0
    1.7798   -0.2549    0.0000 C   0  0  0  0  0  0  0  0  0  0  0  0
    5.8348   -0.7145    0.0000 O   0  0  0  0  0  0  0  0  0  0  0  0
    5.0098    0.7145    0.0000 O   0  0  0  0  0  0  0  0  0  0  0  0
    0.4699    0.4125    0.0000 O   0  0  0  0  0  0  0  0  0  0  0  0
    1.7798    1.0799    0.0000 O   0  0  0  0  0  0  0  0  0  0  0  0
    4.7079   -0.4125    0.0000 O   0  0  0  0  0  0  0  0  0  0  0  0
    5.4223    0.0000    0.0000 S   0  0  0  0  0  0  0  0  0  0  0  0
  5  1  1  0  0  0  0
  7  6  2  0  0  0  0
  9  6  1  0  0  0  0
  9  8  2  0  0  0  0
 10  8  1  0  0  0  0
 11  7  1  0  0  0  0
 11 10  2  0  0  0  0
 13  2  1  0  0  0  0
 13  3  1  0  0  0  0
 13 10  1  0  0  0  0
 13 12  1  0  0  0  0
 16  5  1  0  0  0  0
 16 12  1  0  0  0  0
 17 11  1  0  0  0  0
 17 12  1  0  0  0  0
 18  9  1  0  0  0  0
 19  4  1  0  0  0  0
 19 14  2  0  0  0  0
 19 15  2  0  0  0  0
 19 18  1  0  0  0  0
M  END