375
  Mrv0541 07281413492D          

 25 24  0  0  0  0            999 V2000
   17.2065   -7.8079    0.0000 C   0  0  0  0  0  0  0  0  0  0  0  0
    4.3461   -2.8579    0.0000 C   0  0  0  0  0  0  0  0  0  0  0  0
   16.4921   -7.3954    0.0000 C   0  0  0  0  0  0  0  0  0  0  0  0
    5.0605   -2.4454    0.0000 C   0  0  0  0  0  0  0  0  0  0  0  0
   16.4921   -6.5704    0.0000 C   0  0  0  0  0  0  0  0  0  0  0  0
    5.7750   -2.8579    0.0000 C   0  0  0  0  0  0  0  0  0  0  0  0
   15.7776   -6.1579    0.0000 C   0  0  0  0  0  0  0  0  0  0  0  0
    6.4895   -2.4454    0.0000 C   0  0  0  0  0  0  0  0  0  0  0  0
   15.7776   -5.3329    0.0000 C   0  0  0  0  0  0  0  0  0  0  0  0
    7.2039   -2.8579    0.0000 C   0  0  0  0  0  0  0  0  0  0  0  0
   15.0631   -4.9204    0.0000 C   0  0  0  0  0  0  0  0  0  0  0  0
    7.9184   -2.4454    0.0000 C   0  0  0  0  0  0  0  0  0  0  0  0
   15.0631   -4.0954    0.0000 C   0  0  0  0  0  0  0  0  0  0  0  0
    8.6329   -2.8579    0.0000 C   0  0  0  0  0  0  0  0  0  0  0  0
   14.3487   -3.6829    0.0000 C   0  0  0  0  0  0  0  0  0  0  0  0
    9.3474   -2.4454    0.0000 C   0  0  0  0  0  0  0  0  0  0  0  0
   14.3487   -2.8579    0.0000 C   0  0  0  0  0  0  0  0  0  0  0  0
   10.0618   -2.8579    0.0000 C   0  0  0  0  0  0  0  0  0  0  0  0
   13.6342   -2.4454    0.0000 C   0  0  0  0  0  0  0  0  0  0  0  0
   10.7763   -2.4454    0.0000 C   0  0  0  0  0  0  0  0  0  0  0  0
   12.9197   -2.8579    0.0000 C   0  0  0  0  0  0  0  0  0  0  0  0
   11.4908   -2.8579    0.0000 C   0  0  0  0  0  0  0  0  0  0  0  0
   12.2052   -2.4454    0.0000 C   0  0  0  0  0  0  0  0  0  0  0  0
   15.0631   -2.4454    0.0000 H   0  0  0  0  0  0  0  0  0  0  0  0
   13.6342   -1.6204    0.0000 H   0  0  0  0  0  0  0  0  0  0  0  0
  3  1  1  0  0  0  0
  4  2  1  0  0  0  0
  5  3  1  0  0  0  0
  6  4  1  0  0  0  0
  7  5  1  0  0  0  0
  8  6  1  0  0  0  0
  9  7  1  0  0  0  0
 10  8  1  0  0  0  0
 11  9  1  0  0  0  0
 12 10  1  0  0  0  0
 13 11  1  0  0  0  0
 14 12  1  0  0  0  0
 15 13  1  0  0  0  0
 16 14  1  0  0  0  0
 17 15  1  0  0  0  0
 18 16  1  0  0  0  0
 19 17  2  0  0  0  0
 20 18  1  0  0  0  0
 21 19  1  0  0  0  0
 22 20  1  0  0  0  0
 23 21  1  0  0  0  0
 23 22  1  0  0  0  0
 24 17  1  0  0  0  0
 25 19  1  0  0  0  0
M  END