378
  Mrv0541 07281413492D          

 19 19  0  0  0  0            999 V2000
    0.0000   -1.6500    0.0000 C   0  0  0  0  0  0  0  0  0  0  0  0
   -1.4289    0.8250    0.0000 C   0  0  0  0  0  0  0  0  0  0  0  0
    0.7145    2.0625    0.0000 C   0  0  0  0  0  0  0  0  0  0  0  0
    0.9059   -1.9520    0.0000 C   0  0  0  0  0  0  0  0  0  0  0  0
    3.3809   -1.9520    0.0000 C   0  0  0  0  0  0  0  0  0  0  0  0
   -0.7145   -1.2375    0.0000 C   0  0  0  0  0  0  0  0  0  0  0  0
   -1.4289   -0.0000    0.0000 C   0  0  0  0  0  0  0  0  0  0  0  0
    1.4289    0.8250    0.0000 C   0  0  0  0  0  0  0  0  0  0  0  0
    0.7145    1.2375    0.0000 C   0  0  0  0  0  0  0  0  0  0  0  0
    1.4289    0.0000    0.0000 C   0  0  0  0  0  0  0  0  0  0  0  0
    0.0000   -0.0000    0.0000 C   0  0  0  0  0  0  0  0  0  0  0  0
    0.0000    0.8250    0.0000 N   0  0  0  0  0  0  0  0  0  0  0  0
    0.7145   -0.4125    0.0000 N   0  0  0  0  0  0  0  0  0  0  0  0
   -0.7145   -0.4125    0.0000 N   0  0  0  0  0  0  0  0  0  0  0  0
    1.3184   -1.2375    0.0000 O   0  0  0  0  0  0  0  0  0  0  0  0
    2.9684   -1.2375    0.0000 O   0  0  0  0  0  0  0  0  0  0  0  0
    2.1434   -0.4125    0.0000 O   0  0  0  0  0  0  0  0  0  0  0  0
    2.1434   -1.2375    0.0000 P   0  0  0  0  0  0  0  0  0  0  0  0
    2.1434   -2.0625    0.0000 S   0  0  0  0  0  0  0  0  0  0  0  0
  6  1  1  0  0  0  0
  7  2  1  0  0  0  0
  9  3  1  0  0  0  0
  9  8  2  0  0  0  0
 10  8  1  0  0  0  0
 12  9  1  0  0  0  0
 12 11  2  0  0  0  0
 13 10  2  0  0  0  0
 13 11  1  0  0  0  0
 14  6  1  0  0  0  0
 14  7  1  0  0  0  0
 14 11  1  0  0  0  0
 15  4  1  0  0  0  0
 16  5  1  0  0  0  0
 17 10  1  0  0  0  0
 18 15  1  0  0  0  0
 18 16  1  0  0  0  0
 18 17  1  0  0  0  0
 19 18  2  0  0  0  0
M  END