382
  Mrv0541 07281413492D          

 18 17  0  0  0  0            999 V2000
    2.9684    2.0625    0.0000 C   0  0  0  0  0  0  0  0  0  0  0  0
    5.6645    0.4125    0.0000 C   0  0  0  0  0  0  0  0  0  0  0  0
    5.6645   -1.0164    0.0000 C   0  0  0  0  0  0  0  0  0  0  0  0
    3.1895    0.4125    0.0000 C   0  0  0  0  0  0  0  0  0  0  0  0
    0.1105    0.4125    0.0000 C   0  0  0  0  0  0  0  0  0  0  0  0
    2.2539    1.6500    0.0000 C   0  0  0  0  0  0  0  0  0  0  0  0
    3.1895   -1.0164    0.0000 C   0  0  0  0  0  0  0  0  0  0  0  0
    5.2520   -0.3020    0.0000 C   0  0  0  0  0  0  0  0  0  0  0  0
    2.7770   -0.3020    0.0000 C   0  0  0  0  0  0  0  0  0  0  0  0
    4.0145   -1.0164    0.0000 C   0  0  0  0  0  0  0  0  0  0  0  0
    2.2539    0.8250    0.0000 N   0  0  0  0  0  0  0  0  0  0  0  0
    4.4270   -1.7309    0.0000 O   0  0  0  0  0  0  0  0  0  0  0  0
    0.8250   -0.0000    0.0000 O   0  0  0  0  0  0  0  0  0  0  0  0
    4.4270   -0.3020    0.0000 O   0  0  0  0  0  0  0  0  0  0  0  0
    1.9520   -0.3020    0.0000 O   0  0  0  0  0  0  0  0  0  0  0  0
    1.5395    0.4125    0.0000 P   0  0  0  0  0  0  0  0  0  0  0  0
    1.1270    1.1270    0.0000 S   0  0  0  0  0  0  0  0  0  0  0  0
    2.7770   -1.7309    0.0000 H   0  0  0  0  0  0  0  0  0  0  0  0
  6  1  1  0  0  0  0
  8  2  1  0  0  0  0
  8  3  1  0  0  0  0
  9  4  1  0  0  0  0
  9  7  2  0  0  0  0
 10  7  1  0  0  0  0
 11  6  1  0  0  0  0
 12 10  2  0  0  0  0
 13  5  1  0  0  0  0
 14  8  1  0  0  0  0
 14 10  1  0  0  0  0
 15  9  1  0  0  0  0
 16 11  1  0  0  0  0
 16 13  1  0  0  0  0
 16 15  1  0  0  0  0
 17 16  2  0  0  0  0
 18  7  1  0  0  0  0
M  END