384
  Mrv0541 07281413492D          

 18 20  0  0  0  0            999 V2000
    1.1224    1.1050    0.0000 C   0  0  0  0  0  0  0  0  0  0  0  0
    1.1224   -1.2274    0.0000 C   0  0  0  0  0  0  0  0  0  0  0  0
    5.2025   -0.0612    0.0000 C   0  0  0  0  0  0  0  0  0  0  0  0
    3.9650    0.6533    0.0000 C   0  0  0  0  0  0  0  0  0  0  0  0
    3.9650   -0.7757    0.0000 C   0  0  0  0  0  0  0  0  0  0  0  0
    0.7434   -0.0612    0.0000 C   0  0  0  0  0  0  0  0  0  0  0  0
    4.7900    0.6533    0.0000 C   0  0  0  0  0  0  0  0  0  0  0  0
    4.7900   -0.7757    0.0000 C   0  0  0  0  0  0  0  0  0  0  0  0
    3.5525   -0.0612    0.0000 C   0  0  0  0  0  0  0  0  0  0  0  0
    2.2425    0.6062    0.0000 C   0  0  0  0  0  0  0  0  0  0  0  0
    2.2425   -0.7286    0.0000 C   0  0  0  0  0  0  0  0  0  0  0  0
    1.4579    0.3513    0.0000 C   0  0  0  0  0  0  0  0  0  0  0  0
    1.4579   -0.4737    0.0000 C   0  0  0  0  0  0  0  0  0  0  0  0
    5.2025    1.3677    0.0000 Cl  0  0  0  0  0  0  0  0  0  0  0  0
    5.2025   -1.4901    0.0000 Cl  0  0  0  0  0  0  0  0  0  0  0  0
    2.7275   -0.0612    0.0000 N   0  0  0  0  0  0  0  0  0  0  0  0
    2.4975    1.3909    0.0000 O   0  0  0  0  0  0  0  0  0  0  0  0
    2.4975   -1.5133    0.0000 O   0  0  0  0  0  0  0  0  0  0  0  0
  7  3  2  0  0  0  0
  7  4  1  0  0  0  0
  8  3  1  0  0  0  0
  8  5  2  0  0  0  0
  9  4  2  0  0  0  0
  9  5  1  0  0  0  0
 12  1  1  0  0  0  0
 12  6  1  0  0  0  0
 12 10  1  0  0  0  0
 13  2  1  0  0  0  0
 13  6  1  0  0  0  0
 13 11  1  0  0  0  0
 13 12  1  0  0  0  0
 14  7  1  0  0  0  0
 15  8  1  0  0  0  0
 16  9  1  0  0  0  0
 16 10  1  0  0  0  0
 16 11  1  0  0  0  0
 17 10  2  0  0  0  0
 18 11  2  0  0  0  0
M  END