385
  Mrv0541 07281413492D          

 24 25  0  0  0  0            999 V2000
    5.7158   -0.0000    0.0000 C   0  0  0  0  0  0  0  0  0  0  0  0
    8.5737    7.4250    0.0000 C   0  0  0  0  0  0  0  0  0  0  0  0
    4.2868    2.4750    0.0000 C   0  0  0  0  0  0  0  0  0  0  0  0
    7.1447    4.9500    0.0000 C   0  0  0  0  0  0  0  0  0  0  0  0
    4.2868    4.9500    0.0000 C   0  0  0  0  0  0  0  0  0  0  0  0
    6.4302    1.2375    0.0000 C   0  0  0  0  0  0  0  0  0  0  0  0
    7.1447    7.4250    0.0000 C   0  0  0  0  0  0  0  0  0  0  0  0
    6.4302    2.0625    0.0000 C   0  0  0  0  0  0  0  0  0  0  0  0
    6.4302    7.0125    0.0000 C   0  0  0  0  0  0  0  0  0  0  0  0
    5.0013    1.2375    0.0000 C   0  0  0  0  0  0  0  0  0  0  0  0
    7.8592    6.1875    0.0000 C   0  0  0  0  0  0  0  0  0  0  0  0
    5.0013    3.7125    0.0000 C   0  0  0  0  0  0  0  0  0  0  0  0
    5.7158    4.9500    0.0000 C   0  0  0  0  0  0  0  0  0  0  0  0
    5.7158    0.8250    0.0000 C   0  0  0  0  0  0  0  0  0  0  0  0
    7.8592    7.0125    0.0000 C   0  0  0  0  0  0  0  0  0  0  0  0
    5.0013    2.0625    0.0000 C   0  0  0  0  0  0  0  0  0  0  0  0
    7.1447    5.7750    0.0000 C   0  0  0  0  0  0  0  0  0  0  0  0
    5.7158    2.4750    0.0000 C   0  0  0  0  0  0  0  0  0  0  0  0
    6.4302    6.1875    0.0000 C   0  0  0  0  0  0  0  0  0  0  0  0
    5.7158    3.3000    0.0000 N   0  0  0  0  0  0  0  0  0  0  0  0
    5.7158    5.7750    0.0000 N   0  0  0  0  0  0  0  0  0  0  0  0
    5.0013    4.5375    0.0000 N   0  0  0  0  0  0  0  0  0  0  0  0
    4.2868    3.3000    0.0000 H   0  0  0  0  0  0  0  0  0  0  0  0
    6.4302    4.5375    0.0000 H   0  0  0  0  0  0  0  0  0  0  0  0
  8  6  2  0  0  0  0
  9  7  2  0  0  0  0
 14  1  1  0  0  0  0
 14  6  1  0  0  0  0
 14 10  2  0  0  0  0
 15  2  1  0  0  0  0
 15  7  1  0  0  0  0
 15 11  2  0  0  0  0
 16  3  1  0  0  0  0
 16 10  1  0  0  0  0
 17  4  1  0  0  0  0
 17 11  1  0  0  0  0
 18  8  1  0  0  0  0
 18 16  2  0  0  0  0
 19  9  1  0  0  0  0
 19 17  2  0  0  0  0
 20 12  2  0  0  0  0
 20 18  1  0  0  0  0
 21 13  2  0  0  0  0
 21 19  1  0  0  0  0
 22  5  1  0  0  0  0
 22 12  1  0  0  0  0
 22 13  1  0  0  0  0
 23 12  1  0  0  0  0
 24 13  1  0  0  0  0
M  END