388
  Mrv0541 07281413492D          

 18 18  0  0  0  0            999 V2000
    7.2849    1.9520    0.0000 C   0  0  0  0  0  0  0  0  0  0  0  0
    2.3349    0.5230    0.0000 C   0  0  0  0  0  0  0  0  0  0  0  0
    3.9849    3.3809    0.0000 C   0  0  0  0  0  0  0  0  0  0  0  0
    6.4599    1.9520    0.0000 C   0  0  0  0  0  0  0  0  0  0  0  0
    2.7474    1.2375    0.0000 C   0  0  0  0  0  0  0  0  0  0  0  0
    6.0474    4.0954    0.0000 C   0  0  0  0  0  0  0  0  0  0  0  0
    5.2224    4.0954    0.0000 C   0  0  0  0  0  0  0  0  0  0  0  0
    6.4599    3.3809    0.0000 C   0  0  0  0  0  0  0  0  0  0  0  0
    6.0474    1.2375    0.0000 C   0  0  0  0  0  0  0  0  0  0  0  0
    3.9849    1.9520    0.0000 C   0  0  0  0  0  0  0  0  0  0  0  0
    4.8099    3.3809    0.0000 C   0  0  0  0  0  0  0  0  0  0  0  0
    6.0474    2.6664    0.0000 C   0  0  0  0  0  0  0  0  0  0  0  0
    5.2224    1.2375    0.0000 C   0  0  0  0  0  0  0  0  0  0  0  0
    5.2224    2.6664    0.0000 C   0  0  0  0  0  0  0  0  0  0  0  0
    6.4599    0.5230    0.0000 Cl  0  0  0  0  0  0  0  0  0  0  0  0
    4.8099    1.9520    0.0000 N   0  0  0  0  0  0  0  0  0  0  0  0
    4.8099    0.5230    0.0000 O   0  0  0  0  0  0  0  0  0  0  0  0
    3.5724    1.2375    0.0000 O   0  0  0  0  0  0  0  0  0  0  0  0
  4  1  1  0  0  0  0
  5  2  1  0  0  0  0
  7  6  2  0  0  0  0
  8  6  1  0  0  0  0
 11  3  1  0  0  0  0
 11  7  1  0  0  0  0
 12  4  1  0  0  0  0
 12  8  2  0  0  0  0
 13  9  1  0  0  0  0
 14 11  2  0  0  0  0
 14 12  1  0  0  0  0
 15  9  1  0  0  0  0
 16 10  1  0  0  0  0
 16 13  1  0  0  0  0
 16 14  1  0  0  0  0
 17 13  2  0  0  0  0
 18  5  1  0  0  0  0
 18 10  1  0  0  0  0
M  END