389
  Mrv0541 07281413492D          

 18 18  0  0  0  0            999 V2000
   -2.4750   -0.2211    0.0000 C   0  0  0  0  0  0  0  0  0  0  0  0
   -2.1434   -2.0625    0.0000 C   0  0  0  0  0  0  0  0  0  0  0  0
   -0.0000    2.4750    0.0000 C   0  0  0  0  0  0  0  0  0  0  0  0
   -1.6500   -0.2211    0.0000 C   0  0  0  0  0  0  0  0  0  0  0  0
   -1.4289   -1.6500    0.0000 C   0  0  0  0  0  0  0  0  0  0  0  0
    1.4289    0.0000    0.0000 C   0  0  0  0  0  0  0  0  0  0  0  0
   -0.0000    0.0000    0.0000 C   0  0  0  0  0  0  0  0  0  0  0  0
    1.4289    0.8250    0.0000 C   0  0  0  0  0  0  0  0  0  0  0  0
   -0.0000    0.8250    0.0000 C   0  0  0  0  0  0  0  0  0  0  0  0
   -1.2375   -0.9355    0.0000 C   0  0  0  0  0  0  0  0  0  0  0  0
    0.7145   -0.4125    0.0000 C   0  0  0  0  0  0  0  0  0  0  0  0
    0.7145    1.2375    0.0000 C   0  0  0  0  0  0  0  0  0  0  0  0
   -0.7145   -2.0625    0.0000 O   0  0  0  0  0  0  0  0  0  0  0  0
    0.7145   -1.2375    0.0000 O   0  0  0  0  0  0  0  0  0  0  0  0
   -0.0000   -1.6500    0.0000 P   0  0  0  0  0  0  0  0  0  0  0  0
    0.4125   -2.3645    0.0000 S   0  0  0  0  0  0  0  0  0  0  0  0
    0.7145    2.0625    0.0000 S   0  0  0  0  0  0  0  0  0  0  0  0
   -0.4125   -0.9355    0.0000 S   0  0  0  0  0  0  0  0  0  0  0  0
  4  1  1  0  0  0  0
  5  2  1  0  0  0  0
  8  6  1  0  0  0  0
  9  7  2  0  0  0  0
 10  4  1  0  0  0  0
 11  6  2  0  0  0  0
 11  7  1  0  0  0  0
 12  8  2  0  0  0  0
 12  9  1  0  0  0  0
 13  5  1  0  0  0  0
 14 11  1  0  0  0  0
 15 13  1  0  0  0  0
 15 14  1  0  0  0  0
 16 15  2  0  0  0  0
 17  3  1  0  0  0  0
 17 12  1  0  0  0  0
 18 10  1  0  0  0  0
 18 15  1  0  0  0  0
M  END