390
  Mrv0541 07281413492D          

 19 20  0  0  0  0            999 V2000
   -2.5223    4.8873    0.0000 C   0  0  0  0  0  0  0  0  0  0  0  0
   -0.0626    3.6341    0.0000 C   0  0  0  0  0  0  0  0  0  0  0  0
    1.3556    0.6979    0.0000 C   0  0  0  0  0  0  0  0  0  0  0  0
    2.0701    1.9354    0.0000 C   0  0  0  0  0  0  0  0  0  0  0  0
   -0.3984    2.9750    0.0000 C   0  0  0  0  0  0  0  0  0  0  0  0
    2.0701    1.1104    0.0000 C   0  0  0  0  0  0  0  0  0  0  0  0
    0.6411    1.1104    0.0000 C   0  0  0  0  0  0  0  0  0  0  0  0
    0.6411    1.9354    0.0000 C   0  0  0  0  0  0  0  0  0  0  0  0
   -0.6284    1.5229    0.0000 C   0  0  0  0  0  0  0  0  0  0  0  0
    2.7845    0.6979    0.0000 Cl  0  0  0  0  0  0  0  0  0  0  0  0
    1.3556    2.3479    0.0000 N   0  0  0  0  0  0  0  0  0  0  0  0
   -0.1435    2.1904    0.0000 N   0  0  0  0  0  0  0  0  0  0  0  0
   -1.4534    1.5229    0.0000 O   0  0  0  0  0  0  0  0  0  0  0  0
   -2.2450    3.6762    0.0000 O   0  0  0  0  0  0  0  0  0  0  0  0
   -1.7153    4.7158    0.0000 O   0  0  0  0  0  0  0  0  0  0  0  0
   -0.6757    4.1861    0.0000 O   0  0  0  0  0  0  0  0  0  0  0  0
   -0.1435    0.8555    0.0000 O   0  0  0  0  0  0  0  0  0  0  0  0
   -1.4604    3.9312    0.0000 P   0  0  0  0  0  0  0  0  0  0  0  0
   -1.2054    3.1465    0.0000 S   0  0  0  0  0  0  0  0  0  0  0  0
  6  3  2  0  0  0  0
  6  4  1  0  0  0  0
  7  3  1  0  0  0  0
  8  7  2  0  0  0  0
 10  6  1  0  0  0  0
 11  4  2  0  0  0  0
 11  8  1  0  0  0  0
 12  5  1  0  0  0  0
 12  8  1  0  0  0  0
 12  9  1  0  0  0  0
 13  9  2  0  0  0  0
 15  1  1  0  0  0  0
 16  2  1  0  0  0  0
 17  7  1  0  0  0  0
 17  9  1  0  0  0  0
 18 14  2  0  0  0  0
 18 15  1  0  0  0  0
 18 16  1  0  0  0  0
 19  5  1  0  0  0  0
 19 18  1  0  0  0  0
M  END