391
  Mrv0541 07281413492D          

 28 30  0  0  0  0            999 V2000
   -0.6077    0.6119    0.0000 C   0  0  0  0  0  0  0  0  0  0  0  0
    4.6184   -0.9817    0.0000 C   0  0  0  0  0  0  0  0  0  0  0  0
   -0.2721   -0.1418    0.0000 C   0  0  0  0  0  0  0  0  0  0  0  0
   -0.1228    1.2793    0.0000 C   0  0  0  0  0  0  0  0  0  0  0  0
    4.9540   -0.2280    0.0000 C   0  0  0  0  0  0  0  0  0  0  0  0
    3.7980   -1.0679    0.0000 C   0  0  0  0  0  0  0  0  0  0  0  0
    0.5484   -0.2280    0.0000 C   0  0  0  0  0  0  0  0  0  0  0  0
    0.6977    1.1931    0.0000 C   0  0  0  0  0  0  0  0  0  0  0  0
    4.4691    0.4394    0.0000 C   0  0  0  0  0  0  0  0  0  0  0  0
    3.3130   -0.4005    0.0000 C   0  0  0  0  0  0  0  0  0  0  0  0
    1.0333    0.4394    0.0000 C   0  0  0  0  0  0  0  0  0  0  0  0
    3.6486    0.3532    0.0000 C   0  0  0  0  0  0  0  0  0  0  0  0
    3.4186    1.8053    0.0000 C   0  0  0  0  0  0  0  0  0  0  0  0
    2.7512    2.2902    0.0000 C   0  0  0  0  0  0  0  0  0  0  0  0
    2.3387    1.0206    0.0000 C   0  0  0  0  0  0  0  0  0  0  0  0
    4.8163    1.5082    0.0000 C   0  0  0  0  0  0  0  0  0  0  0  0
    2.0367    3.5277    0.0000 C   0  0  0  0  0  0  0  0  0  0  0  0
    5.4294    0.9561    0.0000 F   0  0  0  0  0  0  0  0  0  0  0  0
    5.3684    2.1213    0.0000 F   0  0  0  0  0  0  0  0  0  0  0  0
    4.2643    0.8951    0.0000 F   0  0  0  0  0  0  0  0  0  0  0  0
    1.3222    3.9402    0.0000 F   0  0  0  0  0  0  0  0  0  0  0  0
    2.4492    4.2422    0.0000 F   0  0  0  0  0  0  0  0  0  0  0  0
    1.6242    2.8132    0.0000 F   0  0  0  0  0  0  0  0  0  0  0  0
    1.8538    0.3532    0.0000 N   0  0  0  0  0  0  0  0  0  0  0  0
    4.2032    2.0602    0.0000 N   0  0  0  0  0  0  0  0  0  0  0  0
    2.7512    3.1152    0.0000 N   0  0  0  0  0  0  0  0  0  0  0  0
    3.1637    1.0206    0.0000 N   0  0  0  0  0  0  0  0  0  0  0  0
    2.0837    1.8053    0.0000 S   0  0  0  0  0  0  0  0  0  0  0  0
  3  1  2  0  0  0  0
  4  1  1  0  0  0  0
  5  2  2  0  0  0  0
  6  2  1  0  0  0  0
  7  3  1  0  0  0  0
  8  4  2  0  0  0  0
  9  5  1  0  0  0  0
 10  6  2  0  0  0  0
 11  7  2  0  0  0  0
 11  8  1  0  0  0  0
 12  9  2  0  0  0  0
 12 10  1  0  0  0  0
 14 13  1  0  0  0  0
 18 16  1  0  0  0  0
 19 16  1  0  0  0  0
 20 16  1  0  0  0  0
 21 17  1  0  0  0  0
 22 17  1  0  0  0  0
 23 17  1  0  0  0  0
 24 11  1  0  0  0  0
 24 15  2  0  0  0  0
 25 13  2  0  0  0  0
 25 16  1  0  0  0  0
 26 14  2  0  0  0  0
 26 17  1  0  0  0  0
 27 12  1  0  0  0  0
 27 13  1  0  0  0  0
 27 15  1  0  0  0  0
 28 14  1  0  0  0  0
 28 15  1  0  0  0  0
M  END