393
  Mrv0541 07281413492D          

 14 16  0  0  0  0            999 V2000
    3.3523    1.1104    0.0000 C   0  0  0  0  0  0  0  0  0  0  0  0
    3.3523    1.9354    0.0000 C   0  0  0  0  0  0  0  0  0  0  0  0
   -1.4407    1.1104    0.0000 C   0  0  0  0  0  0  0  0  0  0  0  0
    2.6378    0.6979    0.0000 C   0  0  0  0  0  0  0  0  0  0  0  0
    2.6378    2.3479    0.0000 C   0  0  0  0  0  0  0  0  0  0  0  0
   -0.6561    0.8555    0.0000 C   0  0  0  0  0  0  0  0  0  0  0  0
   -1.4407    1.9354    0.0000 C   0  0  0  0  0  0  0  0  0  0  0  0
    1.9233    1.1104    0.0000 C   0  0  0  0  0  0  0  0  0  0  0  0
    1.9233    1.9354    0.0000 C   0  0  0  0  0  0  0  0  0  0  0  0
   -0.1712    1.5229    0.0000 C   0  0  0  0  0  0  0  0  0  0  0  0
    0.6538    1.5229    0.0000 C   0  0  0  0  0  0  0  0  0  0  0  0
    1.1387    0.8555    0.0000 N   0  0  0  0  0  0  0  0  0  0  0  0
    1.1387    2.1904    0.0000 N   0  0  0  0  0  0  0  0  0  0  0  0
   -0.6561    2.1904    0.0000 O   0  0  0  0  0  0  0  0  0  0  0  0
  2  1  2  0  0  0  0
  4  1  1  0  0  0  0
  5  2  1  0  0  0  0
  6  3  1  0  0  0  0
  7  3  2  0  0  0  0
  8  4  2  0  0  0  0
  9  5  2  0  0  0  0
  9  8  1  0  0  0  0
 10  6  2  0  0  0  0
 11 10  1  0  0  0  0
 12  8  1  0  0  0  0
 12 11  1  0  0  0  0
 13  9  1  0  0  0  0
 13 11  2  0  0  0  0
 14  7  1  0  0  0  0
 14 10  1  0  0  0  0
M  END