395
  Mrv0541 07281413492D          

 22 23  0  0  0  0            999 V2000
    5.6091    4.0634    0.0000 C   0  0  0  0  0  0  0  0  0  0  0  0
    4.1335   -2.6660    0.0000 C   0  0  0  0  0  0  0  0  0  0  0  0
    2.9812   -2.4835    0.0000 C   0  0  0  0  0  0  0  0  0  0  0  0
    4.3160   -1.5137    0.0000 C   0  0  0  0  0  0  0  0  0  0  0  0
    4.8946    3.6509    0.0000 C   0  0  0  0  0  0  0  0  0  0  0  0
    4.1801    3.2384    0.0000 C   0  0  0  0  0  0  0  0  0  0  0  0
    2.0367    2.0009    0.0000 C   0  0  0  0  0  0  0  0  0  0  0  0
    3.4656    1.1759    0.0000 C   0  0  0  0  0  0  0  0  0  0  0  0
    2.0367    1.1759    0.0000 C   0  0  0  0  0  0  0  0  0  0  0  0
    2.7512    2.4134    0.0000 C   0  0  0  0  0  0  0  0  0  0  0  0
    2.7512    0.7634    0.0000 C   0  0  0  0  0  0  0  0  0  0  0  0
    3.4656    2.0009    0.0000 C   0  0  0  0  0  0  0  0  0  0  0  0
    3.1637   -1.3312    0.0000 C   0  0  0  0  0  0  0  0  0  0  0  0
    2.0837   -0.5465    0.0000 C   0  0  0  0  0  0  0  0  0  0  0  0
    3.6486   -1.9986    0.0000 C   0  0  0  0  0  0  0  0  0  0  0  0
    1.3222    0.7634    0.0000 Cl  0  0  0  0  0  0  0  0  0  0  0  0
    2.7512    3.2384    0.0000 Cl  0  0  0  0  0  0  0  0  0  0  0  0
    3.4186   -0.5465    0.0000 N   0  0  0  0  0  0  0  0  0  0  0  0
    2.7512   -0.0616    0.0000 N   0  0  0  0  0  0  0  0  0  0  0  0
    1.2991   -0.2916    0.0000 O   0  0  0  0  0  0  0  0  0  0  0  0
    4.1801    2.4134    0.0000 O   0  0  0  0  0  0  0  0  0  0  0  0
    2.3387   -1.3312    0.0000 O   0  0  0  0  0  0  0  0  0  0  0  0
  5  1  3  0  0  0  0
  6  5  1  0  0  0  0
  9  7  2  0  0  0  0
 10  7  1  0  0  0  0
 11  8  2  0  0  0  0
 11  9  1  0  0  0  0
 12  8  1  0  0  0  0
 12 10  2  0  0  0  0
 15  2  1  0  0  0  0
 15  3  1  0  0  0  0
 15  4  1  0  0  0  0
 15 13  1  0  0  0  0
 16  9  1  0  0  0  0
 17 10  1  0  0  0  0
 18 13  2  0  0  0  0
 19 11  1  0  0  0  0
 19 14  1  0  0  0  0
 19 18  1  0  0  0  0
 20 14  2  0  0  0  0
 21  6  1  0  0  0  0
 21 12  1  0  0  0  0
 22 13  1  0  0  0  0
 22 14  1  0  0  0  0
M  END