398
  Mrv0541 07281413492D          

 18 18  0  0  0  0            999 V2000
    2.6664    0.3316    0.0000 C   0  0  0  0  0  0  0  0  0  0  0  0
    3.5724    2.8875    0.0000 C   0  0  0  0  0  0  0  0  0  0  0  0
    3.0789    1.0461    0.0000 C   0  0  0  0  0  0  0  0  0  0  0  0
    2.8579    2.4750    0.0000 C   0  0  0  0  0  0  0  0  0  0  0  0
    1.4289    0.0000    0.0000 C   0  0  0  0  0  0  0  0  0  0  0  0
    1.4289    0.8250    0.0000 C   0  0  0  0  0  0  0  0  0  0  0  0
    2.6664    1.7605    0.0000 C   0  0  0  0  0  0  0  0  0  0  0  0
   -0.0000    0.0000    0.0000 C   0  0  0  0  0  0  0  0  0  0  0  0
    0.7145   -0.4125    0.0000 C   0  0  0  0  0  0  0  0  0  0  0  0
   -0.0000    0.8250    0.0000 C   0  0  0  0  0  0  0  0  0  0  0  0
    0.7145    1.2375    0.0000 C   0  0  0  0  0  0  0  0  0  0  0  0
    0.7145   -1.2375    0.0000 Br  0  0  0  0  0  0  0  0  0  0  0  0
   -0.7145    1.2375    0.0000 Cl  0  0  0  0  0  0  0  0  0  0  0  0
    1.0164    3.1895    0.0000 O   0  0  0  0  0  0  0  0  0  0  0  0
    2.1434    2.8875    0.0000 O   0  0  0  0  0  0  0  0  0  0  0  0
    0.7145    2.0625    0.0000 O   0  0  0  0  0  0  0  0  0  0  0  0
    1.4289    2.4750    0.0000 P   0  0  0  0  0  0  0  0  0  0  0  0
    1.8414    1.7605    0.0000 S   0  0  0  0  0  0  0  0  0  0  0  0
  3  1  1  0  0  0  0
  4  2  1  0  0  0  0
  6  5  2  0  0  0  0
  7  3  1  0  0  0  0
  9  5  1  0  0  0  0
  9  8  2  0  0  0  0
 10  8  1  0  0  0  0
 11  6  1  0  0  0  0
 11 10  2  0  0  0  0
 12  9  1  0  0  0  0
 13 10  1  0  0  0  0
 15  4  1  0  0  0  0
 16 11  1  0  0  0  0
 17 14  2  0  0  0  0
 17 15  1  0  0  0  0
 17 16  1  0  0  0  0
 18  7  1  0  0  0  0
 18 17  1  0  0  0  0
M  END