400
  Mrv0541 07281413492D          

 13 15  0  0  0  0            999 V2000
    4.2139    3.5638    0.0000 C   0  0  0  0  0  0  0  0  0  0  0  0
    5.4962    1.7974    0.0000 C   0  0  0  0  0  0  0  0  0  0  0  0
    5.2568    2.5869    0.0000 C   0  0  0  0  0  0  0  0  0  0  0  0
    4.9322    1.1953    0.0000 C   0  0  0  0  0  0  0  0  0  0  0  0
    2.4068    2.6864    0.0000 C   0  0  0  0  0  0  0  0  0  0  0  0
    4.4534    2.7743    0.0000 C   0  0  0  0  0  0  0  0  0  0  0  0
    4.1288    1.3827    0.0000 C   0  0  0  0  0  0  0  0  0  0  0  0
    3.8894    2.1722    0.0000 C   0  0  0  0  0  0  0  0  0  0  0  0
    2.7942    1.4090    0.0000 C   0  0  0  0  0  0  0  0  0  0  0  0
    1.7299    2.2148    0.0000 N   0  0  0  0  0  0  0  0  0  0  0  0
    1.9693    1.4253    0.0000 N   0  0  0  0  0  0  0  0  0  0  0  0
    3.0645    2.1885    0.0000 N   0  0  0  0  0  0  0  0  0  0  0  0
    3.4519    0.9110    0.0000 S   0  0  0  0  0  0  0  0  0  0  0  0
  3  2  2  0  0  0  0
  4  2  1  0  0  0  0
  6  1  1  0  0  0  0
  6  3  1  0  0  0  0
  7  4  2  0  0  0  0
  8  6  2  0  0  0  0
  8  7  1  0  0  0  0
 10  5  2  0  0  0  0
 11  9  2  0  0  0  0
 11 10  1  0  0  0  0
 12  5  1  0  0  0  0
 12  8  1  0  0  0  0
 12  9  1  0  0  0  0
 13  7  1  0  0  0  0
 13  9  1  0  0  0  0
M  END