401
  Mrv0541 07281413492D          

 18 18  0  0  0  0            999 V2000
    2.9322    0.9228    0.0000 C   0  0  0  0  0  0  0  0  0  0  0  0
    0.8697    4.4952    0.0000 C   0  0  0  0  0  0  0  0  0  0  0  0
    0.0059   -1.5764    0.0000 C   0  0  0  0  0  0  0  0  0  0  0  0
   -1.1501   -0.7365    0.0000 C   0  0  0  0  0  0  0  0  0  0  0  0
    2.5197    1.6373    0.0000 C   0  0  0  0  0  0  0  0  0  0  0  0
    1.2822    3.7807    0.0000 C   0  0  0  0  0  0  0  0  0  0  0  0
   -0.3297   -0.8227    0.0000 C   0  0  0  0  0  0  0  0  0  0  0  0
    0.9803   -0.1553    0.0000 C   0  0  0  0  0  0  0  0  0  0  0  0
    0.5678    1.1143    0.0000 C   0  0  0  0  0  0  0  0  0  0  0  0
    1.4652   -0.8227    0.0000 Cl  0  0  0  0  0  0  0  0  0  0  0  0
    1.2352    0.6294    0.0000 N   0  0  0  0  0  0  0  0  0  0  0  0
   -0.0997    0.6294    0.0000 N   0  0  0  0  0  0  0  0  0  0  0  0
    0.1553   -0.1553    0.0000 N   0  0  0  0  0  0  0  0  0  0  0  0
    1.6947    1.6373    0.0000 O   0  0  0  0  0  0  0  0  0  0  0  0
    0.8697    3.0663    0.0000 O   0  0  0  0  0  0  0  0  0  0  0  0
    0.5678    1.9393    0.0000 O   0  0  0  0  0  0  0  0  0  0  0  0
    1.2822    2.3518    0.0000 P   0  0  0  0  0  0  0  0  0  0  0  0
    1.9967    2.7643    0.0000 S   0  0  0  0  0  0  0  0  0  0  0  0
  5  1  1  0  0  0  0
  6  2  1  0  0  0  0
  7  3  1  0  0  0  0
  7  4  1  0  0  0  0
 10  8  1  0  0  0  0
 11  8  2  0  0  0  0
 11  9  1  0  0  0  0
 12  9  2  0  0  0  0
 13  7  1  0  0  0  0
 13  8  1  0  0  0  0
 13 12  1  0  0  0  0
 14  5  1  0  0  0  0
 15  6  1  0  0  0  0
 16  9  1  0  0  0  0
 17 14  1  0  0  0  0
 17 15  1  0  0  0  0
 17 16  1  0  0  0  0
 18 17  2  0  0  0  0
M  END