403
  Mrv0541 07281413492D          

 20 21  0  0  0  0            999 V2000
    0.7145    2.6411    0.0000 C   0  0  0  0  0  0  0  0  0  0  0  0
    1.8414    2.3391    0.0000 C   0  0  0  0  0  0  0  0  0  0  0  0
    1.0164    3.7680    0.0000 C   0  0  0  0  0  0  0  0  0  0  0  0
    5.7158    3.0536    0.0000 C   0  0  0  0  0  0  0  0  0  0  0  0
    5.0013    1.8161    0.0000 C   0  0  0  0  0  0  0  0  0  0  0  0
    5.0013    3.4661    0.0000 C   0  0  0  0  0  0  0  0  0  0  0  0
    4.2868    2.2286    0.0000 C   0  0  0  0  0  0  0  0  0  0  0  0
    2.4454    0.9590    0.0000 C   0  0  0  0  0  0  0  0  0  0  0  0
    3.5253    1.7437    0.0000 C   0  0  0  0  0  0  0  0  0  0  0  0
    5.7158    2.2286    0.0000 C   0  0  0  0  0  0  0  0  0  0  0  0
    4.2868    3.0536    0.0000 C   0  0  0  0  0  0  0  0  0  0  0  0
    2.1434    3.4661    0.0000 C   0  0  0  0  0  0  0  0  0  0  0  0
    2.8579    3.0536    0.0000 C   0  0  0  0  0  0  0  0  0  0  0  0
    1.4289    3.0536    0.0000 C   0  0  0  0  0  0  0  0  0  0  0  0
    6.4302    1.8161    0.0000 Cl  0  0  0  0  0  0  0  0  0  0  0  0
    3.2704    0.9590    0.0000 N   0  0  0  0  0  0  0  0  0  0  0  0
    2.1904    1.7437    0.0000 N   0  0  0  0  0  0  0  0  0  0  0  0
    2.8579    2.2286    0.0000 N   0  0  0  0  0  0  0  0  0  0  0  0
    2.1434    4.2911    0.0000 O   0  0  0  0  0  0  0  0  0  0  0  0
    3.5724    3.4661    0.0000 O   0  0  0  0  0  0  0  0  0  0  0  0
  6  4  1  0  0  0  0
  7  5  2  0  0  0  0
 10  4  2  0  0  0  0
 10  5  1  0  0  0  0
 11  6  2  0  0  0  0
 11  7  1  0  0  0  0
 13 12  1  0  0  0  0
 14  1  1  0  0  0  0
 14  2  1  0  0  0  0
 14  3  1  0  0  0  0
 14 12  1  0  0  0  0
 15 10  1  0  0  0  0
 16  8  1  0  0  0  0
 16  9  2  0  0  0  0
 17  8  2  0  0  0  0
 18  9  1  0  0  0  0
 18 13  1  0  0  0  0
 18 17  1  0  0  0  0
 19 12  2  0  0  0  0
 20 11  1  0  0  0  0
 20 13  1  0  0  0  0
M  END