405
  Mrv0541 07281413492D          

 21 21  0  0  0  0            999 V2000
   -0.7145    5.3625    0.0000 C   0  0  0  0  0  0  0  0  0  0  0  0
    0.8250    4.7289    0.0000 C   0  0  0  0  0  0  0  0  0  0  0  0
   -0.7145    4.5375    0.0000 C   0  0  0  0  0  0  0  0  0  0  0  0
    1.2375    4.0145    0.0000 C   0  0  0  0  0  0  0  0  0  0  0  0
    1.4289    0.0000    0.0000 C   0  0  0  0  0  0  0  0  0  0  0  0
    1.4289    0.8250    0.0000 C   0  0  0  0  0  0  0  0  0  0  0  0
   -0.0000    0.0000    0.0000 C   0  0  0  0  0  0  0  0  0  0  0  0
    1.4289    2.4750    0.0000 C   0  0  0  0  0  0  0  0  0  0  0  0
    0.7145   -0.4125    0.0000 C   0  0  0  0  0  0  0  0  0  0  0  0
    0.7145    1.2375    0.0000 C   0  0  0  0  0  0  0  0  0  0  0  0
   -0.0000    0.8250    0.0000 C   0  0  0  0  0  0  0  0  0  0  0  0
    0.7145    2.0625    0.0000 C   0  0  0  0  0  0  0  0  0  0  0  0
    2.1434    2.0625    0.0000 Cl  0  0  0  0  0  0  0  0  0  0  0  0
    0.7145   -1.2375    0.0000 Cl  0  0  0  0  0  0  0  0  0  0  0  0
   -0.7145    1.2375    0.0000 Cl  0  0  0  0  0  0  0  0  0  0  0  0
   -0.8250    3.3000    0.0000 O   0  0  0  0  0  0  0  0  0  0  0  0
   -0.0000    4.1250    0.0000 O   0  0  0  0  0  0  0  0  0  0  0  0
    0.8250    3.3000    0.0000 O   0  0  0  0  0  0  0  0  0  0  0  0
   -0.0000    2.4750    0.0000 O   0  0  0  0  0  0  0  0  0  0  0  0
   -0.0000    3.3000    0.0000 P   0  0  0  0  0  0  0  0  0  0  0  0
    1.4289    3.3000    0.0000 H   0  0  0  0  0  0  0  0  0  0  0  0
  3  1  1  0  0  0  0
  4  2  1  0  0  0  0
  6  5  2  0  0  0  0
  9  5  1  0  0  0  0
  9  7  2  0  0  0  0
 10  6  1  0  0  0  0
 11  7  1  0  0  0  0
 11 10  2  0  0  0  0
 12  8  2  0  0  0  0
 12 10  1  0  0  0  0
 13  8  1  0  0  0  0
 14  9  1  0  0  0  0
 15 11  1  0  0  0  0
 17  3  1  0  0  0  0
 18  4  1  0  0  0  0
 19 12  1  0  0  0  0
 20 16  2  0  0  0  0
 20 17  1  0  0  0  0
 20 18  1  0  0  0  0
 20 19  1  0  0  0  0
 21  8  1  0  0  0  0
M  END