407
  Mrv0541 07281413492D          

 18 19  0  0  0  0            999 V2000
    2.4541    3.6879    0.0000 C   0  0  0  0  0  0  0  0  0  0  0  0
    3.3032    2.9033    0.0000 C   0  0  0  0  0  0  0  0  0  0  0  0
    2.1991    2.9033    0.0000 C   0  0  0  0  0  0  0  0  0  0  0  0
    4.6184   -0.9817    0.0000 C   0  0  0  0  0  0  0  0  0  0  0  0
    4.4691    0.4394    0.0000 C   0  0  0  0  0  0  0  0  0  0  0  0
    3.3130   -0.4005    0.0000 C   0  0  0  0  0  0  0  0  0  0  0  0
    4.9540   -0.2280    0.0000 C   0  0  0  0  0  0  0  0  0  0  0  0
    3.7980   -1.0679    0.0000 C   0  0  0  0  0  0  0  0  0  0  0  0
    3.6486    0.3532    0.0000 C   0  0  0  0  0  0  0  0  0  0  0  0
    3.4186    1.8053    0.0000 C   0  0  0  0  0  0  0  0  0  0  0  0
    2.3387    1.0206    0.0000 C   0  0  0  0  0  0  0  0  0  0  0  0
    2.7512    2.2902    0.0000 C   0  0  0  0  0  0  0  0  0  0  0  0
    5.7745   -0.1418    0.0000 Cl  0  0  0  0  0  0  0  0  0  0  0  0
    3.4624   -1.8216    0.0000 Cl  0  0  0  0  0  0  0  0  0  0  0  0
    3.1637    1.0206    0.0000 N   0  0  0  0  0  0  0  0  0  0  0  0
    4.2032    2.0602    0.0000 O   0  0  0  0  0  0  0  0  0  0  0  0
    1.8538    0.3532    0.0000 O   0  0  0  0  0  0  0  0  0  0  0  0
    2.0837    1.8053    0.0000 O   0  0  0  0  0  0  0  0  0  0  0  0
  3  1  2  0  0  0  0
  7  4  2  0  0  0  0
  7  5  1  0  0  0  0
  8  4  1  0  0  0  0
  8  6  2  0  0  0  0
  9  5  2  0  0  0  0
  9  6  1  0  0  0  0
 12  2  1  0  0  0  0
 12  3  1  0  0  0  0
 12 10  1  0  0  0  0
 13  7  1  0  0  0  0
 14  8  1  0  0  0  0
 15  9  1  0  0  0  0
 15 10  1  0  0  0  0
 15 11  1  0  0  0  0
 16 10  2  0  0  0  0
 17 11  2  0  0  0  0
 18 11  1  0  0  0  0
 18 12  1  0  0  0  0
M  END