414
  Mrv0541 07281413492D          

 25 27  0  0  0  0            999 V2000
    0.7145    2.6411    0.0000 C   0  0  0  0  0  0  0  0  0  0  0  0
    1.8414    2.3391    0.0000 C   0  0  0  0  0  0  0  0  0  0  0  0
    1.0164    3.7680    0.0000 C   0  0  0  0  0  0  0  0  0  0  0  0
    7.8592    0.9911    0.0000 C   0  0  0  0  0  0  0  0  0  0  0  0
    7.8592    1.8161    0.0000 C   0  0  0  0  0  0  0  0  0  0  0  0
    7.1447    0.5786    0.0000 C   0  0  0  0  0  0  0  0  0  0  0  0
    7.1447    2.2286    0.0000 C   0  0  0  0  0  0  0  0  0  0  0  0
    6.4302    0.9911    0.0000 C   0  0  0  0  0  0  0  0  0  0  0  0
    5.7158    3.0536    0.0000 C   0  0  0  0  0  0  0  0  0  0  0  0
    5.0013    1.8161    0.0000 C   0  0  0  0  0  0  0  0  0  0  0  0
    5.0013    3.4661    0.0000 C   0  0  0  0  0  0  0  0  0  0  0  0
    4.2868    2.2286    0.0000 C   0  0  0  0  0  0  0  0  0  0  0  0
    2.4454    0.9590    0.0000 C   0  0  0  0  0  0  0  0  0  0  0  0
    3.5253    1.7437    0.0000 C   0  0  0  0  0  0  0  0  0  0  0  0
    6.4302    1.8161    0.0000 C   0  0  0  0  0  0  0  0  0  0  0  0
    5.7158    2.2286    0.0000 C   0  0  0  0  0  0  0  0  0  0  0  0
    4.2868    3.0536    0.0000 C   0  0  0  0  0  0  0  0  0  0  0  0
    2.1434    3.4661    0.0000 C   0  0  0  0  0  0  0  0  0  0  0  0
    2.8579    3.0536    0.0000 C   0  0  0  0  0  0  0  0  0  0  0  0
    1.4289    3.0536    0.0000 C   0  0  0  0  0  0  0  0  0  0  0  0
    3.2704    0.9590    0.0000 N   0  0  0  0  0  0  0  0  0  0  0  0
    2.1904    1.7437    0.0000 N   0  0  0  0  0  0  0  0  0  0  0  0
    2.8579    2.2286    0.0000 N   0  0  0  0  0  0  0  0  0  0  0  0
    2.1434    4.2911    0.0000 O   0  0  0  0  0  0  0  0  0  0  0  0
    3.5724    3.4661    0.0000 O   0  0  0  0  0  0  0  0  0  0  0  0
  5  4  2  0  0  0  0
  6  4  1  0  0  0  0
  7  5  1  0  0  0  0
  8  6  2  0  0  0  0
 11  9  1  0  0  0  0
 12 10  2  0  0  0  0
 15  7  2  0  0  0  0
 15  8  1  0  0  0  0
 16  9  2  0  0  0  0
 16 10  1  0  0  0  0
 16 15  1  0  0  0  0
 17 11  2  0  0  0  0
 17 12  1  0  0  0  0
 19 18  1  0  0  0  0
 20  1  1  0  0  0  0
 20  2  1  0  0  0  0
 20  3  1  0  0  0  0
 20 18  1  0  0  0  0
 21 13  1  0  0  0  0
 21 14  2  0  0  0  0
 22 13  2  0  0  0  0
 23 14  1  0  0  0  0
 23 19  1  0  0  0  0
 23 22  1  0  0  0  0
 24 18  1  0  0  0  0
 25 17  1  0  0  0  0
 25 19  1  0  0  0  0
M  END