418
  Mrv0541 07281413492D          

 19 18  0  0  0  0            999 V2000
   -0.6039    3.6829    0.0000 C   0  0  0  0  0  0  0  0  0  0  0  0
    2.9684    1.6204    0.0000 C   0  0  0  0  0  0  0  0  0  0  0  0
    3.6829    0.8250    0.0000 C   0  0  0  0  0  0  0  0  0  0  0  0
   -0.6039    0.0000    0.0000 C   0  0  0  0  0  0  0  0  0  0  0  0
    0.1105    3.2704    0.0000 C   0  0  0  0  0  0  0  0  0  0  0  0
    2.2539    2.0329    0.0000 C   0  0  0  0  0  0  0  0  0  0  0  0
    2.9684    0.4125    0.0000 C   0  0  0  0  0  0  0  0  0  0  0  0
    0.1105    0.4125    0.0000 C   0  0  0  0  0  0  0  0  0  0  0  0
    1.5395    1.8414    0.0000 C   0  0  0  0  0  0  0  0  0  0  0  0
    0.8250    3.6829    0.0000 O   0  0  0  0  0  0  0  0  0  0  0  0
    2.2539    2.8579    0.0000 O   0  0  0  0  0  0  0  0  0  0  0  0
    2.2539    0.8250    0.0000 O   0  0  0  0  0  0  0  0  0  0  0  0
    0.8250   -0.0000    0.0000 O   0  0  0  0  0  0  0  0  0  0  0  0
    1.5395    3.2704    0.0000 P   0  0  0  0  0  0  0  0  0  0  0  0
    1.5395    0.4125    0.0000 P   0  0  0  0  0  0  0  0  0  0  0  0
    1.9520    3.9849    0.0000 S   0  0  0  0  0  0  0  0  0  0  0  0
    1.9520   -0.3020    0.0000 S   0  0  0  0  0  0  0  0  0  0  0  0
    1.1270    2.5559    0.0000 S   0  0  0  0  0  0  0  0  0  0  0  0
    1.1270    1.1270    0.0000 S   0  0  0  0  0  0  0  0  0  0  0  0
  5  1  1  0  0  0  0
  6  2  1  0  0  0  0
  7  3  1  0  0  0  0
  8  4  1  0  0  0  0
 10  5  1  0  0  0  0
 11  6  1  0  0  0  0
 12  7  1  0  0  0  0
 13  8  1  0  0  0  0
 14 10  1  0  0  0  0
 14 11  1  0  0  0  0
 15 12  1  0  0  0  0
 15 13  1  0  0  0  0
 16 14  2  0  0  0  0
 17 15  2  0  0  0  0
 18  9  1  0  0  0  0
 18 14  1  0  0  0  0
 19  9  1  0  0  0  0
 19 15  1  0  0  0  0
M  END