419
  Mrv0541 07281413492D          

 22 23  0  0  0  0            999 V2000
   -0.2211   -4.1250    0.0000 C   0  0  0  0  0  0  0  0  0  0  0  0
   -1.6500   -4.1250    0.0000 C   0  0  0  0  0  0  0  0  0  0  0  0
   -0.2211   -1.6500    0.0000 C   0  0  0  0  0  0  0  0  0  0  0  0
   -1.6500   -1.6500    0.0000 C   0  0  0  0  0  0  0  0  0  0  0  0
   -0.2211   -0.8250    0.0000 C   0  0  0  0  0  0  0  0  0  0  0  0
   -1.6500   -0.8250    0.0000 C   0  0  0  0  0  0  0  0  0  0  0  0
    0.3020   -2.1730    0.0000 C   0  0  0  0  0  0  0  0  0  0  0  0
    0.3020   -3.6020    0.0000 C   0  0  0  0  0  0  0  0  0  0  0  0
    1.5395   -2.8875    0.0000 C   0  0  0  0  0  0  0  0  0  0  0  0
   -0.9355   -3.7125    0.0000 C   0  0  0  0  0  0  0  0  0  0  0  0
   -0.9355   -2.0625    0.0000 C   0  0  0  0  0  0  0  0  0  0  0  0
   -0.1105   -2.8875    0.0000 C   0  0  0  0  0  0  0  0  0  0  0  0
   -0.9355   -0.4125    0.0000 C   0  0  0  0  0  0  0  0  0  0  0  0
   -0.9355   -2.8875    0.0000 C   0  0  0  0  0  0  0  0  0  0  0  0
   -1.6500    0.8250    0.0000 C   0  0  0  0  0  0  0  0  0  0  0  0
   -2.3645    1.2375    0.0000 F   0  0  0  0  0  0  0  0  0  0  0  0
   -1.2375    1.5395    0.0000 F   0  0  0  0  0  0  0  0  0  0  0  0
   -2.0625    0.1105    0.0000 F   0  0  0  0  0  0  0  0  0  0  0  0
    1.1270   -2.1730    0.0000 N   0  0  0  0  0  0  0  0  0  0  0  0
    1.1270   -3.6020    0.0000 N   0  0  0  0  0  0  0  0  0  0  0  0
   -1.7605   -2.8875    0.0000 O   0  0  0  0  0  0  0  0  0  0  0  0
   -0.9355    0.4125    0.0000 O   0  0  0  0  0  0  0  0  0  0  0  0
  5  3  1  0  0  0  0
  6  4  2  0  0  0  0
 10  1  1  0  0  0  0
 10  2  1  0  0  0  0
 11  3  2  0  0  0  0
 11  4  1  0  0  0  0
 12  7  2  0  0  0  0
 12  8  1  0  0  0  0
 13  5  2  0  0  0  0
 13  6  1  0  0  0  0
 14 10  1  0  0  0  0
 14 11  1  0  0  0  0
 14 12  1  0  0  0  0
 16 15  1  0  0  0  0
 17 15  1  0  0  0  0
 18 15  1  0  0  0  0
 19  7  1  0  0  0  0
 19  9  2  0  0  0  0
 20  8  2  0  0  0  0
 20  9  1  0  0  0  0
 21 14  1  0  0  0  0
 22 13  1  0  0  0  0
 22 15  1  0  0  0  0
M  END