421
  Mrv0541 07281413492D          

 16 17  0  0  0  0            999 V2000
    1.5681    0.2754    0.0000 C   0  0  0  0  0  0  0  0  0  0  0  0
    2.4866   -0.8192    0.0000 C   0  0  0  0  0  0  0  0  0  0  0  0
    2.9753    0.5235    0.0000 C   0  0  0  0  0  0  0  0  0  0  0  0
    0.4474   -0.5371    0.0000 C   0  0  0  0  0  0  0  0  0  0  0  0
    1.4918   -1.7818    0.0000 C   0  0  0  0  0  0  0  0  0  0  0  0
    1.7113   -0.5371    0.0000 C   0  0  0  0  0  0  0  0  0  0  0  0
    2.2001    0.8057    0.0000 C   0  0  0  0  0  0  0  0  0  0  0  0
    3.1186   -0.2889    0.0000 C   0  0  0  0  0  0  0  0  0  0  0  0
    1.0793   -1.0674    0.0000 C   0  0  0  0  0  0  0  0  0  0  0  0
   -0.3279   -0.8192    0.0000 C   0  0  0  0  0  0  0  0  0  0  0  0
    2.0568    1.6182    0.0000 Cl  0  0  0  0  0  0  0  0  0  0  0  0
    3.8938   -0.5711    0.0000 Cl  0  0  0  0  0  0  0  0  0  0  0  0
   -1.1031   -1.1014    0.0000 Cl  0  0  0  0  0  0  0  0  0  0  0  0
   -0.6101   -0.0440    0.0000 Cl  0  0  0  0  0  0  0  0  0  0  0  0
   -0.0457   -1.5945    0.0000 Cl  0  0  0  0  0  0  0  0  0  0  0  0
    0.6668   -1.7818    0.0000 O   0  0  0  0  0  0  0  0  0  0  0  0
  6  1  2  0  0  0  0
  6  2  1  0  0  0  0
  7  1  1  0  0  0  0
  7  3  2  0  0  0  0
  8  2  2  0  0  0  0
  8  3  1  0  0  0  0
  9  4  1  0  0  0  0
  9  5  1  0  0  0  0
  9  6  1  0  0  0  0
 10  4  1  0  0  0  0
 11  7  1  0  0  0  0
 12  8  1  0  0  0  0
 13 10  1  0  0  0  0
 14 10  1  0  0  0  0
 15 10  1  0  0  0  0
 16  5  1  0  0  0  0
 16  9  1  0  0  0  0
M  END