426
  Mrv0541 07281413492D          

 24 26  0  0  0  0            999 V2000
   -0.7145    1.2375    0.0000 C   0  0  0  0  0  0  0  0  0  0  0  0
    0.7145   -2.8875    0.0000 C   0  0  0  0  0  0  0  0  0  0  0  0
    1.4289   -2.4750    0.0000 C   0  0  0  0  0  0  0  0  0  0  0  0
   -0.0000   -2.4750    0.0000 C   0  0  0  0  0  0  0  0  0  0  0  0
    2.8579    2.4750    0.0000 C   0  0  0  0  0  0  0  0  0  0  0  0
    1.4289   -1.6500    0.0000 C   0  0  0  0  0  0  0  0  0  0  0  0
   -0.0000   -1.6500    0.0000 C   0  0  0  0  0  0  0  0  0  0  0  0
    2.1434    2.0625    0.0000 C   0  0  0  0  0  0  0  0  0  0  0  0
    3.5724    2.0625    0.0000 C   0  0  0  0  0  0  0  0  0  0  0  0
    2.8579    0.8250    0.0000 C   0  0  0  0  0  0  0  0  0  0  0  0
   -0.0000   -0.0000    0.0000 C   0  0  0  0  0  0  0  0  0  0  0  0
    0.7145    1.2375    0.0000 C   0  0  0  0  0  0  0  0  0  0  0  0
    0.7145   -1.2375    0.0000 C   0  0  0  0  0  0  0  0  0  0  0  0
    2.1434    1.2375    0.0000 C   0  0  0  0  0  0  0  0  0  0  0  0
    3.5724    1.2375    0.0000 C   0  0  0  0  0  0  0  0  0  0  0  0
    0.7145   -0.4125    0.0000 C   0  0  0  0  0  0  0  0  0  0  0  0
    1.4289    0.8250    0.0000 C   0  0  0  0  0  0  0  0  0  0  0  0
    1.4289    0.0000    0.0000 C   0  0  0  0  0  0  0  0  0  0  0  0
    4.2868    0.8250    0.0000 C   0  0  0  0  0  0  0  0  0  0  0  0
    5.0013    0.4125    0.0000 F   0  0  0  0  0  0  0  0  0  0  0  0
    3.8743    0.1105    0.0000 F   0  0  0  0  0  0  0  0  0  0  0  0
    4.6993    1.5395    0.0000 F   0  0  0  0  0  0  0  0  0  0  0  0
   -0.0000    0.8250    0.0000 N   0  0  0  0  0  0  0  0  0  0  0  0
    2.1434   -0.4125    0.0000 O   0  0  0  0  0  0  0  0  0  0  0  0
  3  2  2  0  0  0  0
  4  2  1  0  0  0  0
  6  3  1  0  0  0  0
  7  4  2  0  0  0  0
  8  5  2  0  0  0  0
  9  5  1  0  0  0  0
 13  6  2  0  0  0  0
 13  7  1  0  0  0  0
 14  8  1  0  0  0  0
 14 10  2  0  0  0  0
 15  9  2  0  0  0  0
 15 10  1  0  0  0  0
 16 11  2  0  0  0  0
 16 13  1  0  0  0  0
 17 12  2  0  0  0  0
 17 14  1  0  0  0  0
 18 16  1  0  0  0  0
 18 17  1  0  0  0  0
 19 15  1  0  0  0  0
 20 19  1  0  0  0  0
 21 19  1  0  0  0  0
 22 19  1  0  0  0  0
 23  1  1  0  0  0  0
 23 11  1  0  0  0  0
 23 12  1  0  0  0  0
 24 18  2  0  0  0  0
M  END