427
  Mrv0541 07281413492D          

 19 21  0  0  0  0            999 V2000
    3.6790    2.4460    0.0000 C   0  0  0  0  0  0  0  0  0  0  0  0
    3.1270    1.8329    0.0000 C   0  0  0  0  0  0  0  0  0  0  0  0
    2.4174   -0.8343    0.0000 C   0  0  0  0  0  0  0  0  0  0  0  0
    3.2424   -0.8343    0.0000 C   0  0  0  0  0  0  0  0  0  0  0  0
    4.7409    1.4899    0.0000 C   0  0  0  0  0  0  0  0  0  0  0  0
    2.2778    1.0483    0.0000 C   0  0  0  0  0  0  0  0  0  0  0  0
    0.1433    1.0163    0.0000 C   0  0  0  0  0  0  0  0  0  0  0  0
    1.1353    0.1231    0.0000 C   0  0  0  0  0  0  0  0  0  0  0  0
    4.4860    2.2745    0.0000 C   0  0  0  0  0  0  0  0  0  0  0  0
    3.3819    1.0483    0.0000 C   0  0  0  0  0  0  0  0  0  0  0  0
    4.1889    0.8768    0.0000 C   0  0  0  0  0  0  0  0  0  0  0  0
    2.8299    0.4352    0.0000 C   0  0  0  0  0  0  0  0  0  0  0  0
    5.0380    2.8876    0.0000 Cl  0  0  0  0  0  0  0  0  0  0  0  0
    4.4438    0.0921    0.0000 Cl  0  0  0  0  0  0  0  0  0  0  0  0
    0.3148    0.2093    0.0000 N   0  0  0  0  0  0  0  0  0  0  0  0
    0.8578    1.4288    0.0000 N   0  0  0  0  0  0  0  0  0  0  0  0
    1.4709    0.8768    0.0000 N   0  0  0  0  0  0  0  0  0  0  0  0
    2.1624   -0.0497    0.0000 O   0  0  0  0  0  0  0  0  0  0  0  0
    3.4973   -0.0497    0.0000 O   0  0  0  0  0  0  0  0  0  0  0  0
  2  1  2  0  0  0  0
  4  3  1  0  0  0  0
  9  1  1  0  0  0  0
  9  5  2  0  0  0  0
 10  2  1  0  0  0  0
 11  5  1  0  0  0  0
 11 10  2  0  0  0  0
 12  6  1  0  0  0  0
 12 10  1  0  0  0  0
 13  9  1  0  0  0  0
 14 11  1  0  0  0  0
 15  7  1  0  0  0  0
 15  8  2  0  0  0  0
 16  7  2  0  0  0  0
 17  6  1  0  0  0  0
 17  8  1  0  0  0  0
 17 16  1  0  0  0  0
 18  3  1  0  0  0  0
 18 12  1  0  0  0  0
 19  4  1  0  0  0  0
 19 12  1  0  0  0  0
M  END