430
  Mrv0541 07281413492D          

 27 28  0  0  0  0            999 V2000
    0.9490    0.5456    0.0000 C   0  0  0  0  0  0  0  0  0  0  0  0
    2.8688    3.1970    0.0000 C   0  0  0  0  0  0  0  0  0  0  0  0
    1.4433    3.2962    0.0000 C   0  0  0  0  0  0  0  0  0  0  0  0
    3.3239   -0.5561    0.0000 C   0  0  0  0  0  0  0  0  0  0  0  0
    4.1225    0.6288    0.0000 C   0  0  0  0  0  0  0  0  0  0  0  0
    2.1847    3.6581    0.0000 C   0  0  0  0  0  0  0  0  0  0  0  0
    4.0652   -0.1942    0.0000 C   0  0  0  0  0  0  0  0  0  0  0  0
    2.6397   -0.0950    0.0000 C   0  0  0  0  0  0  0  0  0  0  0  0
    3.1551    2.4409    0.0000 C   0  0  0  0  0  0  0  0  0  0  0  0
    1.3860    2.4732    0.0000 C   0  0  0  0  0  0  0  0  0  0  0  0
    3.4384    1.0899    0.0000 C   0  0  0  0  0  0  0  0  0  0  0  0
    2.6970    0.7280    0.0000 C   0  0  0  0  0  0  0  0  0  0  0  0
    2.0701    2.0121    0.0000 C   0  0  0  0  0  0  0  0  0  0  0  0
    1.8856   -0.5662    0.0000 C   0  0  0  0  0  0  0  0  0  0  0  0
    2.2419    4.4811    0.0000 Br  0  0  0  0  0  0  0  0  0  0  0  0
    4.0962    2.0897    0.0000 Br  0  0  0  0  0  0  0  0  0  0  0  0
    0.5164    2.3561    0.0000 Br  0  0  0  0  0  0  0  0  0  0  0  0
    1.0963   -1.0055    0.0000 F   0  0  0  0  0  0  0  0  0  0  0  0
    1.5950    0.2402    0.0000 F   0  0  0  0  0  0  0  0  0  0  0  0
    2.0547   -1.4121    0.0000 F   0  0  0  0  0  0  0  0  0  0  0  0
    1.8394    1.0717    0.0000 N   0  0  0  0  0  0  0  0  0  0  0  0
    4.8132   -0.7106    0.0000 N   0  0  0  0  0  0  0  0  0  0  0  0
    3.5706    1.9522    0.0000 N   0  0  0  0  0  0  0  0  0  0  0  0
    5.6754   -0.5019    0.0000 O   0  0  0  0  0  0  0  0  0  0  0  0
    4.8915   -1.5921    0.0000 O   0  0  0  0  0  0  0  0  0  0  0  0
    2.7665    1.8726    0.0000 O   0  0  0  0  0  0  0  0  0  0  0  0
    4.1311    2.7452    0.0000 O   0  0  0  0  0  0  0  0  0  0  0  0
  6  2  2  0  0  0  0
  6  3  1  0  0  0  0
  7  4  2  0  0  0  0
  7  5  1  0  0  0  0
  8  4  1  0  0  0  0
  9  2  1  0  0  0  0
 10  3  2  0  0  0  0
 11  5  2  0  0  0  0
 12  8  2  0  0  0  0
 12 11  1  0  0  0  0
 13  9  2  0  0  0  0
 13 10  1  0  0  0  0
 14  8  1  0  0  0  0
 15  6  1  0  0  0  0
 16  9  1  0  0  0  0
 17 10  1  0  0  0  0
 18 14  1  0  0  0  0
 19 14  1  0  0  0  0
 20 14  1  0  0  0  0
 21  1  1  0  0  0  0
 21 12  1  0  0  0  0
 21 13  1  0  0  0  0
 22  7  1  0  0  0  0
 23 11  1  0  0  0  0
 24 22  2  0  0  0  0
 25 22  2  0  0  0  0
 26 23  2  0  0  0  0
 27 23  2  0  0  0  0
M  END