431
  Mrv0541 07281413492D          

 26 27  0  0  1  0            999 V2000
   -3.5724   -0.4125    0.0000 C   0  0  0  0  0  0  0  0  0  0  0  0
   -2.8579   -1.6500    0.0000 C   0  0  0  0  0  0  0  0  0  0  0  0
   -0.7145    0.4125    0.0000 C   0  0  0  0  0  0  0  0  0  0  0  0
    2.8579   -1.6500    0.0000 C   0  0  0  0  0  0  0  0  0  0  0  0
    2.8579   -0.8250    0.0000 C   0  0  0  0  0  0  0  0  0  0  0  0
    2.1434   -2.0625    0.0000 C   0  0  0  0  0  0  0  0  0  0  0  0
    2.1434   -0.4125    0.0000 C   0  0  0  0  0  0  0  0  0  0  0  0
    1.4289   -1.6500    0.0000 C   0  0  0  0  0  0  0  0  0  0  0  0
   -0.7145   -2.0625    0.0000 C   0  0  0  0  0  0  0  0  0  0  0  0
   -0.7145   -2.8875    0.0000 C   0  0  0  0  0  0  0  0  0  0  0  0
    0.7145   -2.0625    0.0000 C   0  0  0  0  0  0  0  0  0  0  0  0
   -2.8579   -0.8250    0.0000 C   0  0  0  0  0  0  0  0  0  0  0  0
   -0.7145   -0.4125    0.0000 C   0  0  2  0  0  0  0  0  0  0  0  0
    1.4289   -0.8250    0.0000 C   0  0  0  0  0  0  0  0  0  0  0  0
   -0.0000   -1.6500    0.0000 C   0  0  0  0  0  0  0  0  0  0  0  0
    0.7145   -2.8875    0.0000 C   0  0  0  0  0  0  0  0  0  0  0  0
   -0.0000   -3.3000    0.0000 C   0  0  0  0  0  0  0  0  0  0  0  0
    0.7145   -0.4125    0.0000 C   0  0  0  0  0  0  0  0  0  0  0  0
   -1.4289   -0.8250    0.0000 C   0  0  0  0  0  0  0  0  0  0  0  0
    1.4289   -3.3000    0.0000 Cl  0  0  0  0  0  0  0  0  0  0  0  0
   -0.0000   -4.1250    0.0000 F   0  0  0  0  0  0  0  0  0  0  0  0
   -0.0000   -0.8250    0.0000 N   0  0  0  0  0  0  0  0  0  0  0  0
    0.7145    0.4125    0.0000 O   0  0  0  0  0  0  0  0  0  0  0  0
   -1.4289   -1.6500    0.0000 O   0  0  0  0  0  0  0  0  0  0  0  0
   -2.1434   -0.4125    0.0000 O   0  0  0  0  0  0  0  0  0  0  0  0
   -1.4289    0.0000    0.0000 H   0  0  0  0  0  0  0  0  0  0  0  0
  5  4  2  0  0  0  0
  6  4  1  0  0  0  0
  7  5  1  0  0  0  0
  8  6  2  0  0  0  0
 10  9  2  0  0  0  0
 12  1  1  0  0  0  0
 12  2  1  0  0  0  0
 13  3  1  1  0  0  0
 14  7  2  0  0  0  0
 14  8  1  0  0  0  0
 15  9  1  0  0  0  0
 15 11  2  0  0  0  0
 16 11  1  0  0  0  0
 17 10  1  0  0  0  0
 17 16  2  0  0  0  0
 18 14  1  0  0  0  0
 19 13  1  0  0  0  0
 20 16  1  0  0  0  0
 21 17  1  0  0  0  0
 22 13  1  0  0  0  0
 22 15  1  0  0  0  0
 22 18  1  0  0  0  0
 23 18  2  0  0  0  0
 24 19  2  0  0  0  0
 25 12  1  0  0  0  0
 25 19  1  0  0  0  0
 13 26  1  6  0  0  0
M  END