432
  Mrv0541 07281413492D          

 24 25  0  0  0  0            999 V2000
   -2.8579    3.3000    0.0000 C   0  0  0  0  0  0  0  0  0  0  0  0
   -2.1434    3.7125    0.0000 C   0  0  0  0  0  0  0  0  0  0  0  0
   -3.5724    3.7125    0.0000 C   0  0  0  0  0  0  0  0  0  0  0  0
   -2.1434    4.5375    0.0000 C   0  0  0  0  0  0  0  0  0  0  0  0
   -5.7158    8.2500    0.0000 C   0  0  0  0  0  0  0  0  0  0  0  0
   -6.4302    7.0125    0.0000 C   0  0  0  0  0  0  0  0  0  0  0  0
   -6.4302    8.6625    0.0000 C   0  0  0  0  0  0  0  0  0  0  0  0
   -7.1447    7.4250    0.0000 C   0  0  0  0  0  0  0  0  0  0  0  0
   -5.7158    7.4250    0.0000 C   0  0  0  0  0  0  0  0  0  0  0  0
   -7.1447    8.2500    0.0000 C   0  0  0  0  0  0  0  0  0  0  0  0
   -3.5724    4.5375    0.0000 C   0  0  0  0  0  0  0  0  0  0  0  0
   -2.8579    4.9500    0.0000 C   0  0  0  0  0  0  0  0  0  0  0  0
   -4.2868    4.9500    0.0000 C   0  0  0  0  0  0  0  0  0  0  0  0
   -5.0013    6.1875    0.0000 C   0  0  0  0  0  0  0  0  0  0  0  0
   -8.5737    8.2500    0.0000 C   0  0  0  0  0  0  0  0  0  0  0  0
   -2.8579    5.7750    0.0000 Cl  0  0  0  0  0  0  0  0  0  0  0  0
   -9.2881    7.8375    0.0000 F   0  0  0  0  0  0  0  0  0  0  0  0
   -8.9862    8.9645    0.0000 F   0  0  0  0  0  0  0  0  0  0  0  0
   -8.1612    7.5355    0.0000 F   0  0  0  0  0  0  0  0  0  0  0  0
   -5.0013    7.0125    0.0000 N   0  0  0  0  0  0  0  0  0  0  0  0
   -4.2868    5.7750    0.0000 N   0  0  0  0  0  0  0  0  0  0  0  0
   -5.0013    4.5375    0.0000 O   0  0  0  0  0  0  0  0  0  0  0  0
   -5.7158    5.7750    0.0000 O   0  0  0  0  0  0  0  0  0  0  0  0
   -7.8592    8.6625    0.0000 O   0  0  0  0  0  0  0  0  0  0  0  0
  2  1  2  0  0  0  0
  3  1  1  0  0  0  0
  4  2  1  0  0  0  0
  7  5  1  0  0  0  0
  8  6  2  0  0  0  0
  9  5  2  0  0  0  0
  9  6  1  0  0  0  0
 10  7  2  0  0  0  0
 10  8  1  0  0  0  0
 11  3  2  0  0  0  0
 12  4  2  0  0  0  0
 12 11  1  0  0  0  0
 13 11  1  0  0  0  0
 16 12  1  0  0  0  0
 17 15  1  0  0  0  0
 18 15  1  0  0  0  0
 19 15  1  0  0  0  0
 20  9  1  0  0  0  0
 20 14  1  0  0  0  0
 21 13  2  0  0  0  0
 21 14  1  4  0  0  0
 22 13  1  0  0  0  0
 23 14  2  0  0  0  0
 24 10  1  0  0  0  0
 24 15  1  0  0  0  0
M  END