434
  Mrv0541 07281413492D          

 39 41  0  0  0  0            999 V2000
   -5.0993    0.1433    0.0000 C   0  0  0  0  0  0  0  0  0  0  0  0
   -4.5690   -0.7752    0.0000 C   0  0  0  0  0  0  0  0  0  0  0  0
   -0.7145    3.7125    0.0000 C   0  0  0  0  0  0  0  0  0  0  0  0
   -2.1434    3.7125    0.0000 C   0  0  0  0  0  0  0  0  0  0  0  0
    0.7145   -1.2375    0.0000 C   0  0  0  0  0  0  0  0  0  0  0  0
    1.4289    0.0000    0.0000 C   0  0  0  0  0  0  0  0  0  0  0  0
   -1.4289    2.4750    0.0000 C   0  0  0  0  0  0  0  0  0  0  0  0
    0.0000    0.0000    0.0000 C   0  0  0  0  0  0  0  0  0  0  0  0
   -0.7145    4.5375    0.0000 C   0  0  0  0  0  0  0  0  0  0  0  0
   -2.1434    4.5375    0.0000 C   0  0  0  0  0  0  0  0  0  0  0  0
    1.4289   -1.6500    0.0000 C   0  0  0  0  0  0  0  0  0  0  0  0
    2.1434   -0.4125    0.0000 C   0  0  0  0  0  0  0  0  0  0  0  0
   -0.7145    2.0625    0.0000 C   0  0  0  0  0  0  0  0  0  0  0  0
    0.0000    0.8250    0.0000 C   0  0  0  0  0  0  0  0  0  0  0  0
   -4.2868    0.8250    0.0000 C   0  0  0  0  0  0  0  0  0  0  0  0
   -3.5724   -0.4125    0.0000 C   0  0  0  0  0  0  0  0  0  0  0  0
   -1.4289    3.3000    0.0000 C   0  0  0  0  0  0  0  0  0  0  0  0
    0.7145   -0.4125    0.0000 C   0  0  0  0  0  0  0  0  0  0  0  0
   -1.4289    4.9500    0.0000 C   0  0  0  0  0  0  0  0  0  0  0  0
    2.1434   -1.2375    0.0000 C   0  0  0  0  0  0  0  0  0  0  0  0
   -0.7145    1.2375    0.0000 C   0  0  0  0  0  0  0  0  0  0  0  0
   -2.8579    0.8250    0.0000 C   0  0  0  0  0  0  0  0  0  0  0  0
   -4.2868    0.0000    0.0000 C   0  0  0  0  0  0  0  0  0  0  0  0
   -1.4289    5.7750    0.0000 C   0  0  0  0  0  0  0  0  0  0  0  0
    2.8579   -1.6500    0.0000 C   0  0  0  0  0  0  0  0  0  0  0  0
   -1.4289    6.6000    0.0000 F   0  0  0  0  0  0  0  0  0  0  0  0
   -2.2539    5.7750    0.0000 F   0  0  0  0  0  0  0  0  0  0  0  0
   -0.6039    5.7750    0.0000 F   0  0  0  0  0  0  0  0  0  0  0  0
    3.5724   -2.0625    0.0000 F   0  0  0  0  0  0  0  0  0  0  0  0
    2.4454   -2.3645    0.0000 F   0  0  0  0  0  0  0  0  0  0  0  0
    3.2704   -0.9355    0.0000 F   0  0  0  0  0  0  0  0  0  0  0  0
   -3.5724    1.2375    0.0000 N   0  0  0  0  0  0  0  0  0  0  0  0
   -2.8579    0.0000    0.0000 N   0  0  0  0  0  0  0  0  0  0  0  0
   -1.4289    0.8250    0.0000 N   0  0  0  0  0  0  0  0  0  0  0  0
   -2.1434    1.2375    0.0000 N   0  0  0  0  0  0  0  0  0  0  0  0
   -2.1434    2.0625    0.0000 H   0  0  0  0  0  0  0  0  0  0  0  0
   -0.7145   -0.4125    0.0000 H   0  0  0  0  0  0  0  0  0  0  0  0
    0.0000    2.4750    0.0000 H   0  0  0  0  0  0  0  0  0  0  0  0
    0.7145    1.2375    0.0000 H   0  0  0  0  0  0  0  0  0  0  0  0
  9  3  1  0  0  0  0
 10  4  2  0  0  0  0
 11  5  1  0  0  0  0
 12  6  2  0  0  0  0
 13  7  2  0  0  0  0
 14  8  2  0  0  0  0
 17  3  2  0  0  0  0
 17  4  1  0  0  0  0
 17  7  1  0  0  0  0
 18  5  2  0  0  0  0
 18  6  1  0  0  0  0
 18  8  1  0  0  0  0
 19  9  2  0  0  0  0
 19 10  1  0  0  0  0
 20 11  2  0  0  0  0
 20 12  1  0  0  0  0
 21 13  1  0  0  0  0
 21 14  1  0  0  0  0
 23  1  1  0  0  0  0
 23  2  1  0  0  0  0
 23 15  1  0  0  0  0
 23 16  1  0  0  0  0
 24 19  1  0  0  0  0
 25 20  1  0  0  0  0
 26 24  1  0  0  0  0
 27 24  1  0  0  0  0
 28 24  1  0  0  0  0
 29 25  1  0  0  0  0
 30 25  1  0  0  0  0
 31 25  1  0  0  0  0
 32 15  1  0  0  0  0
 32 22  2  0  0  0  0
 33 16  1  0  0  0  0
 33 22  1  0  0  0  0
 34 21  2  0  0  0  0
 35 22  1  0  0  0  0
 35 34  1  0  0  0  0
 36  7  1  0  0  0  0
 37  8  1  0  0  0  0
 38 13  1  0  0  0  0
 39 14  1  0  0  0  0
M  END