436
  Mrv0541 07281413492D          

 17 18  0  0  0  0            999 V2000
    6.8513   -0.0000    0.0000 C   0  0  0  0  0  0  0  0  0  0  0  0
    1.0654   -0.6674    0.0000 C   0  0  0  0  0  0  0  0  0  0  0  0
    2.1154   -1.0086    0.0000 C   0  0  0  0  0  0  0  0  0  0  0  0
    6.1368    0.4125    0.0000 C   0  0  0  0  0  0  0  0  0  0  0  0
    3.9934    0.8250    0.0000 C   0  0  0  0  0  0  0  0  0  0  0  0
    3.2789    1.2375    0.0000 C   0  0  0  0  0  0  0  0  0  0  0  0
    3.2789   -0.4125    0.0000 C   0  0  0  0  0  0  0  0  0  0  0  0
    1.2949    0.4125    0.0000 C   0  0  0  0  0  0  0  0  0  0  0  0
    3.9934   -0.0000    0.0000 C   0  0  0  0  0  0  0  0  0  0  0  0
    2.5645   -0.0000    0.0000 C   0  0  0  0  0  0  0  0  0  0  0  0
    2.5645    0.8250    0.0000 C   0  0  0  0  0  0  0  0  0  0  0  0
    1.7798   -0.2549    0.0000 C   0  0  0  0  0  0  0  0  0  0  0  0
    5.0098    0.7145    0.0000 O   0  0  0  0  0  0  0  0  0  0  0  0
    5.8348   -0.7145    0.0000 O   0  0  0  0  0  0  0  0  0  0  0  0
    1.7798    1.0799    0.0000 O   0  0  0  0  0  0  0  0  0  0  0  0
    4.7079   -0.4125    0.0000 O   0  0  0  0  0  0  0  0  0  0  0  0
    5.4223   -0.0000    0.0000 S   0  0  0  0  0  0  0  0  0  0  0  0
  4  1  1  0  0  0  0
  6  5  2  0  0  0  0
  9  5  1  0  0  0  0
  9  7  2  0  0  0  0
 10  7  1  0  0  0  0
 11  6  1  0  0  0  0
 11 10  2  0  0  0  0
 12  2  1  0  0  0  0
 12  3  1  0  0  0  0
 12  8  1  0  0  0  0
 12 10  1  0  0  0  0
 15  8  1  0  0  0  0
 15 11  1  0  0  0  0
 16  9  1  0  0  0  0
 17  4  1  0  0  0  0
 17 13  2  0  0  0  0
 17 14  2  0  0  0  0
 17 16  1  0  0  0  0
M  END