439
  Mrv0541 07281413492D          

 24 25  0  0  0  0            999 V2000
    1.6204    1.5395    0.0000 C   0  0  0  0  0  0  0  0  0  0  0  0
    4.0954    2.9684    0.0000 C   0  0  0  0  0  0  0  0  0  0  0  0
    4.5079    2.2539    0.0000 C   0  0  0  0  0  0  0  0  0  0  0  0
    5.7454    1.5395    0.0000 C   0  0  0  0  0  0  0  0  0  0  0  0
    2.0329   -2.0329    0.0000 C   0  0  0  0  0  0  0  0  0  0  0  0
    2.8579   -2.0329    0.0000 C   0  0  0  0  0  0  0  0  0  0  0  0
    1.6204   -1.3184    0.0000 C   0  0  0  0  0  0  0  0  0  0  0  0
    2.0329    3.6829    0.0000 C   0  0  0  0  0  0  0  0  0  0  0  0
    1.6204    2.9684    0.0000 C   0  0  0  0  0  0  0  0  0  0  0  0
    2.8579    3.6829    0.0000 C   0  0  0  0  0  0  0  0  0  0  0  0
    3.2704   -1.3184    0.0000 C   0  0  0  0  0  0  0  0  0  0  0  0
    2.0329   -0.6039    0.0000 C   0  0  0  0  0  0  0  0  0  0  0  0
    3.2704    0.1105    0.0000 C   0  0  0  0  0  0  0  0  0  0  0  0
    2.0329    2.2539    0.0000 C   0  0  0  0  0  0  0  0  0  0  0  0
    3.2704    2.9684    0.0000 C   0  0  0  0  0  0  0  0  0  0  0  0
    4.0954    1.5395    0.0000 C   0  0  0  0  0  0  0  0  0  0  0  0
    2.8579   -0.6039    0.0000 C   0  0  0  0  0  0  0  0  0  0  0  0
    2.8579    0.8250    0.0000 C   0  0  0  0  0  0  0  0  0  0  0  0
    2.8579    2.2539    0.0000 C   0  0  0  0  0  0  0  0  0  0  0  0
    4.5079    0.8250    0.0000 C   0  0  0  0  0  0  0  0  0  0  0  0
    3.2704    1.5395    0.0000 N   0  0  0  0  0  0  0  0  0  0  0  0
    2.0329    0.8250    0.0000 O   0  0  0  0  0  0  0  0  0  0  0  0
    4.0954    0.1105    0.0000 O   0  0  0  0  0  0  0  0  0  0  0  0
    5.3329    0.8250    0.0000 O   0  0  0  0  0  0  0  0  0  0  0  0
  6  5  2  0  0  0  0
  7  5  1  0  0  0  0
  9  8  2  0  0  0  0
 10  8  1  0  0  0  0
 11  6  1  0  0  0  0
 12  7  2  0  0  0  0
 14  1  1  0  0  0  0
 14  9  1  0  0  0  0
 15  2  1  0  0  0  0
 15 10  2  0  0  0  0
 16  3  1  0  0  0  0
 17 11  2  0  0  0  0
 17 12  1  0  0  0  0
 17 13  1  0  0  0  0
 18 13  1  0  0  0  0
 19 14  2  0  0  0  0
 19 15  1  0  0  0  0
 20 16  1  0  0  0  0
 21 16  1  0  0  0  0
 21 18  1  0  0  0  0
 21 19  1  0  0  0  0
 22 18  2  0  0  0  0
 23 20  2  0  0  0  0
 24  4  1  0  0  0  0
 24 20  1  0  0  0  0
M  END