442
  Mrv0541 07281413492D          

 25 26  0  0  0  0            999 V2000
   -2.1434    6.1875    0.0000 C   0  0  0  0  0  0  0  0  0  0  0  0
   -4.2868    4.9500    0.0000 C   0  0  0  0  0  0  0  0  0  0  0  0
    0.0000    4.9500    0.0000 C   0  0  0  0  0  0  0  0  0  0  0  0
   -0.7145    6.1875    0.0000 C   0  0  0  0  0  0  0  0  0  0  0  0
    0.7145    5.3625    0.0000 C   0  0  0  0  0  0  0  0  0  0  0  0
    0.0000    6.6000    0.0000 C   0  0  0  0  0  0  0  0  0  0  0  0
    2.8579    4.9500    0.0000 C   0  0  0  0  0  0  0  0  0  0  0  0
    3.5724    6.1875    0.0000 C   0  0  0  0  0  0  0  0  0  0  0  0
   -2.1434    5.3625    0.0000 C   0  0  0  0  0  0  0  0  0  0  0  0
    3.5724    5.3625    0.0000 C   0  0  0  0  0  0  0  0  0  0  0  0
   -0.7145    5.3625    0.0000 C   0  0  0  0  0  0  0  0  0  0  0  0
    0.7145    6.1875    0.0000 C   0  0  0  0  0  0  0  0  0  0  0  0
    2.1434    5.3625    0.0000 C   0  0  0  0  0  0  0  0  0  0  0  0
    2.1434    6.1875    0.0000 C   0  0  0  0  0  0  0  0  0  0  0  0
   -2.8579    4.9500    0.0000 C   0  0  0  0  0  0  0  0  0  0  0  0
    4.2868    4.9500    0.0000 C   0  0  0  0  0  0  0  0  0  0  0  0
    1.4289    4.9500    0.0000 Cl  0  0  0  0  0  0  0  0  0  0  0  0
    5.0013    4.5375    0.0000 F   0  0  0  0  0  0  0  0  0  0  0  0
    3.8743    4.2355    0.0000 F   0  0  0  0  0  0  0  0  0  0  0  0
    4.6993    5.6645    0.0000 F   0  0  0  0  0  0  0  0  0  0  0  0
    2.8579    6.6000    0.0000 N   0  0  0  0  0  0  0  0  0  0  0  0
   -2.8579    4.1250    0.0000 O   0  0  0  0  0  0  0  0  0  0  0  0
   -3.5724    5.3625    0.0000 O   0  0  0  0  0  0  0  0  0  0  0  0
   -1.4289    4.9500    0.0000 O   0  0  0  0  0  0  0  0  0  0  0  0
    1.4289    6.6000    0.0000 O   0  0  0  0  0  0  0  0  0  0  0  0
  5  3  1  0  0  0  0
  6  4  2  0  0  0  0
  9  1  1  0  0  0  0
 10  7  2  0  0  0  0
 10  8  1  0  0  0  0
 11  3  2  0  0  0  0
 11  4  1  0  0  0  0
 12  5  2  0  0  0  0
 12  6  1  0  0  0  0
 13  7  1  0  0  0  0
 14 13  2  0  0  0  0
 15  9  1  0  0  0  0
 16 10  1  0  0  0  0
 17 13  1  0  0  0  0
 18 16  1  0  0  0  0
 19 16  1  0  0  0  0
 20 16  1  0  0  0  0
 21  8  2  0  0  0  0
 21 14  1  0  0  0  0
 22 15  2  0  0  0  0
 23  2  1  0  0  0  0
 23 15  1  0  0  0  0
 24  9  1  0  0  0  0
 24 11  1  0  0  0  0
 25 12  1  0  0  0  0
 25 14  1  0  0  0  0
M  END