446
  Mrv0541 07281413492D          

 23 23  0  0  0  0            999 V2000
   -1.5395    6.7914    0.0000 C   0  0  0  0  0  0  0  0  0  0  0  0
   -2.7770    6.0770    0.0000 C   0  0  0  0  0  0  0  0  0  0  0  0
    0.1105    6.7914    0.0000 C   0  0  0  0  0  0  0  0  0  0  0  0
    1.3480    6.0770    0.0000 C   0  0  0  0  0  0  0  0  0  0  0  0
    0.7145   -0.4125    0.0000 C   0  0  0  0  0  0  0  0  0  0  0  0
    1.4289   -0.0000    0.0000 C   0  0  0  0  0  0  0  0  0  0  0  0
   -0.0000   -0.0000    0.0000 C   0  0  0  0  0  0  0  0  0  0  0  0
    1.4289    0.8250    0.0000 C   0  0  0  0  0  0  0  0  0  0  0  0
   -0.0000    0.8250    0.0000 C   0  0  0  0  0  0  0  0  0  0  0  0
   -0.0000    3.3000    0.0000 C   0  0  0  0  0  0  0  0  0  0  0  0
   -0.0000    4.1250    0.0000 C   0  0  0  0  0  0  0  0  0  0  0  0
   -1.9520    6.0770    0.0000 C   0  0  0  0  0  0  0  0  0  0  0  0
    0.5230    6.0770    0.0000 C   0  0  0  0  0  0  0  0  0  0  0  0
    0.7145    1.2375    0.0000 C   0  0  0  0  0  0  0  0  0  0  0  0
    0.7145    2.8875    0.0000 N   0  0  0  0  0  0  0  0  0  0  0  0
   -0.1105    2.0625    0.0000 O   0  0  0  0  0  0  0  0  0  0  0  0
    1.5395    2.0625    0.0000 O   0  0  0  0  0  0  0  0  0  0  0  0
   -1.5395    5.3625    0.0000 O   0  0  0  0  0  0  0  0  0  0  0  0
    0.1105    5.3625    0.0000 O   0  0  0  0  0  0  0  0  0  0  0  0
   -0.7145    5.3625    0.0000 P   0  0  0  0  0  0  0  0  0  0  0  0
   -0.7145    6.1875    0.0000 S   0  0  0  0  0  0  0  0  0  0  0  0
   -0.7145    4.5375    0.0000 S   0  0  0  0  0  0  0  0  0  0  0  0
    0.7145    2.0625    0.0000 S   0  0  0  0  0  0  0  0  0  0  0  0
  6  5  2  0  0  0  0
  7  5  1  0  0  0  0
  8  6  1  0  0  0  0
  9  7  2  0  0  0  0
 11 10  1  0  0  0  0
 12  1  1  0  0  0  0
 12  2  1  0  0  0  0
 13  3  1  0  0  0  0
 13  4  1  0  0  0  0
 14  8  2  0  0  0  0
 14  9  1  0  0  0  0
 15 10  1  0  0  0  0
 18 12  1  0  0  0  0
 19 13  1  0  0  0  0
 20 18  1  0  0  0  0
 20 19  1  0  0  0  0
 21 20  2  0  0  0  0
 22 11  1  0  0  0  0
 22 20  1  0  0  0  0
 23 14  1  0  0  0  0
 23 15  1  0  0  0  0
 23 16  2  0  0  0  0
 23 17  2  0  0  0  0
M  END