447
  Mrv0541 07281413492D          

 15 16  0  0  0  0            999 V2000
   -0.0986   -0.5887    0.0000 C   0  0  0  0  0  0  0  0  0  0  0  0
    0.6860   -0.8436    0.0000 C   0  0  0  0  0  0  0  0  0  0  0  0
   -0.2701    0.2183    0.0000 C   0  0  0  0  0  0  0  0  0  0  0  0
    2.7512    0.7634    0.0000 C   0  0  0  0  0  0  0  0  0  0  0  0
    3.4186   -0.5465    0.0000 C   0  0  0  0  0  0  0  0  0  0  0  0
    2.3387   -1.3312    0.0000 C   0  0  0  0  0  0  0  0  0  0  0  0
    2.7512   -0.0616    0.0000 C   0  0  0  0  0  0  0  0  0  0  0  0
    1.2991   -0.2916    0.0000 C   0  0  0  0  0  0  0  0  0  0  0  0
    2.0837   -0.5465    0.0000 C   0  0  0  0  0  0  0  0  0  0  0  0
    0.3430    0.7703    0.0000 C   0  0  0  0  0  0  0  0  0  0  0  0
    1.1276    0.5154    0.0000 C   0  0  0  0  0  0  0  0  0  0  0  0
    0.1714    1.5773    0.0000 Cl  0  0  0  0  0  0  0  0  0  0  0  0
    1.7407    1.0674    0.0000 Cl  0  0  0  0  0  0  0  0  0  0  0  0
    2.7512    1.5884    0.0000 N   0  0  0  0  0  0  0  0  0  0  0  0
    3.1637   -1.3312    0.0000 N   0  0  0  0  0  0  0  0  0  0  0  0
  2  1  2  0  0  0  0
  3  1  1  0  0  0  0
  7  4  1  0  0  0  0
  7  5  2  0  0  0  0
  8  2  1  0  0  0  0
  9  6  2  0  0  0  0
  9  7  1  0  0  0  0
  9  8  1  0  0  0  0
 10  3  2  0  0  0  0
 11  8  2  0  0  0  0
 11 10  1  0  0  0  0
 12 10  1  0  0  0  0
 13 11  1  0  0  0  0
 14  4  3  0  0  0  0
 15  5  1  0  0  0  0
 15  6  1  0  0  0  0
M  END