450
  Mrv0541 07281413492D          

 12 11  0  0  0  0            999 V2000
   -0.4125   -3.5724    0.0000 C   0  0  0  0  0  0  0  0  0  0  0  0
   -0.4125   -0.7145    0.0000 C   0  0  0  0  0  0  0  0  0  0  0  0
    3.7125   -0.7145    0.0000 C   0  0  0  0  0  0  0  0  0  0  0  0
    0.0000   -2.8579    0.0000 C   0  0  0  0  0  0  0  0  0  0  0  0
   -0.0000   -1.4289    0.0000 C   0  0  0  0  0  0  0  0  0  0  0  0
    3.3000   -1.4289    0.0000 C   0  0  0  0  0  0  0  0  0  0  0  0
    0.8250   -2.8579    0.0000 C   0  0  0  0  0  0  0  0  0  0  0  0
    0.8250   -1.4289    0.0000 C   0  0  0  0  0  0  0  0  0  0  0  0
    2.0625   -2.1434    0.0000 C   0  0  0  0  0  0  0  0  0  0  0  0
    1.2375   -2.1434    0.0000 N   0  0  0  0  0  0  0  0  0  0  0  0
    2.4750   -2.8579    0.0000 O   0  0  0  0  0  0  0  0  0  0  0  0
    2.4750   -1.4289    0.0000 S   0  0  0  0  0  0  0  0  0  0  0  0
  4  1  1  0  0  0  0
  5  2  1  0  0  0  0
  6  3  1  0  0  0  0
  7  4  1  0  0  0  0
  8  5  1  0  0  0  0
 10  7  1  0  0  0  0
 10  8  1  0  0  0  0
 10  9  1  0  0  0  0
 11  9  2  0  0  0  0
 12  6  1  0  0  0  0
 12  9  1  0  0  0  0
M  END