451
  Mrv0541 07281413492D          

 26 28  0  0  0  0            999 V2000
    4.2868   -4.9500    0.0000 C   0  0  0  0  0  0  0  0  0  0  0  0
    7.1447   -4.1250    0.0000 C   0  0  0  0  0  0  0  0  0  0  0  0
    5.0013   -5.3625    0.0000 C   0  0  0  0  0  0  0  0  0  0  0  0
   12.8605   -6.6000    0.0000 C   0  0  0  0  0  0  0  0  0  0  0  0
    9.2881   -5.3625    0.0000 C   0  0  0  0  0  0  0  0  0  0  0  0
    8.5737   -4.1250    0.0000 C   0  0  0  0  0  0  0  0  0  0  0  0
   10.0026   -4.9500    0.0000 C   0  0  0  0  0  0  0  0  0  0  0  0
    9.2881   -3.7125    0.0000 C   0  0  0  0  0  0  0  0  0  0  0  0
   12.1460   -6.1875    0.0000 C   0  0  0  0  0  0  0  0  0  0  0  0
   13.5749   -5.3625    0.0000 C   0  0  0  0  0  0  0  0  0  0  0  0
   12.1460   -3.7125    0.0000 C   0  0  0  0  0  0  0  0  0  0  0  0
    7.1447   -4.9500    0.0000 C   0  0  0  0  0  0  0  0  0  0  0  0
   13.5749   -6.1875    0.0000 C   0  0  0  0  0  0  0  0  0  0  0  0
    8.5737   -4.9500    0.0000 C   0  0  0  0  0  0  0  0  0  0  0  0
   10.0026   -4.1250    0.0000 C   0  0  0  0  0  0  0  0  0  0  0  0
   12.1460   -5.3625    0.0000 C   0  0  0  0  0  0  0  0  0  0  0  0
   12.8605   -4.9500    0.0000 C   0  0  0  0  0  0  0  0  0  0  0  0
   11.4315   -4.1250    0.0000 C   0  0  0  0  0  0  0  0  0  0  0  0
    6.4302   -5.3625    0.0000 C   0  0  0  0  0  0  0  0  0  0  0  0
   14.2894   -6.6000    0.0000 Cl  0  0  0  0  0  0  0  0  0  0  0  0
   12.8605   -4.1250    0.0000 N   0  0  0  0  0  0  0  0  0  0  0  0
   11.4315   -4.9500    0.0000 N   0  0  0  0  0  0  0  0  0  0  0  0
    6.4302   -6.1875    0.0000 O   0  0  0  0  0  0  0  0  0  0  0  0
    5.7158   -4.9500    0.0000 O   0  0  0  0  0  0  0  0  0  0  0  0
    7.8592   -5.3625    0.0000 O   0  0  0  0  0  0  0  0  0  0  0  0
   10.7171   -3.7125    0.0000 O   0  0  0  0  0  0  0  0  0  0  0  0
  3  1  1  0  0  0  0
  7  5  1  0  0  0  0
  8  6  2  0  0  0  0
  9  4  2  0  0  0  0
 12  2  1  0  0  0  0
 13  4  1  0  0  0  0
 13 10  2  0  0  0  0
 14  5  2  0  0  0  0
 14  6  1  0  0  0  0
 15  7  2  0  0  0  0
 15  8  1  0  0  0  0
 16  9  1  0  0  0  0
 17 10  1  0  0  0  0
 17 16  2  0  0  0  0
 18 11  1  0  0  0  0
 19 12  1  0  0  0  0
 20 13  1  0  0  0  0
 21 11  2  0  0  0  0
 21 17  1  0  0  0  0
 22 16  1  0  0  0  0
 22 18  2  0  0  0  0
 23 19  2  0  0  0  0
 24  3  1  0  0  0  0
 24 19  1  0  0  0  0
 25 12  1  0  0  0  0
 25 14  1  0  0  0  0
 26 15  1  0  0  0  0
 26 18  1  0  0  0  0
M  END