452
  Mrv0541 07281413492D          

 20 21  0  0  0  0            999 V2000
    2.7512    3.9402    0.0000 C   0  0  0  0  0  0  0  0  0  0  0  0
    2.4492    5.0672    0.0000 C   0  0  0  0  0  0  0  0  0  0  0  0
    1.6242    3.6382    0.0000 C   0  0  0  0  0  0  0  0  0  0  0  0
   -1.5356    4.7652    0.0000 C   0  0  0  0  0  0  0  0  0  0  0  0
   -0.8212    3.5277    0.0000 C   0  0  0  0  0  0  0  0  0  0  0  0
   -2.2501    4.3527    0.0000 C   0  0  0  0  0  0  0  0  0  0  0  0
   -1.5356    3.1152    0.0000 C   0  0  0  0  0  0  0  0  0  0  0  0
   -0.1067    4.7652    0.0000 C   0  0  0  0  0  0  0  0  0  0  0  0
    0.1953    2.2581    0.0000 C   0  0  0  0  0  0  0  0  0  0  0  0
    1.2752    3.0428    0.0000 C   0  0  0  0  0  0  0  0  0  0  0  0
   -0.8212    4.3527    0.0000 C   0  0  0  0  0  0  0  0  0  0  0  0
   -2.2501    3.5277    0.0000 C   0  0  0  0  0  0  0  0  0  0  0  0
    0.6078    4.3527    0.0000 C   0  0  0  0  0  0  0  0  0  0  0  0
    1.3222    4.7652    0.0000 C   0  0  0  0  0  0  0  0  0  0  0  0
    2.0367    4.3527    0.0000 C   0  0  0  0  0  0  0  0  0  0  0  0
   -2.9646    3.1152    0.0000 Cl  0  0  0  0  0  0  0  0  0  0  0  0
    1.0203    2.2581    0.0000 N   0  0  0  0  0  0  0  0  0  0  0  0
   -0.0597    3.0428    0.0000 N   0  0  0  0  0  0  0  0  0  0  0  0
    0.6078    3.5277    0.0000 N   0  0  0  0  0  0  0  0  0  0  0  0
    1.3222    5.5902    0.0000 O   0  0  0  0  0  0  0  0  0  0  0  0
  6  4  1  0  0  0  0
  7  5  2  0  0  0  0
 11  4  2  0  0  0  0
 11  5  1  0  0  0  0
 11  8  1  0  0  0  0
 12  6  2  0  0  0  0
 12  7  1  0  0  0  0
 13  8  1  0  0  0  0
 14 13  1  0  0  0  0
 15  1  1  0  0  0  0
 15  2  1  0  0  0  0
 15  3  1  0  0  0  0
 15 14  1  0  0  0  0
 16 12  1  0  0  0  0
 17  9  1  0  0  0  0
 17 10  2  0  0  0  0
 18  9  2  0  0  0  0
 19 10  1  0  0  0  0
 19 13  1  0  0  0  0
 19 18  1  0  0  0  0
 20 14  1  0  0  0  0
M  END