454
  Mrv0541 07281413492D          

 25 27  0  0  1  0            999 V2000
    0.1298    2.0602    0.0000 C   0  0  0  0  0  0  0  0  0  0  0  0
    1.8504   -1.5629    0.0000 C   0  0  0  0  0  0  0  0  0  0  0  0
    2.1860   -0.8092    0.0000 C   0  0  0  0  0  0  0  0  0  0  0  0
    1.0300   -1.6491    0.0000 C   0  0  0  0  0  0  0  0  0  0  0  0
    1.7011   -0.1418    0.0000 C   0  0  0  0  0  0  0  0  0  0  0  0
    0.5450   -0.9817    0.0000 C   0  0  0  0  0  0  0  0  0  0  0  0
   -0.6078    3.5277    0.0000 C   0  0  0  0  0  0  0  0  0  0  0  0
   -2.0367    3.5277    0.0000 C   0  0  0  0  0  0  0  0  0  0  0  0
   -0.6078    4.3527    0.0000 C   0  0  0  0  0  0  0  0  0  0  0  0
   -2.0367    4.3527    0.0000 C   0  0  0  0  0  0  0  0  0  0  0  0
   -0.6548    1.8053    0.0000 C   0  0  1  0  0  0  0  0  0  0  0  0
   -1.3222    3.1152    0.0000 C   0  0  0  0  0  0  0  0  0  0  0  0
   -1.3222    4.7652    0.0000 C   0  0  0  0  0  0  0  0  0  0  0  0
    0.8806   -0.2280    0.0000 C   0  0  0  0  0  0  0  0  0  0  0  0
   -1.3222    2.2902    0.0000 C   0  0  2  0  0  0  0  0  0  0  0  0
   -0.4248    0.3532    0.0000 C   0  0  0  0  0  0  0  0  0  0  0  0
   -1.7347    1.0206    0.0000 C   0  0  0  0  0  0  0  0  0  0  0  0
   -1.3222    5.5902    0.0000 Cl  0  0  0  0  0  0  0  0  0  0  0  0
    0.3957    0.4394    0.0000 N   0  0  0  0  0  0  0  0  0  0  0  0
   -0.9097    1.0206    0.0000 N   0  0  0  0  0  0  0  0  0  0  0  0
   -0.7604   -0.4005    0.0000 O   0  0  0  0  0  0  0  0  0  0  0  0
   -2.2197    0.3532    0.0000 O   0  0  0  0  0  0  0  0  0  0  0  0
   -1.9897    1.8053    0.0000 S   0  0  0  0  0  0  0  0  0  0  0  0
   -0.8122    2.6151    0.0000 H   0  0  0  0  0  0  0  0  0  0  0  0
   -0.7596    2.8935    0.0000 H   0  0  0  0  0  0  0  0  0  0  0  0
  3  2  1  0  0  0  0
  4  2  1  0  0  0  0
  5  3  1  0  0  0  0
  6  4  1  0  0  0  0
  9  7  1  0  0  0  0
 10  8  2  0  0  0  0
 11  1  1  6  0  0  0
 12  7  2  0  0  0  0
 12  8  1  0  0  0  0
 13  9  2  0  0  0  0
 13 10  1  0  0  0  0
 14  5  1  0  0  0  0
 14  6  1  0  0  0  0
 15 11  1  0  0  0  0
 15 12  1  1  0  0  0
 18 13  1  0  0  0  0
 19 14  1  4  0  0  0
 19 16  2  0  0  0  0
 20 11  1  0  0  0  0
 20 16  1  0  0  0  0
 20 17  1  0  0  0  0
 21 16  1  0  0  0  0
 22 17  2  0  0  0  0
 23 15  1  0  0  0  0
 23 17  1  0  0  0  0
 11 24  1  1  0  0  0
 15 25  1  6  0  0  0
M  END