459
  Mrv0541 07281413492D          

 20 21  0  0  0  0            999 V2000
    0.5103    2.2413    0.0000 C   0  0  0  0  0  0  0  0  0  0  0  0
    1.2248    2.6538    0.0000 C   0  0  0  0  0  0  0  0  0  0  0  0
    1.9393    2.2413    0.0000 C   0  0  0  0  0  0  0  0  0  0  0  0
    3.7807    4.3847    0.0000 C   0  0  0  0  0  0  0  0  0  0  0  0
    3.3682    3.6702    0.0000 C   0  0  0  0  0  0  0  0  0  0  0  0
    2.6538    2.6538    0.0000 C   0  0  0  0  0  0  0  0  0  0  0  0
    5.0182    3.6702    0.0000 C   0  0  0  0  0  0  0  0  0  0  0  0
    4.0827    1.8288    0.0000 C   0  0  0  0  0  0  0  0  0  0  0  0
    3.6702   -0.2658    0.0000 C   0  0  0  0  0  0  0  0  0  0  0  0
    4.7501    0.5188    0.0000 C   0  0  0  0  0  0  0  0  0  0  0  0
    4.6057    4.3847    0.0000 C   0  0  0  0  0  0  0  0  0  0  0  0
    3.7807    2.9557    0.0000 C   0  0  0  0  0  0  0  0  0  0  0  0
    4.6057    2.9557    0.0000 C   0  0  0  0  0  0  0  0  0  0  0  0
    3.3682    2.2413    0.0000 C   0  0  0  0  0  0  0  0  0  0  0  0
    5.0182    5.0991    0.0000 Cl  0  0  0  0  0  0  0  0  0  0  0  0
    5.0182    2.2413    0.0000 Cl  0  0  0  0  0  0  0  0  0  0  0  0
    4.4952   -0.2658    0.0000 N   0  0  0  0  0  0  0  0  0  0  0  0
    3.4153    0.5188    0.0000 N   0  0  0  0  0  0  0  0  0  0  0  0
    4.0827    1.0038    0.0000 N   0  0  0  0  0  0  0  0  0  0  0  0
    2.9557    1.5268    0.0000 O   0  0  0  0  0  0  0  0  0  0  0  0
  2  1  1  0  0  0  0
  3  2  1  0  0  0  0
  5  4  2  0  0  0  0
  6  3  1  0  0  0  0
 11  4  1  0  0  0  0
 11  7  2  0  0  0  0
 12  5  1  0  0  0  0
 13  7  1  0  0  0  0
 13 12  2  0  0  0  0
 14  6  1  0  0  0  0
 14  8  1  0  0  0  0
 14 12  1  0  0  0  0
 15 11  1  0  0  0  0
 16 13  1  0  0  0  0
 17  9  1  0  0  0  0
 17 10  2  0  0  0  0
 18  9  2  0  0  0  0
 19  8  1  0  0  0  0
 19 10  1  0  0  0  0
 19 18  1  0  0  0  0
 20 14  1  0  0  0  0
M  END