463
  Mrv0541 07281413492D          

 24 25  0  0  0  0            999 V2000
   -2.1434    3.7125    0.0000 C   0  0  0  0  0  0  0  0  0  0  0  0
   -2.1434    4.5375    0.0000 C   0  0  0  0  0  0  0  0  0  0  0  0
   -2.8579    3.3000    0.0000 C   0  0  0  0  0  0  0  0  0  0  0  0
   -5.7158    8.2500    0.0000 C   0  0  0  0  0  0  0  0  0  0  0  0
   -6.4302    8.6625    0.0000 C   0  0  0  0  0  0  0  0  0  0  0  0
   -2.8579    4.9500    0.0000 C   0  0  0  0  0  0  0  0  0  0  0  0
   -3.5724    3.7125    0.0000 C   0  0  0  0  0  0  0  0  0  0  0  0
   -5.7158    7.4250    0.0000 C   0  0  0  0  0  0  0  0  0  0  0  0
   -3.5724    4.5375    0.0000 C   0  0  0  0  0  0  0  0  0  0  0  0
   -7.1447    7.4250    0.0000 C   0  0  0  0  0  0  0  0  0  0  0  0
   -7.1447    8.2500    0.0000 C   0  0  0  0  0  0  0  0  0  0  0  0
   -6.4302    7.0125    0.0000 C   0  0  0  0  0  0  0  0  0  0  0  0
   -4.2868    4.9500    0.0000 C   0  0  0  0  0  0  0  0  0  0  0  0
   -5.0013    6.1875    0.0000 C   0  0  0  0  0  0  0  0  0  0  0  0
   -6.4302    9.4875    0.0000 Cl  0  0  0  0  0  0  0  0  0  0  0  0
   -7.8592    7.0125    0.0000 Cl  0  0  0  0  0  0  0  0  0  0  0  0
   -2.8579    5.7750    0.0000 F   0  0  0  0  0  0  0  0  0  0  0  0
   -4.2868    3.3000    0.0000 F   0  0  0  0  0  0  0  0  0  0  0  0
   -7.8592    8.6625    0.0000 F   0  0  0  0  0  0  0  0  0  0  0  0
   -6.4302    6.1875    0.0000 F   0  0  0  0  0  0  0  0  0  0  0  0
   -5.0013    7.0125    0.0000 N   0  0  0  0  0  0  0  0  0  0  0  0
   -4.2868    5.7750    0.0000 N   0  0  0  0  0  0  0  0  0  0  0  0
   -5.0013    4.5375    0.0000 O   0  0  0  0  0  0  0  0  0  0  0  0
   -5.7158    5.7750    0.0000 O   0  0  0  0  0  0  0  0  0  0  0  0
  2  1  2  0  0  0  0
  3  1  1  0  0  0  0
  5  4  2  0  0  0  0
  6  2  1  0  0  0  0
  7  3  2  0  0  0  0
  8  4  1  0  0  0  0
  9  6  2  0  0  0  0
  9  7  1  0  0  0  0
 11  5  1  0  0  0  0
 11 10  2  0  0  0  0
 12  8  2  0  0  0  0
 12 10  1  0  0  0  0
 13  9  1  0  0  0  0
 15  5  1  0  0  0  0
 16 10  1  0  0  0  0
 17  6  1  0  0  0  0
 18  7  1  0  0  0  0
 19 11  1  0  0  0  0
 20 12  1  0  0  0  0
 21  8  1  4  0  0  0
 21 14  2  0  0  0  0
 22 13  2  0  0  0  0
 22 14  1  4  0  0  0
 23 13  1  0  0  0  0
 24 14  1  0  0  0  0
M  END