465
  Mrv0541 07281413492D          

 28 30  0  0  0  0            999 V2000
    0.7145   -2.8875    0.0000 C   0  0  0  0  0  0  0  0  0  0  0  0
    4.2868   -2.4750    0.0000 C   0  0  0  0  0  0  0  0  0  0  0  0
   -0.0000   -2.4750    0.0000 C   0  0  0  0  0  0  0  0  0  0  0  0
    1.4289   -2.4750    0.0000 C   0  0  0  0  0  0  0  0  0  0  0  0
    4.2868   -1.6500    0.0000 C   0  0  0  0  0  0  0  0  0  0  0  0
    3.5724    2.0625    0.0000 C   0  0  0  0  0  0  0  0  0  0  0  0
    3.5724    1.2375    0.0000 C   0  0  0  0  0  0  0  0  0  0  0  0
    3.5724   -2.8875    0.0000 C   0  0  0  0  0  0  0  0  0  0  0  0
    0.7145   -1.2375    0.0000 C   0  0  0  0  0  0  0  0  0  0  0  0
    5.0013    2.0625    0.0000 C   0  0  0  0  0  0  0  0  0  0  0  0
   -0.0000   -1.6500    0.0000 C   0  0  0  0  0  0  0  0  0  0  0  0
    4.2868    2.4750    0.0000 C   0  0  0  0  0  0  0  0  0  0  0  0
    1.4289   -1.6500    0.0000 C   0  0  0  0  0  0  0  0  0  0  0  0
    3.5724   -1.2375    0.0000 C   0  0  0  0  0  0  0  0  0  0  0  0
    5.0013    1.2375    0.0000 C   0  0  0  0  0  0  0  0  0  0  0  0
    4.2868    0.8250    0.0000 C   0  0  0  0  0  0  0  0  0  0  0  0
    3.5724   -0.4125    0.0000 C   0  0  0  0  0  0  0  0  0  0  0  0
    2.8579   -1.6500    0.0000 C   0  0  0  0  0  0  0  0  0  0  0  0
   -0.7145   -1.2375    0.0000 C   0  0  0  0  0  0  0  0  0  0  0  0
    4.2868    3.3000    0.0000 F   0  0  0  0  0  0  0  0  0  0  0  0
    5.7158    0.8250    0.0000 F   0  0  0  0  0  0  0  0  0  0  0  0
   -1.4289   -0.8250    0.0000 F   0  0  0  0  0  0  0  0  0  0  0  0
   -1.1270   -1.9520    0.0000 F   0  0  0  0  0  0  0  0  0  0  0  0
   -0.3020   -0.5230    0.0000 F   0  0  0  0  0  0  0  0  0  0  0  0
    2.8579   -2.4750    0.0000 N   0  0  0  0  0  0  0  0  0  0  0  0
    4.2868   -0.0000    0.0000 N   0  0  0  0  0  0  0  0  0  0  0  0
    2.8579   -0.0000    0.0000 O   0  0  0  0  0  0  0  0  0  0  0  0
    2.1434   -1.2375    0.0000 O   0  0  0  0  0  0  0  0  0  0  0  0
  3  1  2  0  0  0  0
  4  1  1  0  0  0  0
  5  2  2  0  0  0  0
  7  6  2  0  0  0  0
  8  2  1  0  0  0  0
 11  3  1  0  0  0  0
 11  9  2  0  0  0  0
 12  6  1  0  0  0  0
 12 10  2  0  0  0  0
 13  4  2  0  0  0  0
 13  9  1  0  0  0  0
 14  5  1  0  0  0  0
 15 10  1  0  0  0  0
 16  7  1  0  0  0  0
 16 15  2  0  0  0  0
 17 14  1  0  0  0  0
 18 14  2  0  0  0  0
 19 11  1  0  0  0  0
 20 12  1  0  0  0  0
 21 15  1  0  0  0  0
 22 19  1  0  0  0  0
 23 19  1  0  0  0  0
 24 19  1  0  0  0  0
 25  8  2  0  0  0  0
 25 18  1  0  0  0  0
 26 16  1  0  0  0  0
 26 17  1  0  0  0  0
 27 17  2  0  0  0  0
 28 13  1  0  0  0  0
 28 18  1  0  0  0  0
M  END