467
  Mrv0541 07281413492D          

 32 36  0  0  1  0            999 V2000
   -3.3867    1.9048    0.0000 C   0  0  0  0  0  0  0  0  0  0  0  0
   -2.6535    3.1313    0.0000 C   0  0  0  0  0  0  0  0  0  0  0  0
    5.0960    0.0691    0.0000 C   0  0  0  0  0  0  0  0  0  0  0  0
    5.5410    2.2060    0.0000 C   0  0  0  0  0  0  0  0  0  0  0  0
    0.1466    0.1444    0.0000 C   0  0  0  0  0  0  0  0  0  0  0  0
   -0.6783    0.1569    0.0000 C   0  0  0  0  0  0  0  0  0  0  0  0
    3.0446    0.8148    0.0000 C   0  0  0  0  0  0  0  0  0  0  0  0
   -1.1993    2.2071    0.0000 C   0  0  0  0  0  0  0  0  0  0  0  0
    3.8912    2.2311    0.0000 C   0  0  0  0  0  0  0  0  0  0  0  0
    1.8398    2.9768    0.0000 C   0  0  0  0  0  0  0  0  0  0  0  0
   -2.6661    2.3064    0.0000 C   0  0  0  0  0  0  0  0  0  0  0  0
    0.5699    0.8525    0.0000 C   0  0  0  0  0  0  0  0  0  0  0  0
    2.6430    1.5355    0.0000 C   0  0  0  0  0  0  0  0  0  0  0  0
   -0.6566    1.5857    0.0000 C   0  0  0  0  0  0  0  0  0  0  0  0
   -1.0799    0.8776    0.0000 C   0  0  0  0  0  0  0  0  0  0  0  0
   -1.9579    1.8830    0.0000 C   0  0  2  0  0  0  0  0  0  0  0  0
    3.0663    2.2436    0.0000 C   0  0  0  0  0  0  0  0  0  0  0  0
    3.8695    0.8023    0.0000 C   0  0  0  0  0  0  0  0  0  0  0  0
    4.2928    1.5104    0.0000 C   0  0  0  0  0  0  0  0  0  0  0  0
    1.4165    2.2687    0.0000 C   0  0  2  0  0  0  0  0  0  0  0  0
    1.8181    1.5480    0.0000 C   0  0  1  0  0  0  0  0  0  0  0  0
    1.3948    0.8399    0.0000 C   0  0  0  0  0  0  0  0  0  0  0  0
    0.1683    1.5731    0.0000 C   0  0  0  0  0  0  0  0  0  0  0  0
    1.7964    0.1193    0.0000 O   0  0  0  0  0  0  0  0  0  0  0  0
    4.2711    0.0816    0.0000 O   0  0  0  0  0  0  0  0  0  0  0  0
    5.1177    1.4978    0.0000 O   0  0  0  0  0  0  0  0  0  0  0  0
    2.6647    2.9643    0.0000 O   0  0  0  0  0  0  0  0  0  0  0  0
   -1.8842    1.0613    0.0000 O   0  0  0  0  0  0  0  0  0  0  0  0
    0.5916    2.2812    0.0000 O   0  0  0  0  0  0  0  0  0  0  0  0
   -1.9022    2.7062    0.0000 H   0  0  0  0  0  0  0  0  0  0  0  0
    1.0149    2.9894    0.0000 H   0  0  0  0  0  0  0  0  0  0  0  0
    2.2197    0.8274    0.0000 H   0  0  0  0  0  0  0  0  0  0  0  0
  6  5  2  0  0  0  0
 11  1  2  0  0  0  0
 11  2  1  0  0  0  0
 12  5  1  0  0  0  0
 13  7  2  0  0  0  0
 14  8  1  0  0  0  0
 15  6  1  0  0  0  0
 15 14  2  0  0  0  0
 16  8  1  0  0  0  0
 16 11  1  1  0  0  0
 17  9  2  0  0  0  0
 17 13  1  0  0  0  0
 18  7  1  0  0  0  0
 19  9  1  0  0  0  0
 19 18  2  0  0  0  0
 20 10  1  0  0  0  0
 21 13  1  0  0  0  0
 21 20  1  0  0  0  0
 22 12  1  0  0  0  0
 22 21  1  0  0  0  0
 23 12  2  0  0  0  0
 23 14  1  0  0  0  0
 24 22  2  0  0  0  0
 25  3  1  0  0  0  0
 25 18  1  0  0  0  0
 26  4  1  0  0  0  0
 26 19  1  0  0  0  0
 27 10  1  0  0  0  0
 27 17  1  0  0  0  0
 28 15  1  0  0  0  0
 28 16  1  0  0  0  0
 29 20  1  0  0  0  0
 29 23  1  0  0  0  0
 16 30  1  6  0  0  0
 20 31  1  1  0  0  0
 21 32  1  1  0  0  0
M  END