475
  Mrv0541 07281413492D          

 28 29  0  0  0  0            999 V2000
    7.8592    7.0125    0.0000 C   0  0  0  0  0  0  0  0  0  0  0  0
   10.0026    4.9500    0.0000 C   0  0  0  0  0  0  0  0  0  0  0  0
    5.7158    0.0000    0.0000 C   0  0  0  0  0  0  0  0  0  0  0  0
    6.4302    0.4125    0.0000 C   0  0  0  0  0  0  0  0  0  0  0  0
    5.0013    0.4125    0.0000 C   0  0  0  0  0  0  0  0  0  0  0  0
    6.4302    1.2375    0.0000 C   0  0  0  0  0  0  0  0  0  0  0  0
    4.2868    1.6500    0.0000 C   0  0  0  0  0  0  0  0  0  0  0  0
    4.2868    2.4750    0.0000 C   0  0  0  0  0  0  0  0  0  0  0  0
    7.8592    6.1875    0.0000 C   0  0  0  0  0  0  0  0  0  0  0  0
    5.0013    1.2375    0.0000 C   0  0  0  0  0  0  0  0  0  0  0  0
    5.7158    1.6500    0.0000 C   0  0  0  0  0  0  0  0  0  0  0  0
    7.1447    4.9500    0.0000 C   0  0  0  0  0  0  0  0  0  0  0  0
    6.4302    3.7125    0.0000 C   0  0  0  0  0  0  0  0  0  0  0  0
    8.5737    4.9500    0.0000 C   0  0  0  0  0  0  0  0  0  0  0  0
    3.5724    2.8875    0.0000 C   0  0  0  0  0  0  0  0  0  0  0  0
    2.8579    3.3000    0.0000 F   0  0  0  0  0  0  0  0  0  0  0  0
    3.9849    3.6020    0.0000 F   0  0  0  0  0  0  0  0  0  0  0  0
    3.1599    2.1730    0.0000 F   0  0  0  0  0  0  0  0  0  0  0  0
    7.1447    5.7750    0.0000 N   0  0  0  0  0  0  0  0  0  0  0  0
    8.5737    5.7750    0.0000 N   0  0  0  0  0  0  0  0  0  0  0  0
    6.4302    4.5375    0.0000 N   0  0  0  0  0  0  0  0  0  0  0  0
    7.8592    4.5375    0.0000 N   0  0  0  0  0  0  0  0  0  0  0  0
    5.7158    3.3000    0.0000 N   0  0  0  0  0  0  0  0  0  0  0  0
    7.1447    3.3000    0.0000 O   0  0  0  0  0  0  0  0  0  0  0  0
    4.8908    2.4750    0.0000 O   0  0  0  0  0  0  0  0  0  0  0  0
    6.5408    2.4750    0.0000 O   0  0  0  0  0  0  0  0  0  0  0  0
    9.2881    4.5375    0.0000 O   0  0  0  0  0  0  0  0  0  0  0  0
    5.7158    2.4750    0.0000 S   0  0  0  0  0  0  0  0  0  0  0  0
  4  3  2  0  0  0  0
  5  3  1  0  0  0  0
  6  4  1  0  0  0  0
  8  7  1  0  0  0  0
  9  1  1  0  0  0  0
 10  5  2  0  0  0  0
 10  7  1  0  0  0  0
 11  6  2  0  0  0  0
 11 10  1  0  0  0  0
 15  8  1  0  0  0  0
 16 15  1  0  0  0  0
 17 15  1  0  0  0  0
 18 15  1  0  0  0  0
 19  9  2  0  0  0  0
 19 12  1  0  0  0  0
 20  9  1  0  0  0  0
 20 14  2  0  0  0  0
 21 12  2  0  0  0  0
 21 13  1  4  0  0  0
 22 12  1  0  0  0  0
 22 14  1  0  0  0  0
 23 13  2  0  0  0  0
 24 13  1  0  0  0  0
 27  2  1  0  0  0  0
 27 14  1  0  0  0  0
 28 11  1  0  0  0  0
 23 28  1  4  0  0  0
 28 25  2  0  0  0  0
 28 26  2  0  0  0  0
M  END