481
  Mrv0541 07281413492D          

 24 26  0  0  0  0            999 V2000
    3.3130   -2.7523    0.0000 C   0  0  0  0  0  0  0  0  0  0  0  0
   -0.2701    0.2183    0.0000 C   0  0  0  0  0  0  0  0  0  0  0  0
   -0.0986   -0.5887    0.0000 C   0  0  0  0  0  0  0  0  0  0  0  0
    0.3430    0.7703    0.0000 C   0  0  0  0  0  0  0  0  0  0  0  0
    5.1594    0.7703    0.0000 C   0  0  0  0  0  0  0  0  0  0  0  0
    0.6860   -0.8436    0.0000 C   0  0  0  0  0  0  0  0  0  0  0  0
    1.1276    0.5154    0.0000 C   0  0  0  0  0  0  0  0  0  0  0  0
    4.3748    0.5154    0.0000 C   0  0  0  0  0  0  0  0  0  0  0  0
    5.7725    0.2183    0.0000 C   0  0  0  0  0  0  0  0  0  0  0  0
    4.8163   -0.8436    0.0000 C   0  0  0  0  0  0  0  0  0  0  0  0
    1.2991   -0.2916    0.0000 C   0  0  0  0  0  0  0  0  0  0  0  0
    4.2032   -0.2916    0.0000 C   0  0  0  0  0  0  0  0  0  0  0  0
    5.6010   -0.5887    0.0000 C   0  0  0  0  0  0  0  0  0  0  0  0
    3.4186   -0.5465    0.0000 C   0  0  0  0  0  0  0  0  0  0  0  0
    2.7512   -0.0616    0.0000 C   0  0  0  0  0  0  0  0  0  0  0  0
    2.0837   -0.5465    0.0000 C   0  0  0  0  0  0  0  0  0  0  0  0
    3.1637   -1.3312    0.0000 C   0  0  0  0  0  0  0  0  0  0  0  0
    6.2140   -1.1407    0.0000 C   0  0  0  0  0  0  0  0  0  0  0  0
    6.8271   -1.6927    0.0000 F   0  0  0  0  0  0  0  0  0  0  0  0
    5.6620   -1.7538    0.0000 F   0  0  0  0  0  0  0  0  0  0  0  0
    6.7661   -0.5276    0.0000 F   0  0  0  0  0  0  0  0  0  0  0  0
    3.6486   -1.9986    0.0000 N   0  0  0  0  0  0  0  0  0  0  0  0
    2.7512    0.7634    0.0000 O   0  0  0  0  0  0  0  0  0  0  0  0
    2.3387   -1.3312    0.0000 O   0  0  0  0  0  0  0  0  0  0  0  0
  3  2  2  0  0  0  0
  4  2  1  0  0  0  0
  6  3  1  0  0  0  0
  7  4  2  0  0  0  0
  8  5  2  0  0  0  0
  9  5  1  0  0  0  0
 11  6  2  0  0  0  0
 11  7  1  0  0  0  0
 12  8  1  0  0  0  0
 12 10  2  0  0  0  0
 13  9  2  0  0  0  0
 13 10  1  0  0  0  0
 14 12  1  0  0  0  0
 15 14  1  0  0  0  0
 16 11  1  0  0  0  0
 16 15  1  0  0  0  0
 17 14  2  0  0  0  0
 18 13  1  0  0  0  0
 19 18  1  0  0  0  0
 20 18  1  0  0  0  0
 21 18  1  0  0  0  0
 22  1  1  0  0  0  0
 22 17  1  0  0  0  0
 23 15  2  0  0  0  0
 24 16  1  0  0  0  0
 24 17  1  0  0  0  0
M  END