495
  Mrv0541 07281413492D          

 21 23  0  0  0  0            999 V2000
   -1.8721    5.5889    0.0000 C   0  0  0  0  0  0  0  0  0  0  0  0
   -2.5479    5.1157    0.0000 C   0  0  0  0  0  0  0  0  0  0  0  0
   -1.1244    5.2402    0.0000 C   0  0  0  0  0  0  0  0  0  0  0  0
   -2.4760    4.2938    0.0000 C   0  0  0  0  0  0  0  0  0  0  0  0
    0.4317    3.1526    0.0000 C   0  0  0  0  0  0  0  0  0  0  0  0
    1.2567    3.1526    0.0000 C   0  0  0  0  0  0  0  0  0  0  0  0
   -0.3048    4.0697    0.0000 C   0  0  0  0  0  0  0  0  0  0  0  0
    1.0468    5.0161    0.0000 C   0  0  0  0  0  0  0  0  0  0  0  0
    1.2752    7.1386    0.0000 C   0  0  0  0  0  0  0  0  0  0  0  0
   -1.0525    4.4183    0.0000 C   0  0  0  0  0  0  0  0  0  0  0  0
   -1.7283    3.9451    0.0000 C   0  0  0  0  0  0  0  0  0  0  0  0
    0.2677    6.2629    0.0000 C   0  0  0  0  0  0  0  0  0  0  0  0
    0.8442    3.8671    0.0000 C   0  0  0  0  0  0  0  0  0  0  0  0
    0.3710    4.5429    0.0000 C   0  0  0  0  0  0  0  0  0  0  0  0
   -1.6564    3.1233    0.0000 Cl  0  0  0  0  0  0  0  0  0  0  0  0
    1.3174    4.5429    0.0000 Cl  0  0  0  0  0  0  0  0  0  0  0  0
    0.4533    7.0667    0.0000 N   0  0  0  0  0  0  0  0  0  0  0  0
    1.5975    6.3792    0.0000 N   0  0  0  0  0  0  0  0  0  0  0  0
    0.9749    5.8379    0.0000 N   0  0  0  0  0  0  0  0  0  0  0  0
   -0.1022    5.2187    0.0000 O   0  0  0  0  0  0  0  0  0  0  0  0
   -0.4917    5.9405    0.0000 S   0  0  0  0  0  0  0  0  0  0  0  0
  2  1  2  0  0  0  0
  3  1  1  0  0  0  0
  4  2  1  0  0  0  0
  6  5  1  0  0  0  0
 10  3  2  0  0  0  0
 10  7  1  0  0  0  0
 11  4  2  0  0  0  0
 11 10  1  0  0  0  0
 13  5  1  0  0  0  0
 13  6  1  0  0  0  0
 14  7  1  0  0  0  0
 14  8  1  0  0  0  0
 14 13  1  0  0  0  0
 15 11  1  0  0  0  0
 16 13  1  0  0  0  0
 17  9  2  0  0  0  0
 17 12  1  0  0  0  0
 18  9  1  0  0  0  0
 19  8  1  0  0  0  0
 19 12  1  0  0  0  0
 19 18  1  0  0  0  0
 20 14  1  0  0  0  0
 21 12  2  0  0  0  0
M  END