508
  Mrv0541 07281413492D          

  4  3  0  0  0  0            999 V2000
   -0.4125   -0.7145    0.0000 C   0  0  0  0  0  0  0  0  0  0  0  0
   -0.4125    0.7145    0.0000 C   0  0  0  0  0  0  0  0  0  0  0  0
    0.8250    0.0000    0.0000 O   0  0  0  0  0  0  0  0  0  0  0  0
    0.0000    0.0000    0.0000 S   0  0  0  0  0  0  0  0  0  0  0  0
  4  1  1  0  0  0  0
  4  2  1  0  0  0  0
  4  3  2  0  0  0  0
M  END