510
  Mrv0541 07281413492D          

  3  2  0  0  0  0            999 V2000
    1.9520   -1.1270    0.0000 C   0  0  0  0  0  0  0  0  0  0  0  0
    1.2375   -0.7145    0.0000 Br  0  0  0  0  0  0  0  0  0  0  0  0
    2.6664   -0.7145    0.0000 Cl  0  0  0  0  0  0  0  0  0  0  0  0
  2  1  1  0  0  0  0
  3  1  1  0  0  0  0
M  END