512
  Mrv0541 07281413492D          

  3  2  0  0  0  0            999 V2000
    2.4750   -0.0000    0.0000 C   0  0  0  0  0  0  0  0  0  0  0  0
    1.6500   -0.0000    0.0000 S   0  0  0  0  0  0  0  0  0  0  0  0
    3.3000    0.0000    0.0000 S   0  0  0  0  0  0  0  0  0  0  0  0
  2  1  2  0  0  0  0
  3  1  2  0  0  0  0
M  END