527
  Mrv0541 07281413492D          

 23 24  0  0  0  0            999 V2000
   -1.4289    4.1250    0.0000 C   0  0  0  0  0  0  0  0  0  0  0  0
   -0.7145    4.5375    0.0000 C   0  0  0  0  0  0  0  0  0  0  0  0
    0.0000    4.1250    0.0000 C   0  0  0  0  0  0  0  0  0  0  0  0
    6.4302    7.8375    0.0000 C   0  0  0  0  0  0  0  0  0  0  0  0
    5.7158    8.2500    0.0000 C   0  0  0  0  0  0  0  0  0  0  0  0
    6.4302    7.0125    0.0000 C   0  0  0  0  0  0  0  0  0  0  0  0
    3.5724    2.8875    0.0000 C   0  0  0  0  0  0  0  0  0  0  0  0
    4.2868    3.3000    0.0000 C   0  0  0  0  0  0  0  0  0  0  0  0
    5.0013    7.8375    0.0000 C   0  0  0  0  0  0  0  0  0  0  0  0
    5.7158    6.6000    0.0000 C   0  0  0  0  0  0  0  0  0  0  0  0
    2.8579    3.3000    0.0000 C   0  0  0  0  0  0  0  0  0  0  0  0
    4.2868    4.1250    0.0000 C   0  0  0  0  0  0  0  0  0  0  0  0
    0.7145    4.5375    0.0000 C   0  0  0  0  0  0  0  0  0  0  0  0
    4.2868    6.6000    0.0000 C   0  0  0  0  0  0  0  0  0  0  0  0
    5.0013    7.0125    0.0000 C   0  0  0  0  0  0  0  0  0  0  0  0
    2.8579    4.1250    0.0000 C   0  0  0  0  0  0  0  0  0  0  0  0
    3.5724    4.5375    0.0000 C   0  0  0  0  0  0  0  0  0  0  0  0
    2.1434    4.5375    0.0000 C   0  0  0  0  0  0  0  0  0  0  0  0
    3.5724    5.3625    0.0000 C   0  0  0  0  0  0  0  0  0  0  0  0
    2.1434    5.3625    0.0000 O   0  0  0  0  0  0  0  0  0  0  0  0
    2.8579    5.7750    0.0000 O   0  0  0  0  0  0  0  0  0  0  0  0
    1.4289    4.1250    0.0000 O   0  0  0  0  0  0  0  0  0  0  0  0
    4.2868    5.7750    0.0000 O   0  0  0  0  0  0  0  0  0  0  0  0
  2  1  1  0  0  0  0
  3  2  1  0  0  0  0
  5  4  2  0  0  0  0
  6  4  1  0  0  0  0
  8  7  2  0  0  0  0
  9  5  1  0  0  0  0
 10  6  2  0  0  0  0
 11  7  1  0  0  0  0
 12  8  1  0  0  0  0
 13  3  1  0  0  0  0
 15  9  2  0  0  0  0
 15 10  1  0  0  0  0
 15 14  1  0  0  0  0
 16 11  2  0  0  0  0
 17 12  2  0  0  0  0
 17 16  1  0  0  0  0
 18 16  1  0  0  0  0
 19 17  1  0  0  0  0
 20 18  2  0  0  0  0
 21 19  2  0  0  0  0
 22 13  1  0  0  0  0
 22 18  1  0  0  0  0
 23 14  1  0  0  0  0
 23 19  1  0  0  0  0
M  END