529
  Mrv0541 07281413492D          

 13 15  0  0  0  0            999 V2000
    5.7729    1.8729    0.0000 C   0  0  0  0  0  0  0  0  0  0  0  0
    1.7200    1.8729    0.0000 C   0  0  0  0  0  0  0  0  0  0  0  0
    5.5179    2.6576    0.0000 C   0  0  0  0  0  0  0  0  0  0  0  0
    1.9749    2.6576    0.0000 C   0  0  0  0  0  0  0  0  0  0  0  0
    5.2208    1.2599    0.0000 C   0  0  0  0  0  0  0  0  0  0  0  0
    2.2720    1.2599    0.0000 C   0  0  0  0  0  0  0  0  0  0  0  0
    4.7110    2.8291    0.0000 C   0  0  0  0  0  0  0  0  0  0  0  0
    2.7819    2.8291    0.0000 C   0  0  0  0  0  0  0  0  0  0  0  0
    3.7464    0.9465    0.0000 C   0  0  0  0  0  0  0  0  0  0  0  0
    4.4139    1.4314    0.0000 C   0  0  0  0  0  0  0  0  0  0  0  0
    3.0790    1.4314    0.0000 C   0  0  0  0  0  0  0  0  0  0  0  0
    4.1589    2.2160    0.0000 C   0  0  0  0  0  0  0  0  0  0  0  0
    3.3339    2.2160    0.0000 C   0  0  0  0  0  0  0  0  0  0  0  0
  3  1  2  0  0  0  0
  4  2  2  0  0  0  0
  5  1  1  0  0  0  0
  6  2  1  0  0  0  0
  7  3  1  0  0  0  0
  8  4  1  0  0  0  0
 10  5  2  0  0  0  0
 10  9  1  0  0  0  0
 11  6  2  0  0  0  0
 11  9  1  0  0  0  0
 12  7  2  0  0  0  0
 12 10  1  0  0  0  0
 13  8  2  0  0  0  0
 13 11  1  0  0  0  0
 13 12  1  0  0  0  0
M  END