530
  Mrv0541 07281413492D          

 10  9  0  0  0  0            999 V2000
    1.2375    0.7145    0.0000 C   0  0  0  0  0  0  0  0  0  0  0  0
    0.8250    0.0000    0.0000 C   0  0  0  0  0  0  0  0  0  0  0  0
    2.0625    0.7145    0.0000 C   0  0  0  0  0  0  0  0  0  0  0  0
    0.0000    0.0000    0.0000 C   0  0  0  0  0  0  0  0  0  0  0  0
    0.8250    1.4289    0.0000 Cl  0  0  0  0  0  0  0  0  0  0  0  0
    1.2375   -0.7145    0.0000 Cl  0  0  0  0  0  0  0  0  0  0  0  0
    2.4750    1.4289    0.0000 Cl  0  0  0  0  0  0  0  0  0  0  0  0
    2.4750    0.0000    0.0000 Cl  0  0  0  0  0  0  0  0  0  0  0  0
   -0.4125   -0.7145    0.0000 Cl  0  0  0  0  0  0  0  0  0  0  0  0
   -0.4125    0.7145    0.0000 Cl  0  0  0  0  0  0  0  0  0  0  0  0
  2  1  1  0  0  0  0
  3  1  2  0  0  0  0
  4  2  2  0  0  0  0
  5  1  1  0  0  0  0
  6  2  1  0  0  0  0
  7  3  1  0  0  0  0
  8  3  1  0  0  0  0
  9  4  1  0  0  0  0
 10  4  1  0  0  0  0
M  END