550
  Mrv0541 07281413492D          

 11 11  0  0  0  0            999 V2000
   -0.0000    2.4750    0.0000 C   0  0  0  0  0  0  0  0  0  0  0  0
    1.4289    0.0000    0.0000 C   0  0  0  0  0  0  0  0  0  0  0  0
   -0.0000    0.0000    0.0000 C   0  0  0  0  0  0  0  0  0  0  0  0
    1.4289    0.8250    0.0000 C   0  0  0  0  0  0  0  0  0  0  0  0
   -0.0000    0.8250    0.0000 C   0  0  0  0  0  0  0  0  0  0  0  0
    0.7145   -0.4125    0.0000 C   0  0  0  0  0  0  0  0  0  0  0  0
    0.7145    1.2375    0.0000 C   0  0  0  0  0  0  0  0  0  0  0  0
    0.7145   -1.2375    0.0000 N   0  0  0  0  0  0  0  0  0  0  0  0
    1.4289   -1.6500    0.0000 O   0  0  0  0  0  0  0  0  0  0  0  0
   -0.0000   -1.6500    0.0000 O   0  0  0  0  0  0  0  0  0  0  0  0
    0.7145    2.0625    0.0000 O   0  0  0  0  0  0  0  0  0  0  0  0
  4  2  1  0  0  0  0
  5  3  2  0  0  0  0
  6  2  2  0  0  0  0
  6  3  1  0  0  0  0
  7  4  2  0  0  0  0
  7  5  1  0  0  0  0
  8  6  1  0  0  0  0
  9  8  2  0  0  0  0
 10  8  2  0  0  0  0
 11  1  1  0  0  0  0
 11  7  1  0  0  0  0
M  END