568
  Mrv0541 07281413492D          

  5  5  0  0  0  0            999 V2000
    1.2352    0.6294    0.0000 C   0  0  0  0  0  0  0  0  0  0  0  0
    0.5678    1.1143    0.0000 C   0  0  0  0  0  0  0  0  0  0  0  0
    0.9803   -0.1553    0.0000 C   0  0  0  0  0  0  0  0  0  0  0  0
   -0.0997    0.6294    0.0000 C   0  0  0  0  0  0  0  0  0  0  0  0
    0.1553   -0.1553    0.0000 O   0  0  0  0  0  0  0  0  0  0  0  0
  2  1  1  0  0  0  0
  3  1  2  0  0  0  0
  4  2  2  0  0  0  0
  5  3  1  0  0  0  0
  5  4  1  0  0  0  0
M  END