584
  Mrv0541 07281413492D          

 13 12  0  0  0  0            999 V2000
    1.4289   -1.8711    0.0000 C   0  0  0  0  0  0  0  0  0  0  0  0
   -0.7145    1.8414    0.0000 C   0  0  0  0  0  0  0  0  0  0  0  0
    2.1434    1.8414    0.0000 C   0  0  0  0  0  0  0  0  0  0  0  0
    0.7145   -0.6336    0.0000 C   0  0  0  0  0  0  0  0  0  0  0  0
   -0.0000    0.6039    0.0000 C   0  0  0  0  0  0  0  0  0  0  0  0
    1.4289    0.6039    0.0000 C   0  0  0  0  0  0  0  0  0  0  0  0
    1.4289   -1.0461    0.0000 C   0  0  0  0  0  0  0  0  0  0  0  0
   -0.0000    1.4289    0.0000 C   0  0  0  0  0  0  0  0  0  0  0  0
    1.4289    1.4289    0.0000 C   0  0  0  0  0  0  0  0  0  0  0  0
    0.7145    0.1914    0.0000 N   0  0  0  0  0  0  0  0  0  0  0  0
    2.1434   -0.6336    0.0000 O   0  0  0  0  0  0  0  0  0  0  0  0
    0.7145    1.8414    0.0000 O   0  0  0  0  0  0  0  0  0  0  0  0
    1.0934    2.1826    0.0000 O   0  0  0  0  0  0  0  0  0  0  0  0
  7  1  1  0  0  0  0
  7  4  1  0  0  0  0
  8  2  1  0  0  0  0
  8  5  1  0  0  0  0
  9  3  1  0  0  0  0
  9  6  1  0  0  0  0
 10  4  1  0  0  0  0
 10  5  1  0  0  0  0
 10  6  1  0  0  0  0
 11  7  1  0  0  0  0
 12  8  1  0  0  0  0
 13  9  1  0  0  0  0
M  END