589
  Mrv0541 07281413492D          

 15 14  0  0  0  0            999 V2000
   -0.4125    0.7145    0.0000 C   0  0  0  0  0  0  0  0  0  0  0  0
    0.8250    0.0000    0.0000 C   0  0  0  0  0  0  0  0  0  0  0  0
   -1.2375    0.7145    0.0000 C   0  0  0  0  0  0  0  0  0  0  0  0
    1.2375   -0.7145    0.0000 C   0  0  0  0  0  0  0  0  0  0  0  0
   -1.6500    1.4289    0.0000 C   0  0  0  0  0  0  0  0  0  0  0  0
    2.0625   -0.7145    0.0000 C   0  0  0  0  0  0  0  0  0  0  0  0
   -1.6500    0.0000    0.0000 Cl  0  0  0  0  0  0  0  0  0  0  0  0
    0.8250   -1.4289    0.0000 Cl  0  0  0  0  0  0  0  0  0  0  0  0
   -2.0625    2.1434    0.0000 Cl  0  0  0  0  0  0  0  0  0  0  0  0
   -2.3645    1.0164    0.0000 Cl  0  0  0  0  0  0  0  0  0  0  0  0
   -0.9355    1.8414    0.0000 Cl  0  0  0  0  0  0  0  0  0  0  0  0
    2.8875   -0.7145    0.0000 Cl  0  0  0  0  0  0  0  0  0  0  0  0
    2.0625   -1.5395    0.0000 Cl  0  0  0  0  0  0  0  0  0  0  0  0
    2.0625    0.1105    0.0000 Cl  0  0  0  0  0  0  0  0  0  0  0  0
    0.0000    0.0000    0.0000 O   0  0  0  0  0  0  0  0  0  0  0  0
  3  1  1  0  0  0  0
  4  2  1  0  0  0  0
  5  3  1  0  0  0  0
  6  4  1  0  0  0  0
  7  3  1  0  0  0  0
  8  4  1  0  0  0  0
  9  5  1  0  0  0  0
 10  5  1  0  0  0  0
 11  5  1  0  0  0  0
 12  6  1  0  0  0  0
 13  6  1  0  0  0  0
 14  6  1  0  0  0  0
 15  1  1  0  0  0  0
 15  2  1  0  0  0  0
M  END