590
  Mrv0541 07281413492D          

 16 19  0  0  0  0            999 V2000
    5.4434    0.4125    0.0000 C   0  0  0  0  0  0  0  0  0  0  0  0
    1.3184    0.4125    0.0000 C   0  0  0  0  0  0  0  0  0  0  0  0
    5.0309   -0.3020    0.0000 C   0  0  0  0  0  0  0  0  0  0  0  0
    5.0309    1.1270    0.0000 C   0  0  0  0  0  0  0  0  0  0  0  0
    1.7309   -0.3020    0.0000 C   0  0  0  0  0  0  0  0  0  0  0  0
    1.7309    1.1270    0.0000 C   0  0  0  0  0  0  0  0  0  0  0  0
    3.7934   -1.0164    0.0000 C   0  0  0  0  0  0  0  0  0  0  0  0
    3.7934    1.8414    0.0000 C   0  0  0  0  0  0  0  0  0  0  0  0
    2.9684   -1.0164    0.0000 C   0  0  0  0  0  0  0  0  0  0  0  0
    2.9684    1.8414    0.0000 C   0  0  0  0  0  0  0  0  0  0  0  0
    4.2059   -0.3020    0.0000 C   0  0  0  0  0  0  0  0  0  0  0  0
    4.2059    1.1270    0.0000 C   0  0  0  0  0  0  0  0  0  0  0  0
    2.5559   -0.3020    0.0000 C   0  0  0  0  0  0  0  0  0  0  0  0
    2.5559    1.1270    0.0000 C   0  0  0  0  0  0  0  0  0  0  0  0
    3.7934    0.4125    0.0000 C   0  0  0  0  0  0  0  0  0  0  0  0
    2.9684    0.4125    0.0000 C   0  0  0  0  0  0  0  0  0  0  0  0
  3  1  2  0  0  0  0
  4  1  1  0  0  0  0
  5  2  2  0  0  0  0
  6  2  1  0  0  0  0
  9  7  2  0  0  0  0
 10  8  2  0  0  0  0
 11  3  1  0  0  0  0
 11  7  1  0  0  0  0
 12  4  2  0  0  0  0
 12  8  1  0  0  0  0
 13  5  1  0  0  0  0
 13  9  1  0  0  0  0
 14  6  2  0  0  0  0
 14 10  1  0  0  0  0
 15 11  2  0  0  0  0
 15 12  1  0  0  0  0
 16 13  2  0  0  0  0
 16 14  1  0  0  0  0
 16 15  1  0  0  0  0
M  END