594
  Mrv0541 07281413492D          

 34 37  0  0  0  0            999 V2000
   -2.8579   -0.0000    0.0000 C   0  0  0  0  0  0  0  0  0  0  0  0
    0.7145   -1.2375    0.0000 C   0  0  0  0  0  0  0  0  0  0  0  0
   -3.5724   -0.4125    0.0000 C   0  0  0  0  0  0  0  0  0  0  0  0
    1.4289   -1.6500    0.0000 C   0  0  0  0  0  0  0  0  0  0  0  0
   -2.1434   -1.2375    0.0000 C   0  0  0  0  0  0  0  0  0  0  0  0
    1.4289   -0.0000    0.0000 C   0  0  0  0  0  0  0  0  0  0  0  0
   -2.8579   -2.4750    0.0000 C   0  0  0  0  0  0  0  0  0  0  0  0
    2.8579   -0.0000    0.0000 C   0  0  0  0  0  0  0  0  0  0  0  0
   -4.2868   -2.4750    0.0000 C   0  0  0  0  0  0  0  0  0  0  0  0
    3.5724   -1.2375    0.0000 C   0  0  0  0  0  0  0  0  0  0  0  0
   -2.8579   -1.6500    0.0000 C   0  0  0  0  0  0  0  0  0  0  0  0
    2.1434   -0.4125    0.0000 C   0  0  0  0  0  0  0  0  0  0  0  0
   -2.1434   -0.4125    0.0000 C   0  0  0  0  0  0  0  0  0  0  0  0
    0.7145   -0.4125    0.0000 C   0  0  0  0  0  0  0  0  0  0  0  0
   -3.5724   -2.8875    0.0000 C   0  0  0  0  0  0  0  0  0  0  0  0
    3.5724   -0.4125    0.0000 C   0  0  0  0  0  0  0  0  0  0  0  0
   -3.5724   -1.2375    0.0000 C   0  0  0  0  0  0  0  0  0  0  0  0
    2.1434   -1.2375    0.0000 C   0  0  0  0  0  0  0  0  0  0  0  0
   -4.2868   -1.6500    0.0000 C   0  0  0  0  0  0  0  0  0  0  0  0
    2.8579   -1.6500    0.0000 C   0  0  0  0  0  0  0  0  0  0  0  0
   -0.7145   -0.4125    0.0000 C   0  0  0  0  0  0  0  0  0  0  0  0
   -1.4289   -0.0000    0.0000 N   0  0  0  0  0  0  0  0  0  0  0  0
   -0.0000   -0.0000    0.0000 N   0  0  0  0  0  0  0  0  0  0  0  0
   -5.0013   -1.2375    0.0000 O   0  0  0  0  0  0  0  0  0  0  0  0
    2.8579   -2.4750    0.0000 O   0  0  0  0  0  0  0  0  0  0  0  0
   -0.7145   -1.2375    0.0000 O   0  0  0  0  0  0  0  0  0  0  0  0
   -3.5724   -4.5375    0.0000 O   0  0  0  0  0  0  0  0  0  0  0  0
   -2.7474   -3.7125    0.0000 O   0  0  0  0  0  0  0  0  0  0  0  0
   -4.3974   -3.7125    0.0000 O   0  0  0  0  0  0  0  0  0  0  0  0
    5.0013    0.4125    0.0000 O   0  0  0  0  0  0  0  0  0  0  0  0
    4.6993   -0.7145    0.0000 O   0  0  0  0  0  0  0  0  0  0  0  0
    3.8743    0.7145    0.0000 O   0  0  0  0  0  0  0  0  0  0  0  0
   -3.5724   -3.7125    0.0000 S   0  0  0  0  0  0  0  0  0  0  0  0
    4.2868    0.0000    0.0000 S   0  0  0  0  0  0  0  0  0  0  0  0
  3  1  1  0  0  0  0
  4  2  1  0  0  0  0
 11  5  2  0  0  0  0
 11  7  1  0  0  0  0
 12  6  2  0  0  0  0
 12  8  1  0  0  0  0
 13  1  2  0  0  0  0
 13  5  1  0  0  0  0
 14  2  2  0  0  0  0
 14  6  1  0  0  0  0
 15  7  2  0  0  0  0
 15  9  1  0  0  0  0
 16  8  2  0  0  0  0
 16 10  1  0  0  0  0
 17  3  2  0  0  0  0
 17 11  1  0  0  0  0
 18  4  2  0  0  0  0
 18 12  1  0  0  0  0
 19  9  2  0  0  0  0
 19 17  1  0  0  0  0
 20 10  2  0  0  0  0
 20 18  1  0  0  0  0
 22 13  1  0  0  0  0
 22 21  1  0  0  0  0
 23 14  1  0  0  0  0
 23 21  1  0  0  0  0
 24 19  1  0  0  0  0
 25 20  1  0  0  0  0
 26 21  2  0  0  0  0
 33 15  1  0  0  0  0
 33 27  1  0  0  0  0
 33 28  2  0  0  0  0
 33 29  2  0  0  0  0
 34 16  1  0  0  0  0
 34 30  1  0  0  0  0
 34 31  2  0  0  0  0
 34 32  2  0  0  0  0
M  END