600
  Mrv0541 07281413492D          

  6  5  0  0  0  0            999 V2000
   -0.4125   -0.7145    0.0000 C   0  0  0  0  0  0  0  0  0  0  0  0
    0.8250    0.0000    0.0000 C   0  0  0  0  0  0  0  0  0  0  0  0
   -0.8250   -1.4289    0.0000 N   0  0  0  0  0  0  0  0  0  0  0  0
    1.2375    0.7145    0.0000 N   0  0  0  0  0  0  0  0  0  0  0  0
    1.2375   -0.7145    0.0000 N   0  0  0  0  0  0  0  0  0  0  0  0
    0.0000    0.0000    0.0000 N   0  0  0  0  0  0  0  0  0  0  0  0
  3  1  3  0  0  0  0
  4  2  2  0  0  0  0
  5  2  1  0  0  0  0
  6  1  1  0  0  0  0
  6  2  1  0  0  0  0
M  END