622
  Mrv0541 07281413492D          

 15 14  0  0  0  0            999 V2000
   -4.4270    2.5559    0.0000 C   0  0  0  0  0  0  0  0  0  0  0  0
    5.5756    2.5559    0.0000 C   0  0  0  0  0  0  0  0  0  0  0  0
   -3.7125    2.1434    0.0000 C   0  0  0  0  0  0  0  0  0  0  0  0
    4.8612    2.1434    0.0000 C   0  0  0  0  0  0  0  0  0  0  0  0
   -2.9980    2.5559    0.0000 C   0  0  0  0  0  0  0  0  0  0  0  0
    4.1467    2.5559    0.0000 C   0  0  0  0  0  0  0  0  0  0  0  0
   -2.2836    2.1434    0.0000 C   0  0  0  0  0  0  0  0  0  0  0  0
    3.4322    2.1434    0.0000 C   0  0  0  0  0  0  0  0  0  0  0  0
   -1.5691    2.5559    0.0000 C   0  0  0  0  0  0  0  0  0  0  0  0
    2.7177    2.5559    0.0000 C   0  0  0  0  0  0  0  0  0  0  0  0
   -0.8546    2.1434    0.0000 C   0  0  0  0  0  0  0  0  0  0  0  0
    2.0033    2.1434    0.0000 C   0  0  0  0  0  0  0  0  0  0  0  0
   -0.1401    2.5559    0.0000 C   0  0  0  0  0  0  0  0  0  0  0  0
    1.2888    2.5559    0.0000 C   0  0  0  0  0  0  0  0  0  0  0  0
    0.5743    2.1434    0.0000 C   0  0  0  0  0  0  0  0  0  0  0  0
  3  1  1  0  0  0  0
  4  2  1  0  0  0  0
  5  3  1  0  0  0  0
  6  4  1  0  0  0  0
  7  5  1  0  0  0  0
  8  6  1  0  0  0  0
  9  7  1  0  0  0  0
 10  8  1  0  0  0  0
 11  9  1  0  0  0  0
 12 10  1  0  0  0  0
 13 11  1  0  0  0  0
 14 12  1  0  0  0  0
 15 13  1  0  0  0  0
 15 14  1  0  0  0  0
M  END