624
  Mrv0541 07281413492D          

 19 20  0  0  0  0            999 V2000
   -2.1232    0.9999    0.0000 C   0  0  0  0  0  0  0  0  0  0  0  0
   -0.6942    3.4749    0.0000 C   0  0  0  0  0  0  0  0  0  0  0  0
    3.3523    1.1104    0.0000 C   0  0  0  0  0  0  0  0  0  0  0  0
    3.3523    1.9354    0.0000 C   0  0  0  0  0  0  0  0  0  0  0  0
    2.6378    0.6979    0.0000 C   0  0  0  0  0  0  0  0  0  0  0  0
    2.6378    2.3479    0.0000 C   0  0  0  0  0  0  0  0  0  0  0  0
   -0.1712    1.5229    0.0000 C   0  0  0  0  0  0  0  0  0  0  0  0
    1.9233    1.1104    0.0000 C   0  0  0  0  0  0  0  0  0  0  0  0
    1.9233    1.9354    0.0000 C   0  0  0  0  0  0  0  0  0  0  0  0
    1.1387    0.8555    0.0000 C   0  0  0  0  0  0  0  0  0  0  0  0
    1.1387    2.1904    0.0000 C   0  0  0  0  0  0  0  0  0  0  0  0
    0.6538    1.5229    0.0000 N   0  0  0  0  0  0  0  0  0  0  0  0
    0.8838    0.0709    0.0000 O   0  0  0  0  0  0  0  0  0  0  0  0
    0.8838    2.9750    0.0000 O   0  0  0  0  0  0  0  0  0  0  0  0
   -1.4087    1.4124    0.0000 O   0  0  0  0  0  0  0  0  0  0  0  0
   -1.4087    3.0624    0.0000 O   0  0  0  0  0  0  0  0  0  0  0  0
   -1.4087    2.2374    0.0000 P   0  0  0  0  0  0  0  0  0  0  0  0
   -2.2337    2.2374    0.0000 S   0  0  0  0  0  0  0  0  0  0  0  0
   -0.5837    2.2374    0.0000 S   0  0  0  0  0  0  0  0  0  0  0  0
  4  3  2  0  0  0  0
  5  3  1  0  0  0  0
  6  4  1  0  0  0  0
  8  5  2  0  0  0  0
  9  6  2  0  0  0  0
  9  8  1  0  0  0  0
 10  8  1  0  0  0  0
 11  9  1  0  0  0  0
 12  7  1  0  0  0  0
 12 10  1  0  0  0  0
 12 11  1  0  0  0  0
 13 10  2  0  0  0  0
 14 11  2  0  0  0  0
 15  1  1  0  0  0  0
 16  2  1  0  0  0  0
 17 15  1  0  0  0  0
 17 16  1  0  0  0  0
 18 17  2  0  0  0  0
 19  7  1  0  0  0  0
 19 17  1  0  0  0  0
M  END