631
  Mrv0541 07281413492D          

 15 17  0  0  0  0            999 V2000
    4.7289    1.6500    0.0000 C   0  0  0  0  0  0  0  0  0  0  0  0
    4.3164    2.3645    0.0000 C   0  0  0  0  0  0  0  0  0  0  0  0
    1.0164    2.3645    0.0000 C   0  0  0  0  0  0  0  0  0  0  0  0
    0.6039    1.6500    0.0000 C   0  0  0  0  0  0  0  0  0  0  0  0
    4.3164    0.9355    0.0000 C   0  0  0  0  0  0  0  0  0  0  0  0
    3.4914    2.3645    0.0000 C   0  0  0  0  0  0  0  0  0  0  0  0
    1.8414    2.3645    0.0000 C   0  0  0  0  0  0  0  0  0  0  0  0
    1.0164    0.9355    0.0000 C   0  0  0  0  0  0  0  0  0  0  0  0
    3.0789    0.2211    0.0000 C   0  0  0  0  0  0  0  0  0  0  0  0
    3.4914    0.9355    0.0000 C   0  0  0  0  0  0  0  0  0  0  0  0
    3.0789    1.6500    0.0000 C   0  0  0  0  0  0  0  0  0  0  0  0
    2.2539    1.6500    0.0000 C   0  0  0  0  0  0  0  0  0  0  0  0
    1.8414    0.9355    0.0000 C   0  0  0  0  0  0  0  0  0  0  0  0
    2.2539    0.2211    0.0000 C   0  0  0  0  0  0  0  0  0  0  0  0
    1.8414   -0.4934    0.0000 Cl  0  0  0  0  0  0  0  0  0  0  0  0
  2  1  2  0  0  0  0
  4  3  2  0  0  0  0
  5  1  1  0  0  0  0
  6  2  1  0  0  0  0
  7  3  1  0  0  0  0
  8  4  1  0  0  0  0
 10  5  2  0  0  0  0
 10  9  1  0  0  0  0
 11  6  2  0  0  0  0
 11 10  1  0  0  0  0
 12  7  2  0  0  0  0
 12 11  1  0  0  0  0
 13  8  2  0  0  0  0
 13 12  1  0  0  0  0
 14  9  2  0  0  0  0
 14 13  1  0  0  0  0
 15 14  1  0  0  0  0
M  END