639
  Mrv0541 07281413492D          

 29 28  0  0  0  0            999 V2000
   -0.0000    4.1250    0.0000 C   0  0  0  0  0  0  0  0  0  0  0  0
   -0.0000    3.3000    0.0000 C   0  0  0  0  0  0  0  0  0  0  0  0
   -0.0000    4.9500    0.0000 C   0  0  0  0  0  0  0  0  0  0  0  0
   -0.0000    2.4750    0.0000 C   0  0  0  0  0  0  0  0  0  0  0  0
   -0.0000    5.7750    0.0000 C   0  0  0  0  0  0  0  0  0  0  0  0
    0.0000    1.6500    0.0000 C   0  0  0  0  0  0  0  0  0  0  0  0
   -0.0000    6.6000    0.0000 C   0  0  0  0  0  0  0  0  0  0  0  0
    0.0000    0.8250    0.0000 C   0  0  0  0  0  0  0  0  0  0  0  0
   -0.8250    4.1250    0.0000 F   0  0  0  0  0  0  0  0  0  0  0  0
    0.8250    4.1250    0.0000 F   0  0  0  0  0  0  0  0  0  0  0  0
   -0.8250    3.3000    0.0000 F   0  0  0  0  0  0  0  0  0  0  0  0
    0.8250    3.3000    0.0000 F   0  0  0  0  0  0  0  0  0  0  0  0
   -0.8250    4.9500    0.0000 F   0  0  0  0  0  0  0  0  0  0  0  0
    0.8250    4.9500    0.0000 F   0  0  0  0  0  0  0  0  0  0  0  0
   -0.8250    2.4750    0.0000 F   0  0  0  0  0  0  0  0  0  0  0  0
    0.8250    2.4750    0.0000 F   0  0  0  0  0  0  0  0  0  0  0  0
   -0.8250    5.7750    0.0000 F   0  0  0  0  0  0  0  0  0  0  0  0
    0.8250    5.7750    0.0000 F   0  0  0  0  0  0  0  0  0  0  0  0
   -0.8250    1.6500    0.0000 F   0  0  0  0  0  0  0  0  0  0  0  0
    0.8250    1.6500    0.0000 F   0  0  0  0  0  0  0  0  0  0  0  0
   -0.0000    7.4250    0.0000 F   0  0  0  0  0  0  0  0  0  0  0  0
   -0.8250    6.6000    0.0000 F   0  0  0  0  0  0  0  0  0  0  0  0
    0.8250    6.6000    0.0000 F   0  0  0  0  0  0  0  0  0  0  0  0
   -0.8250    0.8250    0.0000 F   0  0  0  0  0  0  0  0  0  0  0  0
    0.8250    0.8250    0.0000 F   0  0  0  0  0  0  0  0  0  0  0  0
   -0.0000   -0.8250    0.0000 O   0  0  0  0  0  0  0  0  0  0  0  0
   -0.8250    0.0000    0.0000 O   0  0  0  0  0  0  0  0  0  0  0  0
    0.8250    0.0000    0.0000 O   0  0  0  0  0  0  0  0  0  0  0  0
    0.0000    0.0000    0.0000 S   0  0  0  0  0  0  0  0  0  0  0  0
  2  1  1  0  0  0  0
  3  1  1  0  0  0  0
  4  2  1  0  0  0  0
  5  3  1  0  0  0  0
  6  4  1  0  0  0  0
  7  5  1  0  0  0  0
  8  6  1  0  0  0  0
  9  1  1  0  0  0  0
 10  1  1  0  0  0  0
 11  2  1  0  0  0  0
 12  2  1  0  0  0  0
 13  3  1  0  0  0  0
 14  3  1  0  0  0  0
 15  4  1  0  0  0  0
 16  4  1  0  0  0  0
 17  5  1  0  0  0  0
 18  5  1  0  0  0  0
 19  6  1  0  0  0  0
 20  6  1  0  0  0  0
 21  7  1  0  0  0  0
 22  7  1  0  0  0  0
 23  7  1  0  0  0  0
 24  8  1  0  0  0  0
 25  8  1  0  0  0  0
 29  8  1  0  0  0  0
 29 26  1  0  0  0  0
 29 27  2  0  0  0  0
 29 28  2  0  0  0  0
M  END