640
  Mrv0541 07281413492D          

 31 33  0  0  0  0            999 V2000
    1.6991    2.5701    0.0000 C   0  0  0  0  0  0  0  0  0  0  0  0
    1.2575    3.9291    0.0000 C   0  0  0  0  0  0  0  0  0  0  0  0
   -3.0401    0.4394    0.0000 C   0  0  0  0  0  0  0  0  0  0  0  0
   -1.8841   -0.4005    0.0000 C   0  0  0  0  0  0  0  0  0  0  0  0
    2.4837    2.8250    0.0000 C   0  0  0  0  0  0  0  0  0  0  0  0
    2.0421    4.1840    0.0000 C   0  0  0  0  0  0  0  0  0  0  0  0
   -3.5251   -0.2280    0.0000 C   0  0  0  0  0  0  0  0  0  0  0  0
   -2.3690   -1.0679    0.0000 C   0  0  0  0  0  0  0  0  0  0  0  0
    1.0860    3.1221    0.0000 C   0  0  0  0  0  0  0  0  0  0  0  0
   -2.2197    0.3532    0.0000 C   0  0  0  0  0  0  0  0  0  0  0  0
    2.6552    3.6320    0.0000 C   0  0  0  0  0  0  0  0  0  0  0  0
   -3.1895   -0.9817    0.0000 C   0  0  0  0  0  0  0  0  0  0  0  0
   -0.6548    1.8053    0.0000 C   0  0  0  0  0  0  0  0  0  0  0  0
   -1.3222    2.2902    0.0000 C   0  0  0  0  0  0  0  0  0  0  0  0
   -0.9097    1.0206    0.0000 C   0  0  0  0  0  0  0  0  0  0  0  0
   -1.3222    3.1152    0.0000 C   0  0  0  0  0  0  0  0  0  0  0  0
    0.3014    2.8672    0.0000 N   0  0  0  0  0  0  0  0  0  0  0  0
    0.1298    2.0602    0.0000 N   0  0  0  0  0  0  0  0  0  0  0  0
   -1.9897    1.8053    0.0000 N   0  0  0  0  0  0  0  0  0  0  0  0
   -1.7347    1.0206    0.0000 N   0  0  0  0  0  0  0  0  0  0  0  0
   -0.4248    0.3532    0.0000 O   0  0  0  0  0  0  0  0  0  0  0  0
   -2.0367    3.5277    0.0000 O   0  0  0  0  0  0  0  0  0  0  0  0
   -0.6078    3.5277    0.0000 O   0  0  0  0  0  0  0  0  0  0  0  0
    4.2245    4.1419    0.0000 O   0  0  0  0  0  0  0  0  0  0  0  0
    3.1849    4.6715    0.0000 O   0  0  0  0  0  0  0  0  0  0  0  0
    3.6948    3.1023    0.0000 O   0  0  0  0  0  0  0  0  0  0  0  0
   -4.1594   -2.3166    0.0000 O   0  0  0  0  0  0  0  0  0  0  0  0
   -4.3419   -1.1642    0.0000 O   0  0  0  0  0  0  0  0  0  0  0  0
   -3.0070   -2.1340    0.0000 O   0  0  0  0  0  0  0  0  0  0  0  0
    3.4398    3.8869    0.0000 S   0  0  0  0  0  0  0  0  0  0  0  0
   -3.6744   -1.6491    0.0000 S   0  0  0  0  0  0  0  0  0  0  0  0
  5  1  1  0  0  0  0
  6  2  2  0  0  0  0
  7  3  1  0  0  0  0
  8  4  2  0  0  0  0
  9  1  2  0  0  0  0
  9  2  1  0  0  0  0
 10  3  2  0  0  0  0
 10  4  1  0  0  0  0
 11  5  2  0  0  0  0
 11  6  1  0  0  0  0
 12  7  2  0  0  0  0
 12  8  1  0  0  0  0
 14 13  1  0  0  0  0
 15 13  1  0  0  0  0
 16 14  1  0  0  0  0
 17  9  1  0  0  0  0
 18 13  1  0  0  0  0
 18 17  2  0  0  0  0
 19 14  2  0  0  0  0
 20 10  1  0  0  0  0
 20 15  1  0  0  0  0
 20 19  1  0  0  0  0
 21 15  2  0  0  0  0
 22 16  1  0  0  0  0
 23 16  2  0  0  0  0
 30 11  1  0  0  0  0
 30 24  1  0  0  0  0
 30 25  2  0  0  0  0
 30 26  2  0  0  0  0
 31 12  1  0  0  0  0
 31 27  1  0  0  0  0
 31 28  2  0  0  0  0
 31 29  2  0  0  0  0
M  END