656
  Mrv0541 07281413492D          

 26 28  0  0  0  0            999 V2000
   -0.8250   10.4447    0.0000 C   0  0  0  0  0  0  0  0  0  0  0  0
   -1.1270    2.5559    0.0000 C   0  0  0  0  0  0  0  0  0  0  0  0
   -1.6500   10.4447    0.0000 C   0  0  0  0  0  0  0  0  0  0  0  0
   -0.4125    9.7302    0.0000 C   0  0  0  0  0  0  0  0  0  0  0  0
   -0.4125    2.9684    0.0000 C   0  0  0  0  0  0  0  0  0  0  0  0
   -1.8414    2.9684    0.0000 C   0  0  0  0  0  0  0  0  0  0  0  0
   -2.0625    9.7302    0.0000 C   0  0  0  0  0  0  0  0  0  0  0  0
   -0.8250    9.0158    0.0000 C   0  0  0  0  0  0  0  0  0  0  0  0
   -0.4125    3.7934    0.0000 C   0  0  0  0  0  0  0  0  0  0  0  0
   -1.8414    3.7934    0.0000 C   0  0  0  0  0  0  0  0  0  0  0  0
   -0.4125    6.8724    0.0000 C   0  0  0  0  0  0  0  0  0  0  0  0
   -0.8250    7.5868    0.0000 C   0  0  0  0  0  0  0  0  0  0  0  0
   -1.6500    6.1579    0.0000 C   0  0  0  0  0  0  0  0  0  0  0  0
   -1.6500    9.0158    0.0000 C   0  0  0  0  0  0  0  0  0  0  0  0
   -1.1270    4.2059    0.0000 C   0  0  0  0  0  0  0  0  0  0  0  0
   -0.8250    6.1579    0.0000 C   0  0  0  0  0  0  0  0  0  0  0  0
   -1.6500    7.5868    0.0000 C   0  0  0  0  0  0  0  0  0  0  0  0
   -2.0625    6.8724    0.0000 C   0  0  0  0  0  0  0  0  0  0  0  0
   -2.0625    8.3013    0.0000 N   0  0  0  0  0  0  0  0  0  0  0  0
   -1.1270    5.0309    0.0000 N   0  0  0  0  0  0  0  0  0  0  0  0
   -2.8875    6.8724    0.0000 N   0  0  0  0  0  0  0  0  0  0  0  0
   -3.3000    7.5868    0.0000 O   0  0  0  0  0  0  0  0  0  0  0  0
   -3.3000    6.1579    0.0000 O   0  0  0  0  0  0  0  0  0  0  0  0
    0.3020    5.8559    0.0000 O   0  0  0  0  0  0  0  0  0  0  0  0
    0.0000    4.7289    0.0000 O   0  0  0  0  0  0  0  0  0  0  0  0
   -0.4125    5.4434    0.0000 S   0  0  0  0  0  0  0  0  0  0  0  0
  3  1  2  0  0  0  0
  4  1  1  0  0  0  0
  5  2  2  0  0  0  0
  6  2  1  0  0  0  0
  7  3  1  0  0  0  0
  8  4  2  0  0  0  0
  9  5  1  0  0  0  0
 10  6  2  0  0  0  0
 12 11  2  0  0  0  0
 14  7  2  0  0  0  0
 14  8  1  0  0  0  0
 15  9  2  0  0  0  0
 15 10  1  0  0  0  0
 16 11  1  0  0  0  0
 16 13  2  0  0  0  0
 17 12  1  0  0  0  0
 18 13  1  0  0  0  0
 18 17  2  0  0  0  0
 19 14  1  0  0  0  0
 19 17  1  0  0  0  0
 20 15  1  0  0  0  0
 21 18  1  0  0  0  0
 22 21  2  0  0  0  0
 23 21  2  0  0  0  0
 26 16  1  0  0  0  0
 26 20  1  0  0  0  0
 26 24  2  0  0  0  0
 26 25  2  0  0  0  0
M  END