657
  Mrv0541 07281413492D          

 15 17  0  0  0  0            999 V2000
    6.2800    1.3377    0.0000 C   0  0  0  0  0  0  0  0  0  0  0  0
    2.2271    1.3377    0.0000 C   0  0  0  0  0  0  0  0  0  0  0  0
    5.7279    1.9508    0.0000 C   0  0  0  0  0  0  0  0  0  0  0  0
    2.7791    1.9508    0.0000 C   0  0  0  0  0  0  0  0  0  0  0  0
    5.2180    0.3816    0.0000 C   0  0  0  0  0  0  0  0  0  0  0  0
    3.2890    0.3816    0.0000 C   0  0  0  0  0  0  0  0  0  0  0  0
    6.0250    0.5531    0.0000 C   0  0  0  0  0  0  0  0  0  0  0  0
    2.4820    0.5531    0.0000 C   0  0  0  0  0  0  0  0  0  0  0  0
    4.6660    0.9946    0.0000 C   0  0  0  0  0  0  0  0  0  0  0  0
    3.8410    0.9946    0.0000 C   0  0  0  0  0  0  0  0  0  0  0  0
    4.9210    1.7793    0.0000 C   0  0  0  0  0  0  0  0  0  0  0  0
    3.5861    1.7793    0.0000 C   0  0  0  0  0  0  0  0  0  0  0  0
    6.5771   -0.0600    0.0000 Cl  0  0  0  0  0  0  0  0  0  0  0  0
    1.9300   -0.0600    0.0000 Cl  0  0  0  0  0  0  0  0  0  0  0  0
    4.2535    2.2642    0.0000 O   0  0  0  0  0  0  0  0  0  0  0  0
  3  1  2  0  0  0  0
  4  2  2  0  0  0  0
  7  1  1  0  0  0  0
  7  5  2  0  0  0  0
  8  2  1  0  0  0  0
  8  6  2  0  0  0  0
  9  5  1  0  0  0  0
 10  6  1  0  0  0  0
 10  9  1  0  0  0  0
 11  3  1  0  0  0  0
 11  9  2  0  0  0  0
 12  4  1  0  0  0  0
 12 10  2  0  0  0  0
 13  7  1  0  0  0  0
 14  8  1  0  0  0  0
 15 11  1  0  0  0  0
 15 12  1  0  0  0  0
M  END