660
  Mrv0541 07281413492D          

 14 15  0  0  0  0            999 V2000
   -1.8212    2.9519    0.0000 C   0  0  0  0  0  0  0  0  0  0  0  0
    3.3523    1.1104    0.0000 C   0  0  0  0  0  0  0  0  0  0  0  0
    3.3523    1.9354    0.0000 C   0  0  0  0  0  0  0  0  0  0  0  0
    2.6378    0.6979    0.0000 C   0  0  0  0  0  0  0  0  0  0  0  0
    2.6378    2.3479    0.0000 C   0  0  0  0  0  0  0  0  0  0  0  0
    1.9233    1.1104    0.0000 C   0  0  0  0  0  0  0  0  0  0  0  0
    1.9233    1.9354    0.0000 C   0  0  0  0  0  0  0  0  0  0  0  0
    0.6538    1.5229    0.0000 C   0  0  0  0  0  0  0  0  0  0  0  0
   -0.5837    2.2374    0.0000 C   0  0  0  0  0  0  0  0  0  0  0  0
    1.1387    0.8555    0.0000 N   0  0  0  0  0  0  0  0  0  0  0  0
    1.1387    2.1904    0.0000 N   0  0  0  0  0  0  0  0  0  0  0  0
   -0.1712    1.5229    0.0000 N   0  0  0  0  0  0  0  0  0  0  0  0
   -0.1712    2.9519    0.0000 O   0  0  0  0  0  0  0  0  0  0  0  0
   -1.4087    2.2374    0.0000 O   0  0  0  0  0  0  0  0  0  0  0  0
  3  2  2  0  0  0  0
  4  2  1  0  0  0  0
  5  3  1  0  0  0  0
  6  4  2  0  0  0  0
  7  5  2  0  0  0  0
  7  6  1  0  0  0  0
 10  6  1  0  0  0  0
 10  8  2  0  0  0  0
 11  7  1  0  0  0  0
 11  8  1  0  0  0  0
 12  8  1  4  0  0  0
 12  9  2  0  0  0  0
 13  9  1  0  0  0  0
 14  1  1  0  0  0  0
 14  9  1  0  0  0  0
M  END