662
  Mrv0541 07281413492D          

 12 11  0  0  0  0            999 V2000
   -2.6664    0.7145    0.0000 C   0  0  0  0  0  0  0  0  0  0  0  0
    3.7638    1.1270    0.0000 C   0  0  0  0  0  0  0  0  0  0  0  0
    3.0493   -0.1105    0.0000 C   0  0  0  0  0  0  0  0  0  0  0  0
    0.1914   -0.1105    0.0000 C   0  0  0  0  0  0  0  0  0  0  0  0
   -1.9520    1.1270    0.0000 C   0  0  0  0  0  0  0  0  0  0  0  0
   -1.2375    0.7145    0.0000 C   0  0  0  0  0  0  0  0  0  0  0  0
    1.6204    0.7145    0.0000 C   0  0  0  0  0  0  0  0  0  0  0  0
    2.3349    1.1270    0.0000 C   0  0  0  0  0  0  0  0  0  0  0  0
   -0.5230    1.1270    0.0000 C   0  0  0  0  0  0  0  0  0  0  0  0
    0.9059    1.1270    0.0000 C   0  0  0  0  0  0  0  0  0  0  0  0
    3.0493    0.7145    0.0000 C   0  0  0  0  0  0  0  0  0  0  0  0
    0.1914    0.7145    0.0000 C   0  0  0  0  0  0  0  0  0  0  0  0
  5  1  1  0  0  0  0
  6  5  1  0  0  0  0
  8  7  1  0  0  0  0
  9  6  1  0  0  0  0
 10  7  1  0  0  0  0
 11  2  1  0  0  0  0
 11  3  1  0  0  0  0
 11  8  1  0  0  0  0
 12  4  1  0  0  0  0
 12  9  1  0  0  0  0
 12 10  1  0  0  0  0
M  END