663
  Mrv0541 07281413492D          

 25 27  0  0  0  0            999 V2000
   -4.4814   -4.6899    0.0000 C   0  0  0  0  0  0  0  0  0  0  0  0
   -1.0698   -3.2919    0.0000 C   0  0  0  0  0  0  0  0  0  0  0  0
    1.6146   -2.8227    0.0000 C   0  0  0  0  0  0  0  0  0  0  0  0
    0.1287   -2.8355    0.0000 C   0  0  0  0  0  0  0  0  0  0  0  0
    0.9659   -2.7569    0.0000 C   0  0  0  0  0  0  0  0  0  0  0  0
   -4.2274   -3.9049    0.0000 C   0  0  0  0  0  0  0  0  0  0  0  0
   -1.8936   -3.3375    0.0000 C   0  0  0  0  0  0  0  0  0  0  0  0
   -3.3820   -3.7242    0.0000 C   0  0  0  0  0  0  0  0  0  0  0  0
   -3.1722   -2.8792    0.0000 C   0  0  0  0  0  0  0  0  0  0  0  0
    1.8140   -2.1055    0.0000 C   0  0  0  0  0  0  0  0  0  0  0  0
    1.2052   -0.7200    0.0000 C   0  0  0  0  0  0  0  0  0  0  0  0
    1.6614   -1.3425    0.0000 C   0  0  0  0  0  0  0  0  0  0  0  0
    0.9605   -0.1141    0.0000 C   0  0  0  0  0  0  0  0  0  0  0  0
   -1.9686   -1.9030    0.0000 C   0  0  0  0  0  0  0  0  0  0  0  0
    0.8531   -2.1680    0.0000 C   0  0  0  0  0  0  0  0  0  0  0  0
   -2.3449   -2.6469    0.0000 C   0  0  0  0  0  0  0  0  0  0  0  0
    0.2262   -2.1175    0.0000 C   0  0  0  0  0  0  0  0  0  0  0  0
    0.1103   -1.3007    0.0000 C   0  0  0  0  0  0  0  0  0  0  0  0
   -0.5148   -2.4802    0.0000 C   0  0  0  0  0  0  0  0  0  0  0  0
   -0.7024   -1.1585    0.0000 C   0  0  0  0  0  0  0  0  0  0  0  0
    1.0655   -1.7586    0.0000 C   0  0  0  0  0  0  0  0  0  0  0  0
    0.9228   -1.0102    0.0000 C   0  0  0  0  0  0  0  0  0  0  0  0
   -1.0887   -1.8875    0.0000 N   0  0  0  0  0  0  0  0  0  0  0  0
   -0.4160   -3.4614    0.0000 O   0  0  0  0  0  0  0  0  0  0  0  0
   -1.0565   -0.3566    0.0000 O   0  0  0  0  0  0  0  0  0  0  0  0
  6  1  1  0  0  0  0
  7  2  1  0  0  0  0
  8  6  1  0  0  0  0
  9  8  1  0  0  0  0
 12 10  2  0  0  0  0
 13 11  1  0  0  0  0
 15  3  1  0  0  0  0
 15  4  1  0  0  0  0
 16  7  1  0  0  0  0
 16  9  1  0  0  0  0
 16 14  1  0  0  0  0
 18 17  1  0  0  0  0
 19 17  1  0  0  0  0
 20 18  1  0  0  0  0
 21  5  1  0  0  0  0
 21 10  1  0  0  0  0
 21 11  1  0  0  0  0
 21 17  1  0  0  0  0
 22 12  1  0  0  0  0
 22 13  1  0  0  0  0
 22 15  1  0  0  0  0
 22 18  1  0  0  0  0
 23 14  1  0  0  0  0
 23 19  1  0  0  0  0
 23 20  1  0  0  0  0
 24 19  2  0  0  0  0
 25 20  2  0  0  0  0
M  END