668
  Mrv0541 07281413492D          

 64 71  0  0  0  0            999 V2000
    1.4289   12.3750    0.0000 C   0  0  0  0  0  0  0  0  0  0  0  0
   -2.1434   -0.4125    0.0000 C   0  0  0  0  0  0  0  0  0  0  0  0
    0.7145   11.9625    0.0000 C   0  0  0  0  0  0  0  0  0  0  0  0
    2.1434   11.9625    0.0000 C   0  0  0  0  0  0  0  0  0  0  0  0
   -1.4289    0.0000    0.0000 C   0  0  0  0  0  0  0  0  0  0  0  0
   -2.8579    0.0000    0.0000 C   0  0  0  0  0  0  0  0  0  0  0  0
    0.7145   11.1375    0.0000 C   0  0  0  0  0  0  0  0  0  0  0  0
    2.1434   11.1375    0.0000 C   0  0  0  0  0  0  0  0  0  0  0  0
   -1.4289    0.8250    0.0000 C   0  0  0  0  0  0  0  0  0  0  0  0
   -2.8579    0.8250    0.0000 C   0  0  0  0  0  0  0  0  0  0  0  0
   -0.0000    5.7750    0.0000 C   0  0  0  0  0  0  0  0  0  0  0  0
   -0.7145    6.1875    0.0000 C   0  0  0  0  0  0  0  0  0  0  0  0
    1.4289    5.7750    0.0000 C   0  0  0  0  0  0  0  0  0  0  0  0
   -2.1434    6.1875    0.0000 C   0  0  0  0  0  0  0  0  0  0  0  0
    2.1434    6.1875    0.0000 C   0  0  0  0  0  0  0  0  0  0  0  0
   -2.8579    5.7750    0.0000 C   0  0  0  0  0  0  0  0  0  0  0  0
    5.0013    9.4875    0.0000 C   0  0  0  0  0  0  0  0  0  0  0  0
    4.2868   10.7250    0.0000 C   0  0  0  0  0  0  0  0  0  0  0  0
   -5.7158    2.4750    0.0000 C   0  0  0  0  0  0  0  0  0  0  0  0
   -5.0013    1.2375    0.0000 C   0  0  0  0  0  0  0  0  0  0  0  0
    5.7158    9.9000    0.0000 C   0  0  0  0  0  0  0  0  0  0  0  0
    5.0013   11.1375    0.0000 C   0  0  0  0  0  0  0  0  0  0  0  0
   -6.4302    2.0625    0.0000 C   0  0  0  0  0  0  0  0  0  0  0  0
   -5.7158    0.8250    0.0000 C   0  0  0  0  0  0  0  0  0  0  0  0
    1.4289    7.4250    0.0000 C   0  0  0  0  0  0  0  0  0  0  0  0
   -2.1434    4.5375    0.0000 C   0  0  0  0  0  0  0  0  0  0  0  0
    0.7145    6.1875    0.0000 C   0  0  0  0  0  0  0  0  0  0  0  0
   -1.4289    5.7750    0.0000 C   0  0  0  0  0  0  0  0  0  0  0  0
    1.4289   10.7250    0.0000 C   0  0  0  0  0  0  0  0  0  0  0  0
   -2.1434    1.2375    0.0000 C   0  0  0  0  0  0  0  0  0  0  0  0
    2.1434    7.0125    0.0000 C   0  0  0  0  0  0  0  0  0  0  0  0
   -2.8579    4.9500    0.0000 C   0  0  0  0  0  0  0  0  0  0  0  0
    0.7145    7.0125    0.0000 C   0  0  0  0  0  0  0  0  0  0  0  0
   -1.4289    4.9500    0.0000 C   0  0  0  0  0  0  0  0  0  0  0  0
    2.1434    9.4875    0.0000 C   0  0  0  0  0  0  0  0  0  0  0  0
   -2.8579    2.4750    0.0000 C   0  0  0  0  0  0  0  0  0  0  0  0
    2.8579    8.2500    0.0000 C   0  0  0  0  0  0  0  0  0  0  0  0
   -3.5724    3.7125    0.0000 C   0  0  0  0  0  0  0  0  0  0  0  0
    3.5724    9.4875    0.0000 C   0  0  0  0  0  0  0  0  0  0  0  0
   -4.2868    2.4750    0.0000 C   0  0  0  0  0  0  0  0  0  0  0  0
    1.4289    9.9000    0.0000 N   0  0  0  0  0  0  0  0  0  0  0  0
   -2.1434    2.0625    0.0000 N   0  0  0  0  0  0  0  0  0  0  0  0
    2.8579    7.4250    0.0000 N   0  0  0  0  0  0  0  0  0  0  0  0
   -3.5724    4.5375    0.0000 N   0  0  0  0  0  0  0  0  0  0  0  0
    2.1434    8.6625    0.0000 N   0  0  0  0  0  0  0  0  0  0  0  0
   -2.8579    3.3000    0.0000 N   0  0  0  0  0  0  0  0  0  0  0  0
    2.8579    9.9000    0.0000 N   0  0  0  0  0  0  0  0  0  0  0  0
   -3.5724    2.0625    0.0000 N   0  0  0  0  0  0  0  0  0  0  0  0
    3.5724    8.6625    0.0000 N   0  0  0  0  0  0  0  0  0  0  0  0
   -4.2868    3.3000    0.0000 N   0  0  0  0  0  0  0  0  0  0  0  0
    4.2868    9.9000    0.0000 N   0  0  0  0  0  0  0  0  0  0  0  0
   -5.0013    2.0625    0.0000 N   0  0  0  0  0  0  0  0  0  0  0  0
   -0.7145    7.8375    0.0000 O   0  0  0  0  0  0  0  0  0  0  0  0
   -0.4125    6.7105    0.0000 O   0  0  0  0  0  0  0  0  0  0  0  0
    0.4125    8.1395    0.0000 O   0  0  0  0  0  0  0  0  0  0  0  0
   -0.0000    4.1250    0.0000 O   0  0  0  0  0  0  0  0  0  0  0  0
   -0.3020    5.2520    0.0000 O   0  0  0  0  0  0  0  0  0  0  0  0
   -1.1270    3.8230    0.0000 O   0  0  0  0  0  0  0  0  0  0  0  0
    5.7158   10.7250    0.0000 O   0  0  0  0  0  0  0  0  0  0  0  0
   -6.4302    1.2375    0.0000 O   0  0  0  0  0  0  0  0  0  0  0  0
   -0.0000    7.4250    0.0000 S   0  0  0  0  0  0  0  0  0  0  0  0
   -0.7145    4.5375    0.0000 S   0  0  0  0  0  0  0  0  0  0  0  0
   -0.0000    4.9500    0.0000 H   0  0  0  0  0  0  0  0  0  0  0  0
   -0.7145    7.0125    0.0000 H   0  0  0  0  0  0  0  0  0  0  0  0
  3  1  2  0  0  0  0
  4  1  1  0  0  0  0
  5  2  2  0  0  0  0
  6  2  1  0  0  0  0
  7  3  1  0  0  0  0
  8  4  2  0  0  0  0
  9  5  1  0  0  0  0
 10  6  2  0  0  0  0
 12 11  2  0  0  0  0
 15 13  2  0  0  0  0
 16 14  2  0  0  0  0
 21 17  1  0  0  0  0
 22 18  1  0  0  0  0
 23 19  1  0  0  0  0
 24 20  1  0  0  0  0
 27 11  1  0  0  0  0
 27 13  1  0  0  0  0
 28 12  1  0  0  0  0
 28 14  1  0  0  0  0
 29  7  2  0  0  0  0
 29  8  1  0  0  0  0
 30  9  2  0  0  0  0
 30 10  1  0  0  0  0
 31 15  1  0  0  0  0
 31 25  2  0  0  0  0
 32 16  1  0  0  0  0
 32 26  2  0  0  0  0
 33 25  1  0  0  0  0
 33 27  2  0  0  0  0
 34 26  1  0  0  0  0
 34 28  2  0  0  0  0
 41 29  1  4  0  0  0
 41 35  2  0  0  0  0
 42 30  1  4  0  0  0
 42 36  2  0  0  0  0
 43 31  1  4  0  0  0
 43 37  2  0  0  0  0
 44 32  1  4  0  0  0
 44 38  2  0  0  0  0
 45 35  1  0  0  0  0
 45 37  1  0  0  0  0
 46 36  1  0  0  0  0
 46 38  1  0  0  0  0
 47 35  1  0  0  0  0
 47 39  2  0  0  0  0
 48 36  1  0  0  0  0
 48 40  2  0  0  0  0
 49 37  1  0  0  0  0
 49 39  1  0  0  0  0
 50 38  1  0  0  0  0
 50 40  1  0  0  0  0
 51 17  1  0  0  0  0
 51 18  1  0  0  0  0
 51 39  1  0  0  0  0
 52 19  1  0  0  0  0
 52 20  1  0  0  0  0
 52 40  1  0  0  0  0
 59 21  1  0  0  0  0
 59 22  1  0  0  0  0
 60 23  1  0  0  0  0
 60 24  1  0  0  0  0
 61 33  1  0  0  0  0
 61 53  1  0  0  0  0
 61 54  2  0  0  0  0
 61 55  2  0  0  0  0
 62 34  1  0  0  0  0
 62 56  1  0  0  0  0
 62 57  2  0  0  0  0
 62 58  2  0  0  0  0
 63 11  1  0  0  0  0
 64 12  1  0  0  0  0
M  END