673
  Mrv0541 07281413492D          

 14 15  0  0  0  0            999 V2000
    6.3931    2.1551    0.0000 C   0  0  0  0  0  0  0  0  0  0  0  0
    6.8056    2.8696    0.0000 C   0  0  0  0  0  0  0  0  0  0  0  0
    5.5681    2.1551    0.0000 C   0  0  0  0  0  0  0  0  0  0  0  0
    6.3931    3.5841    0.0000 C   0  0  0  0  0  0  0  0  0  0  0  0
    1.4045    3.8616    0.0000 C   0  0  0  0  0  0  0  0  0  0  0  0
    2.8334    3.8616    0.0000 C   0  0  0  0  0  0  0  0  0  0  0  0
    5.1556    2.8696    0.0000 C   0  0  0  0  0  0  0  0  0  0  0  0
    5.5681    3.5841    0.0000 C   0  0  0  0  0  0  0  0  0  0  0  0
    4.2624    3.8616    0.0000 C   0  0  0  0  0  0  0  0  0  0  0  0
    0.6900    3.4491    0.0000 N   0  0  0  0  0  0  0  0  0  0  0  0
    4.3486    3.0411    0.0000 N   0  0  0  0  0  0  0  0  0  0  0  0
    2.1190    4.2741    0.0000 S   0  0  0  0  0  0  0  0  0  0  0  0
    3.5479    4.2741    0.0000 S   0  0  0  0  0  0  0  0  0  0  0  0
    5.0161    4.1972    0.0000 S   0  0  0  0  0  0  0  0  0  0  0  0
  2  1  2  0  0  0  0
  3  1  1  0  0  0  0
  4  2  1  0  0  0  0
  7  3  2  0  0  0  0
  8  4  2  0  0  0  0
  8  7  1  0  0  0  0
 10  5  3  0  0  0  0
 11  7  1  0  0  0  0
 11  9  2  0  0  0  0
 12  5  1  0  0  0  0
 12  6  1  0  0  0  0
 13  6  1  0  0  0  0
 13  9  1  0  0  0  0
 14  8  1  0  0  0  0
 14  9  1  0  0  0  0
M  END