675
  Mrv0541 07281413492D          

 31 33  0  0  0  0            999 V2000
   -6.4302    6.1875    0.0000 C   0  0  0  0  0  0  0  0  0  0  0  0
   -5.0013    3.7125    0.0000 C   0  0  0  0  0  0  0  0  0  0  0  0
   -2.8579    9.9000    0.0000 C   0  0  0  0  0  0  0  0  0  0  0  0
   -2.8579   10.7250    0.0000 C   0  0  0  0  0  0  0  0  0  0  0  0
   -5.7158    5.7750    0.0000 C   0  0  0  0  0  0  0  0  0  0  0  0
   -5.0013    4.5375    0.0000 C   0  0  0  0  0  0  0  0  0  0  0  0
   -5.7158    7.4250    0.0000 C   0  0  0  0  0  0  0  0  0  0  0  0
   -3.5724    3.7125    0.0000 C   0  0  0  0  0  0  0  0  0  0  0  0
   -4.2868    9.9000    0.0000 C   0  0  0  0  0  0  0  0  0  0  0  0
   -6.4302    7.0125    0.0000 C   0  0  0  0  0  0  0  0  0  0  0  0
   -4.2868    3.3000    0.0000 C   0  0  0  0  0  0  0  0  0  0  0  0
   -3.5724    9.4875    0.0000 C   0  0  0  0  0  0  0  0  0  0  0  0
   -3.5724   11.1375    0.0000 C   0  0  0  0  0  0  0  0  0  0  0  0
   -4.2868   10.7250    0.0000 C   0  0  0  0  0  0  0  0  0  0  0  0
   -5.0013    7.0125    0.0000 C   0  0  0  0  0  0  0  0  0  0  0  0
   -5.0013    6.1875    0.0000 C   0  0  0  0  0  0  0  0  0  0  0  0
   -4.2868    4.9500    0.0000 C   0  0  0  0  0  0  0  0  0  0  0  0
   -3.5724    4.5375    0.0000 C   0  0  0  0  0  0  0  0  0  0  0  0
   -4.2868    8.2500    0.0000 C   0  0  0  0  0  0  0  0  0  0  0  0
   -7.1447    7.4250    0.0000 Cl  0  0  0  0  0  0  0  0  0  0  0  0
   -4.2868    2.4750    0.0000 Cl  0  0  0  0  0  0  0  0  0  0  0  0
   -3.5724   11.9625    0.0000 Cl  0  0  0  0  0  0  0  0  0  0  0  0
   -5.0013   11.1375    0.0000 Cl  0  0  0  0  0  0  0  0  0  0  0  0
   -3.5724    8.6625    0.0000 N   0  0  0  0  0  0  0  0  0  0  0  0
   -4.2868    7.4250    0.0000 N   0  0  0  0  0  0  0  0  0  0  0  0
   -5.0013    8.6625    0.0000 O   0  0  0  0  0  0  0  0  0  0  0  0
   -3.2704    5.6645    0.0000 O   0  0  0  0  0  0  0  0  0  0  0  0
   -2.4454    4.2355    0.0000 O   0  0  0  0  0  0  0  0  0  0  0  0
   -2.1434    5.3625    0.0000 O   0  0  0  0  0  0  0  0  0  0  0  0
   -4.2868    5.7750    0.0000 O   0  0  0  0  0  0  0  0  0  0  0  0
   -2.8579    4.9500    0.0000 S   0  0  0  0  0  0  0  0  0  0  0  0
  4  3  2  0  0  0  0
  5  1  2  0  0  0  0
  6  2  2  0  0  0  0
 10  1  1  0  0  0  0
 10  7  2  0  0  0  0
 11  2  1  0  0  0  0
 11  8  2  0  0  0  0
 12  3  1  0  0  0  0
 12  9  2  0  0  0  0
 13  4  1  0  0  0  0
 14  9  1  0  0  0  0
 14 13  2  0  0  0  0
 15  7  1  0  0  0  0
 16  5  1  0  0  0  0
 16 15  2  0  0  0  0
 17  6  1  0  0  0  0
 18  8  1  0  0  0  0
 18 17  2  0  0  0  0
 20 10  1  0  0  0  0
 21 11  1  0  0  0  0
 22 13  1  0  0  0  0
 23 14  1  0  0  0  0
 24 12  1  4  0  0  0
 24 19  2  0  0  0  0
 25 15  1  0  0  0  0
 25 19  1  0  0  0  0
 26 19  1  0  0  0  0
 30 16  1  0  0  0  0
 30 17  1  0  0  0  0
 31 18  1  0  0  0  0
 31 27  1  0  0  0  0
 31 28  2  0  0  0  0
 31 29  2  0  0  0  0
M  END