696
  Mrv0541 07281413492D          

 36 37  0  0  0  0            999 V2000
    7.5572    0.8763    0.0000 C   0  0  0  0  0  0  0  0  0  0  0  0
    6.3197   -4.1250    0.0000 C   0  0  0  0  0  0  0  0  0  0  0  0
   12.5072   -3.4105    0.0000 C   0  0  0  0  0  0  0  0  0  0  0  0
    8.3822    0.8763    0.0000 C   0  0  0  0  0  0  0  0  0  0  0  0
   10.8572   -1.9816    0.0000 C   0  0  0  0  0  0  0  0  0  0  0  0
   11.2697    3.0197    0.0000 C   0  0  0  0  0  0  0  0  0  0  0  0
   10.8572    2.3052    0.0000 C   0  0  0  0  0  0  0  0  0  0  0  0
   11.2697   -1.2671    0.0000 C   0  0  0  0  0  0  0  0  0  0  0  0
    8.7947   -2.6961    0.0000 C   0  0  0  0  0  0  0  0  0  0  0  0
   10.0322   -3.4105    0.0000 C   0  0  0  0  0  0  0  0  0  0  0  0
    8.3822   -3.4105    0.0000 C   0  0  0  0  0  0  0  0  0  0  0  0
   10.8572   -3.4105    0.0000 C   0  0  0  0  0  0  0  0  0  0  0  0
   12.5072    2.3052    0.0000 C   0  0  0  0  0  0  0  0  0  0  0  0
    9.6197   -1.2671    0.0000 C   0  0  0  0  0  0  0  0  0  0  0  0
    7.1447   -4.1250    0.0000 C   0  0  0  0  0  0  0  0  0  0  0  0
   12.0947   -4.1250    0.0000 C   0  0  0  0  0  0  0  0  0  0  0  0
   10.0322   -1.9816    0.0000 C   0  0  0  0  0  0  0  0  0  0  0  0
   12.0947    3.0197    0.0000 C   0  0  0  0  0  0  0  0  0  0  0  0
   12.0947    1.5908    0.0000 C   0  0  0  0  0  0  0  0  0  0  0  0
   11.2697    1.5908    0.0000 C   0  0  0  0  0  0  0  0  0  0  0  0
   10.8572   -0.5526    0.0000 C   0  0  0  0  0  0  0  0  0  0  0  0
   10.0322   -0.5526    0.0000 C   0  0  0  0  0  0  0  0  0  0  0  0
    8.7947    0.1618    0.0000 C   0  0  0  0  0  0  0  0  0  0  0  0
   12.5072    0.8763    0.0000 Cl  0  0  0  0  0  0  0  0  0  0  0  0
    9.6197    0.1618    0.0000 N   0  0  0  0  0  0  0  0  0  0  0  0
   10.8572    0.8763    0.0000 N   0  0  0  0  0  0  0  0  0  0  0  0
   11.2697    0.1618    0.0000 N   0  0  0  0  0  0  0  0  0  0  0  0
    9.6197   -2.6961    0.0000 N   0  0  0  0  0  0  0  0  0  0  0  0
   12.5072    3.7342    0.0000 N   0  0  0  0  0  0  0  0  0  0  0  0
    7.5572   -4.8395    0.0000 O   0  0  0  0  0  0  0  0  0  0  0  0
   12.5072   -4.8395    0.0000 O   0  0  0  0  0  0  0  0  0  0  0  0
    8.3822   -0.5526    0.0000 O   0  0  0  0  0  0  0  0  0  0  0  0
   12.0947    4.4487    0.0000 O   0  0  0  0  0  0  0  0  0  0  0  0
   13.3322    3.7342    0.0000 O   0  0  0  0  0  0  0  0  0  0  0  0
    7.5572   -3.4105    0.0000 O   0  0  0  0  0  0  0  0  0  0  0  0
   11.2697   -4.1250    0.0000 O   0  0  0  0  0  0  0  0  0  0  0  0
  4  1  1  0  0  0  0
  7  6  2  0  0  0  0
  8  5  2  0  0  0  0
 11  9  1  0  0  0  0
 12 10  1  0  0  0  0
 15  2  1  0  0  0  0
 16  3  1  0  0  0  0
 17  5  1  0  0  0  0
 17 14  2  0  0  0  0
 18  6  1  0  0  0  0
 18 13  2  0  0  0  0
 19 13  1  0  0  0  0
 20  7  1  0  0  0  0
 20 19  2  0  0  0  0
 21  8  1  0  0  0  0
 22 14  1  0  0  0  0
 22 21  2  0  0  0  0
 23  4  1  0  0  0  0
 24 19  1  0  0  0  0
 25 22  1  4  0  0  0
 25 23  2  0  0  0  0
 26 20  1  0  0  0  0
 27 21  1  0  0  0  0
 27 26  2  0  0  0  0
 28  9  1  0  0  0  0
 28 10  1  0  0  0  0
 28 17  1  0  0  0  0
 29 18  1  0  0  0  0
 30 15  2  0  0  0  0
 31 16  2  0  0  0  0
 32 23  1  0  0  0  0
 33 29  2  0  0  0  0
 34 29  2  0  0  0  0
 35 11  1  0  0  0  0
 35 15  1  0  0  0  0
 36 12  1  0  0  0  0
 36 16  1  0  0  0  0
M  END