698
  Mrv0541 07281413492D          

 28 29  0  0  0  0            999 V2000
    0.7145    7.0125    0.0000 C   0  0  0  0  0  0  0  0  0  0  0  0
    2.1434    7.0125    0.0000 C   0  0  0  0  0  0  0  0  0  0  0  0
    2.1434    3.7125    0.0000 C   0  0  0  0  0  0  0  0  0  0  0  0
    0.7145    3.7125    0.0000 C   0  0  0  0  0  0  0  0  0  0  0  0
    2.1434    4.5375    0.0000 C   0  0  0  0  0  0  0  0  0  0  0  0
    0.7145    4.5375    0.0000 C   0  0  0  0  0  0  0  0  0  0  0  0
    0.0000    7.4250    0.0000 C   0  0  0  0  0  0  0  0  0  0  0  0
    2.8579    7.4250    0.0000 C   0  0  0  0  0  0  0  0  0  0  0  0
    0.7145    6.1875    0.0000 C   0  0  0  0  0  0  0  0  0  0  0  0
    2.1434    6.1875    0.0000 C   0  0  0  0  0  0  0  0  0  0  0  0
    0.0000    0.0000    0.0000 C   0  0  0  0  0  0  0  0  0  0  0  0
    1.4289    0.0000    0.0000 C   0  0  0  0  0  0  0  0  0  0  0  0
    1.4289    3.3000    0.0000 C   0  0  0  0  0  0  0  0  0  0  0  0
    1.4289    4.9500    0.0000 C   0  0  0  0  0  0  0  0  0  0  0  0
    0.7145   -0.4125    0.0000 C   0  0  0  0  0  0  0  0  0  0  0  0
    0.0000    0.8250    0.0000 C   0  0  0  0  0  0  0  0  0  0  0  0
    1.4289    0.8250    0.0000 C   0  0  0  0  0  0  0  0  0  0  0  0
    0.7145    1.2375    0.0000 C   0  0  0  0  0  0  0  0  0  0  0  0
   -0.7145    1.2375    0.0000 Cl  0  0  0  0  0  0  0  0  0  0  0  0
    2.1434    1.2375    0.0000 Cl  0  0  0  0  0  0  0  0  0  0  0  0
   -0.7145    7.8375    0.0000 N   0  0  0  0  0  0  0  0  0  0  0  0
    3.5724    7.8375    0.0000 N   0  0  0  0  0  0  0  0  0  0  0  0
    1.4289    2.4750    0.0000 N   0  0  0  0  0  0  0  0  0  0  0  0
    0.7145    2.0625    0.0000 N   0  0  0  0  0  0  0  0  0  0  0  0
    1.4289    5.7750    0.0000 N   0  0  0  0  0  0  0  0  0  0  0  0
    0.7145   -1.2375    0.0000 N   0  0  0  0  0  0  0  0  0  0  0  0
    1.4289   -1.6500    0.0000 O   0  0  0  0  0  0  0  0  0  0  0  0
    0.0000   -1.6500    0.0000 O   0  0  0  0  0  0  0  0  0  0  0  0
  5  3  1  0  0  0  0
  6  4  2  0  0  0  0
  7  1  1  0  0  0  0
  8  2  1  0  0  0  0
  9  1  1  0  0  0  0
 10  2  1  0  0  0  0
 13  3  2  0  0  0  0
 13  4  1  0  0  0  0
 14  5  2  0  0  0  0
 14  6  1  0  0  0  0
 15 11  2  0  0  0  0
 15 12  1  0  0  0  0
 16 11  1  0  0  0  0
 17 12  2  0  0  0  0
 18 16  2  0  0  0  0
 18 17  1  0  0  0  0
 19 16  1  0  0  0  0
 20 17  1  0  0  0  0
 21  7  3  0  0  0  0
 22  8  3  0  0  0  0
 23 13  1  0  0  0  0
 24 18  1  0  0  0  0
 24 23  2  0  0  0  0
 25  9  1  0  0  0  0
 25 10  1  0  0  0  0
 25 14  1  0  0  0  0
 26 15  1  0  0  0  0
 27 26  2  0  0  0  0
 28 26  2  0  0  0  0
M  END