699
  Mrv0541 07281413492D          

 17 19  0  0  0  0            999 V2000
    3.7054   -0.2006    0.0000 C   0  0  0  0  0  0  0  0  0  0  0  0
    2.8985   -0.3721    0.0000 C   0  0  0  0  0  0  0  0  0  0  0  0
    3.4084    1.1971    0.0000 C   0  0  0  0  0  0  0  0  0  0  0  0
    0.4595    1.1971    0.0000 C   0  0  0  0  0  0  0  0  0  0  0  0
    3.9604    0.5840    0.0000 C   0  0  0  0  0  0  0  0  0  0  0  0
    2.3464    0.2410    0.0000 C   0  0  0  0  0  0  0  0  0  0  0  0
   -0.0925    0.5840    0.0000 C   0  0  0  0  0  0  0  0  0  0  0  0
    2.6014    1.0256    0.0000 C   0  0  0  0  0  0  0  0  0  0  0  0
    1.2665    1.0256    0.0000 C   0  0  0  0  0  0  0  0  0  0  0  0
    1.5214    0.2410    0.0000 C   0  0  0  0  0  0  0  0  0  0  0  0
    0.1624   -0.2006    0.0000 C   0  0  0  0  0  0  0  0  0  0  0  0
    0.9694   -0.3721    0.0000 C   0  0  0  0  0  0  0  0  0  0  0  0
    4.7674    0.7556    0.0000 Cl  0  0  0  0  0  0  0  0  0  0  0  0
   -0.8995    0.7556    0.0000 Cl  0  0  0  0  0  0  0  0  0  0  0  0
   -0.3896   -0.8137    0.0000 Cl  0  0  0  0  0  0  0  0  0  0  0  0
    1.2243   -1.1567    0.0000 Cl  0  0  0  0  0  0  0  0  0  0  0  0
    1.9339    1.5105    0.0000 O   0  0  0  0  0  0  0  0  0  0  0  0
  2  1  2  0  0  0  0
  5  1  1  0  0  0  0
  5  3  2  0  0  0  0
  6  2  1  0  0  0  0
  7  4  2  0  0  0  0
  8  3  1  0  0  0  0
  8  6  2  0  0  0  0
  9  4  1  0  0  0  0
 10  6  1  0  0  0  0
 10  9  2  0  0  0  0
 11  7  1  0  0  0  0
 12 10  1  0  0  0  0
 12 11  2  0  0  0  0
 13  5  1  0  0  0  0
 14  7  1  0  0  0  0
 15 11  1  0  0  0  0
 16 12  1  0  0  0  0
 17  8  1  0  0  0  0
 17  9  1  0  0  0  0
M  END