700
  Mrv0541 07281413492D          

 23 24  0  0  0  0            999 V2000
    0.6362    3.9216    0.0000 C   0  0  0  0  0  0  0  0  0  0  0  0
   -7.3442    1.4163    0.0000 C   0  0  0  0  0  0  0  0  0  0  0  0
   -7.2831    2.5815    0.0000 C   0  0  0  0  0  0  0  0  0  0  0  0
   -6.1791    1.3553    0.0000 C   0  0  0  0  0  0  0  0  0  0  0  0
   -2.3264    2.7666    0.0000 C   0  0  0  0  0  0  0  0  0  0  0  0
    0.0231    4.4736    0.0000 C   0  0  0  0  0  0  0  0  0  0  0  0
   -5.6764    3.8794    0.0000 C   0  0  0  0  0  0  0  0  0  0  0  0
   -4.7203    2.8175    0.0000 C   0  0  0  0  0  0  0  0  0  0  0  0
   -6.2895    3.3274    0.0000 C   0  0  0  0  0  0  0  0  0  0  0  0
   -5.3334    2.2655    0.0000 C   0  0  0  0  0  0  0  0  0  0  0  0
   -4.2787    4.1765    0.0000 C   0  0  0  0  0  0  0  0  0  0  0  0
   -4.8918    3.6245    0.0000 C   0  0  0  0  0  0  0  0  0  0  0  0
   -6.1180    2.5204    0.0000 C   0  0  0  0  0  0  0  0  0  0  0  0
   -0.7615    4.2187    0.0000 C   0  0  0  0  0  0  0  0  0  0  0  0
   -1.4289    4.7036    0.0000 C   0  0  0  0  0  0  0  0  0  0  0  0
   -2.0964    4.2187    0.0000 C   0  0  0  0  0  0  0  0  0  0  0  0
   -2.8810    4.4736    0.0000 C   0  0  0  0  0  0  0  0  0  0  0  0
   -6.7311    1.9684    0.0000 C   0  0  0  0  0  0  0  0  0  0  0  0
   -1.4289    5.5286    0.0000 Cl  0  0  0  0  0  0  0  0  0  0  0  0
   -3.4941    3.9216    0.0000 N   0  0  0  0  0  0  0  0  0  0  0  0
   -1.0164    3.4340    0.0000 N   0  0  0  0  0  0  0  0  0  0  0  0
   -1.8414    3.4340    0.0000 N   0  0  0  0  0  0  0  0  0  0  0  0
   -3.0525    5.2806    0.0000 O   0  0  0  0  0  0  0  0  0  0  0  0
  6  1  1  0  0  0  0
  9  7  1  0  0  0  0
 10  8  2  0  0  0  0
 12  7  2  0  0  0  0
 12  8  1  0  0  0  0
 12 11  1  0  0  0  0
 13  9  2  0  0  0  0
 13 10  1  0  0  0  0
 14  6  1  0  0  0  0
 15 14  1  0  0  0  0
 16 15  2  0  0  0  0
 17 16  1  0  0  0  0
 18  2  1  0  0  0  0
 18  3  1  0  0  0  0
 18  4  1  0  0  0  0
 18 13  1  0  0  0  0
 19 15  1  0  0  0  0
 20 11  1  0  0  0  0
 20 17  1  0  0  0  0
 21 14  2  0  0  0  0
 22  5  1  0  0  0  0
 22 16  1  0  0  0  0
 22 21  1  0  0  0  0
 23 17  2  0  0  0  0
M  END