704
  Mrv0541 07281413492D          

 13 12  0  0  0  0            999 V2000
    2.4454    1.9816    0.0000 C   0  0  0  0  0  0  0  0  0  0  0  0
   -0.4125   -2.9684    0.0000 C   0  0  0  0  0  0  0  0  0  0  0  0
    2.4454   -2.9684    0.0000 C   0  0  0  0  0  0  0  0  0  0  0  0
    1.7309    1.5691    0.0000 C   0  0  0  0  0  0  0  0  0  0  0  0
   -0.4125   -2.1434    0.0000 C   0  0  0  0  0  0  0  0  0  0  0  0
    2.4454   -2.1434    0.0000 C   0  0  0  0  0  0  0  0  0  0  0  0
    1.7309    0.7441    0.0000 C   0  0  0  0  0  0  0  0  0  0  0  0
    0.3020   -1.7309    0.0000 C   0  0  0  0  0  0  0  0  0  0  0  0
    1.7309   -1.7309    0.0000 C   0  0  0  0  0  0  0  0  0  0  0  0
    1.0164    0.3316    0.0000 C   0  0  0  0  0  0  0  0  0  0  0  0
    0.3020   -0.9059    0.0000 C   0  0  0  0  0  0  0  0  0  0  0  0
    1.7309   -0.9059    0.0000 C   0  0  0  0  0  0  0  0  0  0  0  0
    1.0164   -0.4934    0.0000 N   0  0  0  0  0  0  0  0  0  0  0  0
  4  1  1  0  0  0  0
  5  2  1  0  0  0  0
  6  3  1  0  0  0  0
  7  4  1  0  0  0  0
  8  5  1  0  0  0  0
  9  6  1  0  0  0  0
 10  7  1  0  0  0  0
 11  8  1  0  0  0  0
 12  9  1  0  0  0  0
 13 10  1  0  0  0  0
 13 11  1  0  0  0  0
 13 12  1  0  0  0  0
M  END