706
  Mrv0541 07281413492D          

 16 15  0  0  0  0            999 V2000
   -7.3145   -3.8743    0.0000 C   0  0  0  0  0  0  0  0  0  0  0  0
   -6.6000   -4.2868    0.0000 C   0  0  0  0  0  0  0  0  0  0  0  0
   -5.8855   -3.8743    0.0000 C   0  0  0  0  0  0  0  0  0  0  0  0
   -5.1711   -4.2868    0.0000 C   0  0  0  0  0  0  0  0  0  0  0  0
   -4.4566   -3.8743    0.0000 C   0  0  0  0  0  0  0  0  0  0  0  0
   -3.7421   -4.2868    0.0000 C   0  0  0  0  0  0  0  0  0  0  0  0
   -3.0276   -3.8743    0.0000 C   0  0  0  0  0  0  0  0  0  0  0  0
   -2.3132   -4.2868    0.0000 C   0  0  0  0  0  0  0  0  0  0  0  0
   -1.5987   -3.8743    0.0000 C   0  0  0  0  0  0  0  0  0  0  0  0
   -0.8842   -4.2868    0.0000 C   0  0  0  0  0  0  0  0  0  0  0  0
   -0.1698   -3.8743    0.0000 C   0  0  0  0  0  0  0  0  0  0  0  0
    0.5447   -4.2868    0.0000 C   0  0  0  0  0  0  0  0  0  0  0  0
    1.9737   -4.2868    0.0000 C   0  0  0  0  0  0  0  0  0  0  0  0
    2.6881   -3.8743    0.0000 N   0  0  0  0  0  0  0  0  0  0  0  0
    1.9737   -5.1118    0.0000 N   0  0  0  0  0  0  0  0  0  0  0  0
    1.2592   -3.8743    0.0000 N   0  0  0  0  0  0  0  0  0  0  0  0
  2  1  1  0  0  0  0
  3  2  1  0  0  0  0
  4  3  1  0  0  0  0
  5  4  1  0  0  0  0
  6  5  1  0  0  0  0
  7  6  1  0  0  0  0
  8  7  1  0  0  0  0
  9  8  1  0  0  0  0
 10  9  1  0  0  0  0
 11 10  1  0  0  0  0
 12 11  1  0  0  0  0
 14 13  2  0  0  0  0
 15 13  1  0  0  0  0
 16 12  1  0  0  0  0
 16 13  1  0  0  0  0
M  END