710
  Mrv0541 07281413492D          

 25 27  0  0  0  0            999 V2000
    0.1050    5.9587    0.0000 C   0  0  0  0  0  0  0  0  0  0  0  0
    0.8195    7.1962    0.0000 C   0  0  0  0  0  0  0  0  0  0  0  0
    2.0289    7.6160    0.0000 C   0  0  0  0  0  0  0  0  0  0  0  0
    3.2929    7.6160    0.0000 C   0  0  0  0  0  0  0  0  0  0  0  0
    4.3931   -0.3018    0.0000 C   0  0  0  0  0  0  0  0  0  0  0  0
    5.2136   -0.2155    0.0000 C   0  0  0  0  0  0  0  0  0  0  0  0
    3.9082    0.3657    0.0000 C   0  0  0  0  0  0  0  0  0  0  0  0
    5.5491    0.5382    0.0000 C   0  0  0  0  0  0  0  0  0  0  0  0
    4.2437    1.1194    0.0000 C   0  0  0  0  0  0  0  0  0  0  0  0
    1.5339    5.9587    0.0000 C   0  0  0  0  0  0  0  0  0  0  0  0
    5.3998    1.9593    0.0000 C   0  0  0  0  0  0  0  0  0  0  0  0
    5.1698    3.4113    0.0000 C   0  0  0  0  0  0  0  0  0  0  0  0
    3.8349    3.4113    0.0000 C   0  0  0  0  0  0  0  0  0  0  0  0
    4.5024    4.7212    0.0000 C   0  0  0  0  0  0  0  0  0  0  0  0
    0.8195    6.3712    0.0000 C   0  0  0  0  0  0  0  0  0  0  0  0
    5.0642    1.2056    0.0000 C   0  0  0  0  0  0  0  0  0  0  0  0
    4.5024    3.8962    0.0000 C   0  0  0  0  0  0  0  0  0  0  0  0
    4.9149    2.6267    0.0000 C   0  0  0  0  0  0  0  0  0  0  0  0
    2.2484    6.3712    0.0000 C   0  0  0  0  0  0  0  0  0  0  0  0
    3.0734    6.3712    0.0000 C   0  0  0  0  0  0  0  0  0  0  0  0
    3.7879    5.9587    0.0000 C   0  0  0  0  0  0  0  0  0  0  0  0
    2.6609    7.0857    0.0000 C   0  0  0  0  0  0  0  0  0  0  0  0
    4.5024    6.3712    0.0000 O   0  0  0  0  0  0  0  0  0  0  0  0
    4.0899    2.6267    0.0000 O   0  0  0  0  0  0  0  0  0  0  0  0
    3.7879    5.1337    0.0000 O   0  0  0  0  0  0  0  0  0  0  0  0
  6  5  2  0  0  0  0
  7  5  1  0  0  0  0
  8  6  1  0  0  0  0
  9  7  2  0  0  0  0
 15  1  1  0  0  0  0
 15  2  1  0  0  0  0
 15 10  2  0  0  0  0
 16  8  2  0  0  0  0
 16  9  1  0  0  0  0
 16 11  1  0  0  0  0
 17 12  1  0  0  0  0
 17 13  2  0  0  0  0
 17 14  1  0  0  0  0
 18 11  1  0  0  0  0
 18 12  2  0  0  0  0
 19 10  1  0  0  0  0
 20 19  1  0  0  0  0
 21 20  1  0  0  0  0
 22  3  1  0  0  0  0
 22  4  1  0  0  0  0
 22 19  1  0  0  0  0
 22 20  1  0  0  0  0
 23 21  2  0  0  0  0
 24 13  1  0  0  0  0
 24 18  1  0  0  0  0
 25 14  1  0  0  0  0
 25 21  1  0  0  0  0
M  END