712
  Mrv0541 07281413492D          

 21 22  0  0  0  0            999 V2000
    0.9228    5.4307    0.0000 C   0  0  0  0  0  0  0  0  0  0  0  0
   -0.5061    6.2557    0.0000 C   0  0  0  0  0  0  0  0  0  0  0  0
    0.6209    6.5577    0.0000 C   0  0  0  0  0  0  0  0  0  0  0  0
   -2.6791    3.6998    0.0000 C   0  0  0  0  0  0  0  0  0  0  0  0
   -1.4416    2.9853    0.0000 C   0  0  0  0  0  0  0  0  0  0  0  0
   -3.0916    2.9853    0.0000 C   0  0  0  0  0  0  0  0  0  0  0  0
   -1.8541    2.2709    0.0000 C   0  0  0  0  0  0  0  0  0  0  0  0
   -1.4416    4.4143    0.0000 C   0  0  0  0  0  0  0  0  0  0  0  0
   -0.6166    4.4143    0.0000 C   0  0  0  0  0  0  0  0  0  0  0  0
    0.5103    4.7163    0.0000 C   0  0  0  0  0  0  0  0  0  0  0  0
    0.0978    2.6217    0.0000 C   0  0  0  0  0  0  0  0  0  0  0  0
    1.1778    3.4063    0.0000 C   0  0  0  0  0  0  0  0  0  0  0  0
   -1.8541    3.6998    0.0000 C   0  0  0  0  0  0  0  0  0  0  0  0
   -2.6791    2.2709    0.0000 C   0  0  0  0  0  0  0  0  0  0  0  0
    0.2084    5.8432    0.0000 C   0  0  0  0  0  0  0  0  0  0  0  0
   -0.2041    5.1288    0.0000 C   0  0  0  0  0  0  0  0  0  0  0  0
   -3.0916    1.5564    0.0000 Cl  0  0  0  0  0  0  0  0  0  0  0  0
    0.9228    2.6217    0.0000 N   0  0  0  0  0  0  0  0  0  0  0  0
   -0.1571    3.4063    0.0000 N   0  0  0  0  0  0  0  0  0  0  0  0
    0.5103    3.8913    0.0000 N   0  0  0  0  0  0  0  0  0  0  0  0
   -0.9186    5.5413    0.0000 O   0  0  0  0  0  0  0  0  0  0  0  0
  6  4  1  0  0  0  0
  7  5  2  0  0  0  0
  9  8  1  0  0  0  0
 13  4  2  0  0  0  0
 13  5  1  0  0  0  0
 13  8  1  0  0  0  0
 14  6  2  0  0  0  0
 14  7  1  0  0  0  0
 15  1  1  0  0  0  0
 15  2  1  0  0  0  0
 15  3  1  0  0  0  0
 16  9  1  0  0  0  0
 16 10  1  0  0  0  0
 16 15  1  0  0  0  0
 17 14  1  0  0  0  0
 18 11  1  0  0  0  0
 18 12  2  0  0  0  0
 19 11  2  0  0  0  0
 20 10  1  0  0  0  0
 20 12  1  0  0  0  0
 20 19  1  0  0  0  0
 21 16  1  0  0  0  0
M  END