713
  Mrv0541 07281413492D          

 31 33  0  0  0  0            999 V2000
    4.2868   -4.9500    0.0000 C   0  0  0  0  0  0  0  0  0  0  0  0
    5.7158   -4.9500    0.0000 C   0  0  0  0  0  0  0  0  0  0  0  0
    9.2881   -5.3625    0.0000 C   0  0  0  0  0  0  0  0  0  0  0  0
   15.0039   -7.8375    0.0000 C   0  0  0  0  0  0  0  0  0  0  0  0
   11.4315   -6.6000    0.0000 C   0  0  0  0  0  0  0  0  0  0  0  0
   10.7171   -5.3625    0.0000 C   0  0  0  0  0  0  0  0  0  0  0  0
   12.1460   -6.1875    0.0000 C   0  0  0  0  0  0  0  0  0  0  0  0
   11.4315   -4.9500    0.0000 C   0  0  0  0  0  0  0  0  0  0  0  0
   14.2894   -7.4250    0.0000 C   0  0  0  0  0  0  0  0  0  0  0  0
    7.1447   -6.6000    0.0000 C   0  0  0  0  0  0  0  0  0  0  0  0
    6.4302   -6.1875    0.0000 C   0  0  0  0  0  0  0  0  0  0  0  0
   15.7184   -6.6000    0.0000 C   0  0  0  0  0  0  0  0  0  0  0  0
   14.2894   -4.9500    0.0000 C   0  0  0  0  0  0  0  0  0  0  0  0
    5.0013   -5.3625    0.0000 C   0  0  0  0  0  0  0  0  0  0  0  0
    9.2881   -6.1875    0.0000 C   0  0  0  0  0  0  0  0  0  0  0  0
   15.7184   -7.4250    0.0000 C   0  0  0  0  0  0  0  0  0  0  0  0
   10.7171   -6.1875    0.0000 C   0  0  0  0  0  0  0  0  0  0  0  0
   12.1460   -5.3625    0.0000 C   0  0  0  0  0  0  0  0  0  0  0  0
   14.2894   -6.6000    0.0000 C   0  0  0  0  0  0  0  0  0  0  0  0
   15.0039   -6.1875    0.0000 C   0  0  0  0  0  0  0  0  0  0  0  0
   13.5749   -5.3625    0.0000 C   0  0  0  0  0  0  0  0  0  0  0  0
    8.5737   -6.6000    0.0000 C   0  0  0  0  0  0  0  0  0  0  0  0
   16.4328   -7.8375    0.0000 Cl  0  0  0  0  0  0  0  0  0  0  0  0
   15.0039   -5.3625    0.0000 N   0  0  0  0  0  0  0  0  0  0  0  0
   13.5749   -6.1875    0.0000 N   0  0  0  0  0  0  0  0  0  0  0  0
    5.0013   -6.1875    0.0000 N   0  0  0  0  0  0  0  0  0  0  0  0
    8.5737   -7.4250    0.0000 O   0  0  0  0  0  0  0  0  0  0  0  0
    7.8592   -6.1875    0.0000 O   0  0  0  0  0  0  0  0  0  0  0  0
    5.7158   -6.6000    0.0000 O   0  0  0  0  0  0  0  0  0  0  0  0
   10.0026   -6.6000    0.0000 O   0  0  0  0  0  0  0  0  0  0  0  0
   12.8605   -4.9500    0.0000 O   0  0  0  0  0  0  0  0  0  0  0  0
  7  5  1  0  0  0  0
  8  6  2  0  0  0  0
  9  4  2  0  0  0  0
 11 10  1  0  0  0  0
 14  1  1  0  0  0  0
 14  2  1  0  0  0  0
 15  3  1  0  0  0  0
 16  4  1  0  0  0  0
 16 12  2  0  0  0  0
 17  5  2  0  0  0  0
 17  6  1  0  0  0  0
 18  7  2  0  0  0  0
 18  8  1  0  0  0  0
 19  9  1  0  0  0  0
 20 12  1  0  0  0  0
 20 19  2  0  0  0  0
 21 13  1  0  0  0  0
 22 15  1  0  0  0  0
 23 16  1  0  0  0  0
 24 13  2  0  0  0  0
 24 20  1  0  0  0  0
 25 19  1  0  0  0  0
 25 21  2  0  0  0  0
 26 14  2  0  0  0  0
 27 22  2  0  0  0  0
 28 10  1  0  0  0  0
 28 22  1  0  0  0  0
 29 11  1  0  0  0  0
 29 26  1  0  0  0  0
 30 15  1  0  0  0  0
 30 17  1  0  0  0  0
 31 18  1  0  0  0  0
 31 21  1  0  0  0  0
M  END