718
  Mrv0541 07281413492D          

 21 22  0  0  0  0            999 V2000
   -1.0547    0.4732    0.0000 C   0  0  0  0  0  0  0  0  0  0  0  0
    1.7044   -3.4197    0.0000 C   0  0  0  0  0  0  0  0  0  0  0  0
    0.5484   -2.5798    0.0000 C   0  0  0  0  0  0  0  0  0  0  0  0
   -0.0986   -0.5887    0.0000 C   0  0  0  0  0  0  0  0  0  0  0  0
    0.3430    0.7703    0.0000 C   0  0  0  0  0  0  0  0  0  0  0  0
    0.6860   -0.8436    0.0000 C   0  0  0  0  0  0  0  0  0  0  0  0
    1.1276    0.5154    0.0000 C   0  0  0  0  0  0  0  0  0  0  0  0
    3.6486   -1.9986    0.0000 C   0  0  0  0  0  0  0  0  0  0  0  0
   -0.2701    0.2183    0.0000 C   0  0  0  0  0  0  0  0  0  0  0  0
    1.2991   -0.2916    0.0000 C   0  0  0  0  0  0  0  0  0  0  0  0
    3.1637   -1.3312    0.0000 C   0  0  0  0  0  0  0  0  0  0  0  0
    2.0837   -0.5465    0.0000 C   0  0  0  0  0  0  0  0  0  0  0  0
    2.7512   -0.0616    0.0000 C   0  0  0  0  0  0  0  0  0  0  0  0
    2.7512    0.7634    0.0000 Cl  0  0  0  0  0  0  0  0  0  0  0  0
    4.1335   -2.6660    0.0000 N   0  0  0  0  0  0  0  0  0  0  0  0
    3.4186   -0.5465    0.0000 N   0  0  0  0  0  0  0  0  0  0  0  0
    1.3688   -2.6660    0.0000 N   0  0  0  0  0  0  0  0  0  0  0  0
    2.3387   -1.3312    0.0000 N   0  0  0  0  0  0  0  0  0  0  0  0
    1.1863   -1.5137    0.0000 O   0  0  0  0  0  0  0  0  0  0  0  0
    2.5212   -2.4835    0.0000 O   0  0  0  0  0  0  0  0  0  0  0  0
    1.8538   -1.9986    0.0000 S   0  0  0  0  0  0  0  0  0  0  0  0
  6  4  1  0  0  0  0
  7  5  2  0  0  0  0
  9  1  1  0  0  0  0
  9  4  2  0  0  0  0
  9  5  1  0  0  0  0
 10  6  2  0  0  0  0
 10  7  1  0  0  0  0
 11  8  1  0  0  0  0
 12 10  1  0  0  0  0
 13 12  2  0  0  0  0
 14 13  1  0  0  0  0
 15  8  3  0  0  0  0
 16 11  2  0  0  0  0
 16 13  1  0  0  0  0
 17  2  1  0  0  0  0
 17  3  1  0  0  0  0
 18 11  1  0  0  0  0
 18 12  1  0  0  0  0
 21 17  1  0  0  0  0
 21 18  1  0  0  0  0
 21 19  2  0  0  0  0
 21 20  2  0  0  0  0
M  END