721
  Mrv0541 07281413492D          

 27 28  0  0  1  0            999 V2000
   -3.5724    5.3625    0.0000 C   0  0  0  0  0  0  0  0  0  0  0  0
    0.7145    6.1875    0.0000 C   0  0  0  0  0  0  0  0  0  0  0  0
   -2.8579    4.9500    0.0000 C   0  0  0  0  0  0  0  0  0  0  0  0
   -2.1434    5.3625    0.0000 C   0  0  0  0  0  0  0  0  0  0  0  0
    6.4302    6.1875    0.0000 C   0  0  0  0  0  0  0  0  0  0  0  0
    2.8579    4.9500    0.0000 C   0  0  0  0  0  0  0  0  0  0  0  0
    2.1434    6.1875    0.0000 C   0  0  0  0  0  0  0  0  0  0  0  0
    3.5724    5.3625    0.0000 C   0  0  0  0  0  0  0  0  0  0  0  0
    2.8579    6.6000    0.0000 C   0  0  0  0  0  0  0  0  0  0  0  0
    5.7158    6.6000    0.0000 C   0  0  0  0  0  0  0  0  0  0  0  0
   -1.4289    4.9500    0.0000 C   0  0  0  0  0  0  0  0  0  0  0  0
    5.7158    4.9500    0.0000 C   0  0  0  0  0  0  0  0  0  0  0  0
    7.1447    4.9500    0.0000 C   0  0  0  0  0  0  0  0  0  0  0  0
    0.7145    5.3625    0.0000 C   0  0  2  0  0  0  0  0  0  0  0  0
    6.4302    5.3625    0.0000 C   0  0  0  0  0  0  0  0  0  0  0  0
    2.1434    5.3625    0.0000 C   0  0  0  0  0  0  0  0  0  0  0  0
    3.5724    6.1875    0.0000 C   0  0  0  0  0  0  0  0  0  0  0  0
    5.0013    5.3625    0.0000 C   0  0  0  0  0  0  0  0  0  0  0  0
    5.0013    6.1875    0.0000 C   0  0  0  0  0  0  0  0  0  0  0  0
    0.0000    4.9500    0.0000 C   0  0  0  0  0  0  0  0  0  0  0  0
    4.2868    4.9500    0.0000 F   0  0  0  0  0  0  0  0  0  0  0  0
    7.8592    4.5375    0.0000 N   0  0  0  0  0  0  0  0  0  0  0  0
    0.0000    4.1250    0.0000 O   0  0  0  0  0  0  0  0  0  0  0  0
   -0.7145    5.3625    0.0000 O   0  0  0  0  0  0  0  0  0  0  0  0
    1.4289    4.9500    0.0000 O   0  0  0  0  0  0  0  0  0  0  0  0
    4.2868    6.6000    0.0000 O   0  0  0  0  0  0  0  0  0  0  0  0
    0.0000    5.7750    0.0000 H   0  0  0  0  0  0  0  0  0  0  0  0
  3  1  1  0  0  0  0
  4  3  1  0  0  0  0
  8  6  1  0  0  0  0
  9  7  2  0  0  0  0
 10  5  2  0  0  0  0
 11  4  1  0  0  0  0
 14  2  1  1  0  0  0
 15  5  1  0  0  0  0
 15 12  2  0  0  0  0
 15 13  1  0  0  0  0
 16  6  2  0  0  0  0
 16  7  1  0  0  0  0
 17  8  2  0  0  0  0
 17  9  1  0  0  0  0
 18 12  1  0  0  0  0
 19 10  1  0  0  0  0
 19 18  2  0  0  0  0
 20 14  1  0  0  0  0
 21 18  1  0  0  0  0
 22 13  3  0  0  0  0
 23 20  2  0  0  0  0
 24 11  1  0  0  0  0
 24 20  1  0  0  0  0
 25 14  1  0  0  0  0
 25 16  1  0  0  0  0
 26 17  1  0  0  0  0
 26 19  1  0  0  0  0
 14 27  1  6  0  0  0
M  END