723
  Mrv0541 07281413492D          

 26 27  0  0  0  0            999 V2000
    1.4289   -4.1250    0.0000 C   0  0  0  0  0  0  0  0  0  0  0  0
    9.0879   -1.9668    0.0000 C   0  0  0  0  0  0  0  0  0  0  0  0
    2.1434   -3.7125    0.0000 C   0  0  0  0  0  0  0  0  0  0  0  0
    5.0013   -3.7125    0.0000 C   0  0  0  0  0  0  0  0  0  0  0  0
    6.4302   -3.7125    0.0000 C   0  0  0  0  0  0  0  0  0  0  0  0
    6.4302   -5.3625    0.0000 C   0  0  0  0  0  0  0  0  0  0  0  0
    8.7524   -2.7205    0.0000 C   0  0  0  0  0  0  0  0  0  0  0  0
    5.7158   -4.1250    0.0000 C   0  0  0  0  0  0  0  0  0  0  0  0
    5.7158   -4.9500    0.0000 C   0  0  0  0  0  0  0  0  0  0  0  0
    4.2868   -4.1250    0.0000 C   0  0  0  0  0  0  0  0  0  0  0  0
    7.1447   -4.9500    0.0000 C   0  0  0  0  0  0  0  0  0  0  0  0
    7.1447   -4.1250    0.0000 C   0  0  0  0  0  0  0  0  0  0  0  0
    3.5724   -3.7125    0.0000 C   0  0  0  0  0  0  0  0  0  0  0  0
    9.9854   -3.5212    0.0000 C   0  0  0  0  0  0  0  0  0  0  0  0
    8.6129   -4.0481    0.0000 C   0  0  0  0  0  0  0  0  0  0  0  0
    5.0013   -5.3625    0.0000 Cl  0  0  0  0  0  0  0  0  0  0  0  0
    4.2868   -4.9500    0.0000 Cl  0  0  0  0  0  0  0  0  0  0  0  0
    7.8592   -5.3625    0.0000 F   0  0  0  0  0  0  0  0  0  0  0  0
   10.4703   -2.8538    0.0000 F   0  0  0  0  0  0  0  0  0  0  0  0
   10.3209   -4.2749    0.0000 F   0  0  0  0  0  0  0  0  0  0  0  0
    7.9454   -2.8920    0.0000 N   0  0  0  0  0  0  0  0  0  0  0  0
    9.1649   -3.4350    0.0000 N   0  0  0  0  0  0  0  0  0  0  0  0
    7.8592   -3.7125    0.0000 N   0  0  0  0  0  0  0  0  0  0  0  0
    3.5724   -2.8875    0.0000 O   0  0  0  0  0  0  0  0  0  0  0  0
    8.7844   -4.8550    0.0000 O   0  0  0  0  0  0  0  0  0  0  0  0
    2.8579   -4.1250    0.0000 O   0  0  0  0  0  0  0  0  0  0  0  0
  3  1  1  0  0  0  0
  7  2  1  0  0  0  0
  8  4  1  0  0  0  0
  8  5  2  0  0  0  0
  9  6  2  0  0  0  0
  9  8  1  0  0  0  0
 10  4  1  0  0  0  0
 11  6  1  0  0  0  0
 12  5  1  0  0  0  0
 12 11  2  0  0  0  0
 13 10  1  0  0  0  0
 16  9  1  0  0  0  0
 17 10  1  0  0  0  0
 18 11  1  0  0  0  0
 19 14  1  0  0  0  0
 20 14  1  0  0  0  0
 21  7  2  0  0  0  0
 22  7  1  0  0  0  0
 22 14  1  0  0  0  0
 22 15  1  0  0  0  0
 23 12  1  0  0  0  0
 23 15  1  0  0  0  0
 23 21  1  0  0  0  0
 24 13  2  0  0  0  0
 25 15  2  0  0  0  0
 26  3  1  0  0  0  0
 26 13  1  0  0  0  0
M  END