730
  Mrv0541 07281413492D          

 17 18  0  0  0  0            999 V2000
   -0.6078    2.0009    0.0000 C   0  0  0  0  0  0  0  0  0  0  0  0
    0.1067    2.4134    0.0000 C   0  0  0  0  0  0  0  0  0  0  0  0
   -1.6242   -0.0937    0.0000 C   0  0  0  0  0  0  0  0  0  0  0  0
   -1.3693    0.6910    0.0000 C   0  0  0  0  0  0  0  0  0  0  0  0
   -1.3222    3.2384    0.0000 C   0  0  0  0  0  0  0  0  0  0  0  0
   -2.0367    2.0009    0.0000 C   0  0  0  0  0  0  0  0  0  0  0  0
   -1.3222    2.4134    0.0000 C   0  0  0  0  0  0  0  0  0  0  0  0
    0.1067    3.2384    0.0000 C   0  0  0  0  0  0  0  0  0  0  0  0
   -2.7041    0.6910    0.0000 C   0  0  0  0  0  0  0  0  0  0  0  0
    0.8212    3.6509    0.0000 Cl  0  0  0  0  0  0  0  0  0  0  0  0
   -2.4492   -0.0937    0.0000 N   0  0  0  0  0  0  0  0  0  0  0  0
   -0.6078    3.6509    0.0000 N   0  0  0  0  0  0  0  0  0  0  0  0
   -3.4888    0.9459    0.0000 N   0  0  0  0  0  0  0  0  0  0  0  0
   -2.0367    1.1759    0.0000 N   0  0  0  0  0  0  0  0  0  0  0  0
   -3.6603    1.7529    0.0000 N   0  0  0  0  0  0  0  0  0  0  0  0
   -4.4449    2.0078    0.0000 O   0  0  0  0  0  0  0  0  0  0  0  0
   -3.0472    2.3049    0.0000 O   0  0  0  0  0  0  0  0  0  0  0  0
  2  1  2  0  0  0  0
  4  3  1  0  0  0  0
  7  1  1  0  0  0  0
  7  5  2  0  0  0  0
  7  6  1  0  0  0  0
  8  2  1  0  0  0  0
 10  8  1  0  0  0  0
 11  3  1  0  0  0  0
 11  9  2  0  0  0  0
 12  5  1  0  0  0  0
 12  8  2  0  0  0  0
 13  9  1  0  0  0  0
 14  4  1  0  0  0  0
 14  6  1  0  0  0  0
 14  9  1  0  0  0  0
 15 13  1  0  0  0  0
 16 15  2  0  0  0  0
 17 15  2  0  0  0  0
M  END