734
  Mrv0541 07281413492D          

 27 29  0  0  0  0            999 V2000
   -5.1212   -1.3349    0.0000 C   0  0  0  0  0  0  0  0  0  0  0  0
   -4.2962   -1.3349    0.0000 C   0  0  0  0  0  0  0  0  0  0  0  0
    3.3523    1.1104    0.0000 C   0  0  0  0  0  0  0  0  0  0  0  0
    3.3523    1.9354    0.0000 C   0  0  0  0  0  0  0  0  0  0  0  0
    2.6378    0.6979    0.0000 C   0  0  0  0  0  0  0  0  0  0  0  0
    2.6378    2.3479    0.0000 C   0  0  0  0  0  0  0  0  0  0  0  0
   -0.5837    2.2374    0.0000 C   0  0  0  0  0  0  0  0  0  0  0  0
   -1.4087    2.2374    0.0000 C   0  0  0  0  0  0  0  0  0  0  0  0
   -0.5837    0.8085    0.0000 C   0  0  0  0  0  0  0  0  0  0  0  0
   -1.8212    0.0940    0.0000 C   0  0  0  0  0  0  0  0  0  0  0  0
   -1.4087    0.8085    0.0000 C   0  0  0  0  0  0  0  0  0  0  0  0
   -0.1712    1.5229    0.0000 C   0  0  0  0  0  0  0  0  0  0  0  0
    1.9233    1.1104    0.0000 C   0  0  0  0  0  0  0  0  0  0  0  0
    1.9233    1.9354    0.0000 C   0  0  0  0  0  0  0  0  0  0  0  0
   -1.8212    1.5229    0.0000 C   0  0  0  0  0  0  0  0  0  0  0  0
   -2.6462    0.0940    0.0000 C   0  0  0  0  0  0  0  0  0  0  0  0
    1.1387    0.8555    0.0000 C   0  0  0  0  0  0  0  0  0  0  0  0
    1.1387    2.1904    0.0000 C   0  0  0  0  0  0  0  0  0  0  0  0
   -3.0587   -0.6205    0.0000 C   0  0  0  0  0  0  0  0  0  0  0  0
   -2.6462    1.5229    0.0000 Cl  0  0  0  0  0  0  0  0  0  0  0  0
   -3.0587    0.8085    0.0000 Cl  0  0  0  0  0  0  0  0  0  0  0  0
    0.6538    1.5229    0.0000 N   0  0  0  0  0  0  0  0  0  0  0  0
    0.8838    0.0709    0.0000 O   0  0  0  0  0  0  0  0  0  0  0  0
    0.8838    2.9750    0.0000 O   0  0  0  0  0  0  0  0  0  0  0  0
   -2.6462   -1.3349    0.0000 O   0  0  0  0  0  0  0  0  0  0  0  0
   -3.8837   -0.6205    0.0000 O   0  0  0  0  0  0  0  0  0  0  0  0
   -1.4087   -0.6205    0.0000 H   0  0  0  0  0  0  0  0  0  0  0  0
  2  1  1  0  0  0  0
  4  3  1  0  0  0  0
  5  3  1  0  0  0  0
  6  4  1  0  0  0  0
  8  7  1  0  0  0  0
 11  9  2  0  0  0  0
 11 10  1  0  0  0  0
 12  7  2  0  0  0  0
 12  9  1  0  0  0  0
 13  5  1  0  0  0  0
 14  6  1  0  0  0  0
 14 13  2  0  0  0  0
 15  8  2  0  0  0  0
 15 11  1  0  0  0  0
 16 10  2  0  0  0  0
 17 13  1  0  0  0  0
 18 14  1  0  0  0  0
 19 16  1  0  0  0  0
 20 15  1  0  0  0  0
 21 16  1  0  0  0  0
 22 12  1  0  0  0  0
 22 17  1  0  0  0  0
 22 18  1  0  0  0  0
 23 17  2  0  0  0  0
 24 18  2  0  0  0  0
 25 19  2  0  0  0  0
 26  2  1  0  0  0  0
 26 19  1  0  0  0  0
 27 10  1  0  0  0  0
M  END