735
  Mrv0541 07281413492D          

 24 26  0  0  0  0            999 V2000
    3.9934   -1.6500    0.0000 C   0  0  0  0  0  0  0  0  0  0  0  0
   -1.5926    2.5559    0.0000 C   0  0  0  0  0  0  0  0  0  0  0  0
   -2.0051    1.8414    0.0000 C   0  0  0  0  0  0  0  0  0  0  0  0
   -0.7676    2.5559    0.0000 C   0  0  0  0  0  0  0  0  0  0  0  0
    3.9934    0.8250    0.0000 C   0  0  0  0  0  0  0  0  0  0  0  0
   -1.5926    1.1270    0.0000 C   0  0  0  0  0  0  0  0  0  0  0  0
   -0.3551    1.8414    0.0000 C   0  0  0  0  0  0  0  0  0  0  0  0
    3.2789    1.2375    0.0000 C   0  0  0  0  0  0  0  0  0  0  0  0
   -0.7676    1.1270    0.0000 C   0  0  0  0  0  0  0  0  0  0  0  0
    2.5645    0.8250    0.0000 C   0  0  0  0  0  0  0  0  0  0  0  0
    1.2949    0.4125    0.0000 C   0  0  0  0  0  0  0  0  0  0  0  0
    3.2789   -0.4125    0.0000 C   0  0  0  0  0  0  0  0  0  0  0  0
   -2.0051    0.4125    0.0000 F   0  0  0  0  0  0  0  0  0  0  0  0
    0.4699    1.8414    0.0000 F   0  0  0  0  0  0  0  0  0  0  0  0
    3.2789    2.0625    0.0000 F   0  0  0  0  0  0  0  0  0  0  0  0
    3.9934    0.0000    0.0000 N   0  0  0  0  0  0  0  0  0  0  0  0
    1.7798    1.0799    0.0000 N   0  0  0  0  0  0  0  0  0  0  0  0
    1.7798   -0.2549    0.0000 N   0  0  0  0  0  0  0  0  0  0  0  0
   -0.3551    0.4125    0.0000 N   0  0  0  0  0  0  0  0  0  0  0  0
    2.5645   -0.0000    0.0000 N   0  0  0  0  0  0  0  0  0  0  0  0
    0.4699    1.2375    0.0000 O   0  0  0  0  0  0  0  0  0  0  0  0
    0.4699   -0.4125    0.0000 O   0  0  0  0  0  0  0  0  0  0  0  0
    3.2789   -1.2375    0.0000 O   0  0  0  0  0  0  0  0  0  0  0  0
    0.4699    0.4125    0.0000 S   0  0  0  0  0  0  0  0  0  0  0  0
  3  2  2  0  0  0  0
  4  2  1  0  0  0  0
  6  3  1  0  0  0  0
  7  4  2  0  0  0  0
  8  5  2  0  0  0  0
  9  6  2  0  0  0  0
  9  7  1  0  0  0  0
 10  8  1  0  0  0  0
 13  6  1  0  0  0  0
 14  7  1  0  0  0  0
 15  8  1  0  0  0  0
 16  5  1  0  0  0  0
 16 12  2  0  0  0  0
 17 10  2  0  0  0  0
 17 11  1  0  0  0  0
 18 11  2  0  0  0  0
 19  9  1  0  0  0  0
 20 10  1  0  0  0  0
 20 12  1  0  0  0  0
 20 18  1  0  0  0  0
 23  1  1  0  0  0  0
 23 12  1  0  0  0  0
 24 11  1  0  0  0  0
 24 19  1  0  0  0  0
 24 21  2  0  0  0  0
 24 22  2  0  0  0  0
M  END