737
  Mrv0541 07281413492D          

 20 21  0  0  0  0            999 V2000
   -2.2539    4.7289    0.0000 C   0  0  0  0  0  0  0  0  0  0  0  0
   -2.2539    3.3000    0.0000 C   0  0  0  0  0  0  0  0  0  0  0  0
   -0.1914    2.5855    0.0000 C   0  0  0  0  0  0  0  0  0  0  0  0
   -1.4289    4.7289    0.0000 C   0  0  0  0  0  0  0  0  0  0  0  0
   -1.4289    3.3000    0.0000 C   0  0  0  0  0  0  0  0  0  0  0  0
    3.9336    2.5855    0.0000 C   0  0  0  0  0  0  0  0  0  0  0  0
    3.5211    3.3000    0.0000 C   0  0  0  0  0  0  0  0  0  0  0  0
    1.4586    1.1566    0.0000 C   0  0  0  0  0  0  0  0  0  0  0  0
    3.5211    1.8711    0.0000 C   0  0  0  0  0  0  0  0  0  0  0  0
    2.2836    1.1566    0.0000 C   0  0  0  0  0  0  0  0  0  0  0  0
    2.6961    3.3000    0.0000 C   0  0  0  0  0  0  0  0  0  0  0  0
    1.0461    1.8711    0.0000 C   0  0  0  0  0  0  0  0  0  0  0  0
    0.2211    3.3000    0.0000 C   0  0  0  0  0  0  0  0  0  0  0  0
    2.6961    1.8711    0.0000 C   0  0  0  0  0  0  0  0  0  0  0  0
    2.2836    2.5855    0.0000 C   0  0  0  0  0  0  0  0  0  0  0  0
    1.4586    2.5855    0.0000 C   0  0  0  0  0  0  0  0  0  0  0  0
   -0.1914    4.0145    0.0000 C   0  0  0  0  0  0  0  0  0  0  0  0
   -1.0164    4.0145    0.0000 N   0  0  0  0  0  0  0  0  0  0  0  0
    0.2211    4.7289    0.0000 O   0  0  0  0  0  0  0  0  0  0  0  0
    1.0461    3.3000    0.0000 O   0  0  0  0  0  0  0  0  0  0  0  0
  4  1  1  0  0  0  0
  5  2  1  0  0  0  0
  7  6  2  0  0  0  0
  9  6  1  0  0  0  0
 10  8  2  0  0  0  0
 11  7  1  0  0  0  0
 12  8  1  0  0  0  0
 13  3  1  0  0  0  0
 14  9  2  0  0  0  0
 14 10  1  0  0  0  0
 15 11  2  0  0  0  0
 15 14  1  0  0  0  0
 16 12  2  0  0  0  0
 16 15  1  0  0  0  0
 17 13  1  0  0  0  0
 18  4  1  0  0  0  0
 18  5  1  0  0  0  0
 18 17  1  0  0  0  0
 19 17  2  0  0  0  0
 20 13  1  0  0  0  0
 20 16  1  0  0  0  0
M  END