739
  Mrv0541 07281413492D          

 27 29  0  0  0  0            999 V2000
    7.9770   -2.8294    0.0000 C   0  0  0  0  0  0  0  0  0  0  0  0
    6.5481   -1.1794    0.0000 C   0  0  0  0  0  0  0  0  0  0  0  0
    3.6902   -3.6544    0.0000 C   0  0  0  0  0  0  0  0  0  0  0  0
    4.4047   -4.0669    0.0000 C   0  0  0  0  0  0  0  0  0  0  0  0
    3.6902   -2.8294    0.0000 C   0  0  0  0  0  0  0  0  0  0  0  0
    5.1191   -3.6544    0.0000 C   0  0  0  0  0  0  0  0  0  0  0  0
    1.4874    2.1638    0.0000 C   0  0  0  0  0  0  0  0  0  0  0  0
    2.6434    3.0037    0.0000 C   0  0  0  0  0  0  0  0  0  0  0  0
    1.9723    1.4964    0.0000 C   0  0  0  0  0  0  0  0  0  0  0  0
    3.1283    2.3363    0.0000 C   0  0  0  0  0  0  0  0  0  0  0  0
    4.3576    0.1305    0.0000 C   0  0  0  0  0  0  0  0  0  0  0  0
    4.1027    0.9152    0.0000 C   0  0  0  0  0  0  0  0  0  0  0  0
    4.4047   -1.5919    0.0000 C   0  0  0  0  0  0  0  0  0  0  0  0
    4.4047   -2.4169    0.0000 C   0  0  0  0  0  0  0  0  0  0  0  0
    1.8229    2.9175    0.0000 C   0  0  0  0  0  0  0  0  0  0  0  0
    2.7928    1.5826    0.0000 C   0  0  0  0  0  0  0  0  0  0  0  0
    5.1191   -2.8294    0.0000 C   0  0  0  0  0  0  0  0  0  0  0  0
    3.6902   -0.3544    0.0000 C   0  0  0  0  0  0  0  0  0  0  0  0
    6.5481   -2.8294    0.0000 C   0  0  0  0  0  0  0  0  0  0  0  0
    1.3380    3.5849    0.0000 Cl  0  0  0  0  0  0  0  0  0  0  0  0
    3.0228    0.1305    0.0000 N   0  0  0  0  0  0  0  0  0  0  0  0
    3.2777    0.9152    0.0000 N   0  0  0  0  0  0  0  0  0  0  0  0
    5.8336   -2.4169    0.0000 N   0  0  0  0  0  0  0  0  0  0  0  0
    6.5481   -3.6544    0.0000 O   0  0  0  0  0  0  0  0  0  0  0  0
    7.2626   -2.4169    0.0000 O   0  0  0  0  0  0  0  0  0  0  0  0
    5.8336   -1.5919    0.0000 O   0  0  0  0  0  0  0  0  0  0  0  0
    3.6902   -1.1794    0.0000 O   0  0  0  0  0  0  0  0  0  0  0  0
  4  3  2  0  0  0  0
  5  3  1  0  0  0  0
  6  4  1  0  0  0  0
  9  7  1  0  0  0  0
 10  8  2  0  0  0  0
 12 11  2  0  0  0  0
 14  5  2  0  0  0  0
 14 13  1  0  0  0  0
 15  7  2  0  0  0  0
 15  8  1  0  0  0  0
 16  9  2  0  0  0  0
 16 10  1  0  0  0  0
 17  6  2  0  0  0  0
 17 14  1  0  0  0  0
 18 11  1  0  0  0  0
 20 15  1  0  0  0  0
 21 18  2  0  0  0  0
 22 12  1  0  0  0  0
 22 16  1  0  0  0  0
 22 21  1  0  0  0  0
 23 17  1  0  0  0  0
 23 19  1  0  0  0  0
 24 19  2  0  0  0  0
 25  1  1  0  0  0  0
 25 19  1  0  0  0  0
 26  2  1  0  0  0  0
 26 23  1  0  0  0  0
 27 13  1  0  0  0  0
 27 18  1  0  0  0  0
M  END