740
  Mrv0541 07281413492D          

 29 31  0  0  0  0            999 V2000
   -3.2704    6.8382    0.0000 C   0  0  0  0  0  0  0  0  0  0  0  0
   -3.2704    6.0132    0.0000 C   0  0  0  0  0  0  0  0  0  0  0  0
   -2.5559    7.2507    0.0000 C   0  0  0  0  0  0  0  0  0  0  0  0
   -2.5559    5.6007    0.0000 C   0  0  0  0  0  0  0  0  0  0  0  0
   -1.8414    6.8382    0.0000 C   0  0  0  0  0  0  0  0  0  0  0  0
   -2.2539    2.8237    0.0000 C   0  0  0  0  0  0  0  0  0  0  0  0
   -1.4289    2.8237    0.0000 C   0  0  0  0  0  0  0  0  0  0  0  0
    1.7309    3.1257    0.0000 C   0  0  0  0  0  0  0  0  0  0  0  0
    2.4454    3.5382    0.0000 C   0  0  0  0  0  0  0  0  0  0  0  0
   -1.1270    5.6007    0.0000 C   0  0  0  0  0  0  0  0  0  0  0  0
   -1.8414    4.3632    0.0000 C   0  0  0  0  0  0  0  0  0  0  0  0
   -1.8414    6.0132    0.0000 C   0  0  0  0  0  0  0  0  0  0  0  0
   -1.8414    3.5382    0.0000 C   0  0  0  0  0  0  0  0  0  0  0  0
    1.0164    3.5382    0.0000 C   0  0  0  0  0  0  0  0  0  0  0  0
    2.4454    4.3632    0.0000 C   0  0  0  0  0  0  0  0  0  0  0  0
   -0.4125    6.0132    0.0000 C   0  0  0  0  0  0  0  0  0  0  0  0
    1.0164    4.3632    0.0000 C   0  0  0  0  0  0  0  0  0  0  0  0
    1.7309    4.7757    0.0000 C   0  0  0  0  0  0  0  0  0  0  0  0
    0.3020    4.7757    0.0000 C   0  0  0  0  0  0  0  0  0  0  0  0
    0.3020    3.1257    0.0000 C   0  0  0  0  0  0  0  0  0  0  0  0
    3.1599    4.7757    0.0000 F   0  0  0  0  0  0  0  0  0  0  0  0
    1.7309    5.6007    0.0000 F   0  0  0  0  0  0  0  0  0  0  0  0
   -0.4125    2.7132    0.0000 F   0  0  0  0  0  0  0  0  0  0  0  0
   -0.1105    3.8401    0.0000 F   0  0  0  0  0  0  0  0  0  0  0  0
    0.7145    2.4112    0.0000 F   0  0  0  0  0  0  0  0  0  0  0  0
    0.3020    5.6007    0.0000 N   0  0  0  0  0  0  0  0  0  0  0  0
   -0.4125    4.3632    0.0000 N   0  0  0  0  0  0  0  0  0  0  0  0
   -0.4125    6.8382    0.0000 O   0  0  0  0  0  0  0  0  0  0  0  0
   -1.1270    4.7757    0.0000 O   0  0  0  0  0  0  0  0  0  0  0  0
  2  1  2  0  0  0  0
  3  1  1  0  0  0  0
  4  2  1  0  0  0  0
  5  3  2  0  0  0  0
  7  6  1  0  0  0  0
  9  8  2  0  0  0  0
 12  4  2  0  0  0  0
 12  5  1  0  0  0  0
 12 10  1  0  0  0  0
 13  6  1  0  0  0  0
 13  7  1  0  0  0  0
 13 11  1  0  0  0  0
 14  8  1  0  0  0  0
 15  9  1  0  0  0  0
 16 10  1  0  0  0  0
 17 14  2  0  0  0  0
 18 15  2  0  0  0  0
 18 17  1  0  0  0  0
 19 17  1  0  0  0  0
 20 14  1  0  0  0  0
 21 15  1  0  0  0  0
 22 18  1  0  0  0  0
 23 20  1  0  0  0  0
 24 20  1  0  0  0  0
 25 20  1  0  0  0  0
 26 16  2  0  0  0  0
 26 19  1  4  0  0  0
 27 19  2  0  0  0  0
 28 16  1  0  0  0  0
 29 11  1  0  0  0  0
 27 29  1  4  0  0  0
M  END