741
  Mrv0541 07281413492D          

 20 21  0  0  0  0            999 V2000
    1.1383   -0.2143    0.0000 C   0  0  0  0  0  0  0  0  0  0  0  0
    4.9066   -1.8921    0.0000 C   0  0  0  0  0  0  0  0  0  0  0  0
    1.8919   -0.5498    0.0000 C   0  0  0  0  0  0  0  0  0  0  0  0
    4.1530   -1.5565    0.0000 C   0  0  0  0  0  0  0  0  0  0  0  0
    2.7512    4.7652    0.0000 C   0  0  0  0  0  0  0  0  0  0  0  0
    2.0367    4.3527    0.0000 C   0  0  0  0  0  0  0  0  0  0  0  0
    3.4656    4.3527    0.0000 C   0  0  0  0  0  0  0  0  0  0  0  0
    2.0367    3.5277    0.0000 C   0  0  0  0  0  0  0  0  0  0  0  0
    3.4656    3.5277    0.0000 C   0  0  0  0  0  0  0  0  0  0  0  0
    3.4186    1.8053    0.0000 C   0  0  0  0  0  0  0  0  0  0  0  0
    2.7512    3.1152    0.0000 C   0  0  0  0  0  0  0  0  0  0  0  0
    2.7512    2.2902    0.0000 C   0  0  0  0  0  0  0  0  0  0  0  0
    3.1637    1.0206    0.0000 C   0  0  0  0  0  0  0  0  0  0  0  0
    2.3387    1.0206    0.0000 N   0  0  0  0  0  0  0  0  0  0  0  0
    2.5594   -0.0649    0.0000 O   0  0  0  0  0  0  0  0  0  0  0  0
    4.0667   -0.7360    0.0000 O   0  0  0  0  0  0  0  0  0  0  0  0
    2.0837    1.8053    0.0000 O   0  0  0  0  0  0  0  0  0  0  0  0
    3.6486    0.3532    0.0000 O   0  0  0  0  0  0  0  0  0  0  0  0
    3.3130   -0.4005    0.0000 P   0  0  0  0  0  0  0  0  0  0  0  0
    2.9775   -1.1542    0.0000 S   0  0  0  0  0  0  0  0  0  0  0  0
  3  1  1  0  0  0  0
  4  2  1  0  0  0  0
  6  5  2  0  0  0  0
  7  5  1  0  0  0  0
  8  6  1  0  0  0  0
  9  7  2  0  0  0  0
 11  8  2  0  0  0  0
 11  9  1  0  0  0  0
 12 10  2  0  0  0  0
 12 11  1  0  0  0  0
 13 10  1  0  0  0  0
 14 13  2  0  0  0  0
 15  3  1  0  0  0  0
 16  4  1  0  0  0  0
 17 12  1  0  0  0  0
 17 14  1  0  0  0  0
 18 13  1  0  0  0  0
 19 15  1  0  0  0  0
 19 16  1  0  0  0  0
 19 18  1  0  0  0  0
 20 19  2  0  0  0  0
M  END