742
  Mrv0541 07281413492D          

 23 23  0  0  0  0            999 V2000
    0.6039    3.3000    0.0000 C   0  0  0  0  0  0  0  0  0  0  0  0
    4.3164    2.5855    0.0000 C   0  0  0  0  0  0  0  0  0  0  0  0
    1.4289    3.3000    0.0000 C   0  0  0  0  0  0  0  0  0  0  0  0
    3.9039    3.3000    0.0000 C   0  0  0  0  0  0  0  0  0  0  0  0
    1.8414    4.0145    0.0000 C   0  0  0  0  0  0  0  0  0  0  0  0
    3.0789    3.3000    0.0000 C   0  0  0  0  0  0  0  0  0  0  0  0
    4.3164    5.4434    0.0000 C   0  0  0  0  0  0  0  0  0  0  0  0
    3.0789    6.1579    0.0000 C   0  0  0  0  0  0  0  0  0  0  0  0
    3.9039    6.1579    0.0000 C   0  0  0  0  0  0  0  0  0  0  0  0
    3.9039    4.7289    0.0000 C   0  0  0  0  0  0  0  0  0  0  0  0
    2.6664    5.4434    0.0000 C   0  0  0  0  0  0  0  0  0  0  0  0
    3.0789    4.7289    0.0000 C   0  0  0  0  0  0  0  0  0  0  0  0
    4.7289    7.5868    0.0000 N   0  0  0  0  0  0  0  0  0  0  0  0
    2.6664    4.0145    0.0000 N   0  0  0  0  0  0  0  0  0  0  0  0
    4.3164    4.0145    0.0000 N   0  0  0  0  0  0  0  0  0  0  0  0
    1.8414    5.4434    0.0000 N   0  0  0  0  0  0  0  0  0  0  0  0
    4.4027    3.1940    0.0000 O   0  0  0  0  0  0  0  0  0  0  0  0
    5.1414    4.0145    0.0000 O   0  0  0  0  0  0  0  0  0  0  0  0
    1.4289    4.7289    0.0000 O   0  0  0  0  0  0  0  0  0  0  0  0
    1.4289    6.1579    0.0000 O   0  0  0  0  0  0  0  0  0  0  0  0
    5.0309    6.4599    0.0000 O   0  0  0  0  0  0  0  0  0  0  0  0
    3.6020    7.2849    0.0000 O   0  0  0  0  0  0  0  0  0  0  0  0
    4.3164    6.8724    0.0000 S   0  0  0  0  0  0  0  0  0  0  0  0
  3  1  1  0  0  0  0
  4  2  1  0  0  0  0
  5  3  1  0  0  0  0
  6  4  1  0  0  0  0
  9  7  2  0  0  0  0
  9  8  1  0  0  0  0
 10  7  1  0  0  0  0
 11  8  2  0  0  0  0
 12 10  2  0  0  0  0
 12 11  1  0  0  0  0
 14  5  1  0  0  0  0
 14  6  1  0  0  0  0
 14 12  1  0  0  0  0
 15 10  1  0  0  0  0
 16 11  1  0  0  0  0
 17 15  2  0  0  0  0
 18 15  2  0  0  0  0
 19 16  2  0  0  0  0
 20 16  2  0  0  0  0
 23  9  1  0  0  0  0
 23 13  1  0  0  0  0
 23 21  2  0  0  0  0
 23 22  2  0  0  0  0
M  END