745
  Mrv0541 07281413492D          

 16 16  0  0  0  0            999 V2000
   -1.4289   -2.4750    0.0000 C   0  0  0  0  0  0  0  0  0  0  0  0
   -2.1434   -1.2375    0.0000 C   0  0  0  0  0  0  0  0  0  0  0  0
    1.4289    0.0000    0.0000 C   0  0  0  0  0  0  0  0  0  0  0  0
    1.4289    0.8250    0.0000 C   0  0  0  0  0  0  0  0  0  0  0  0
    0.7145   -0.4125    0.0000 C   0  0  0  0  0  0  0  0  0  0  0  0
   -0.0000    0.8250    0.0000 C   0  0  0  0  0  0  0  0  0  0  0  0
    0.7145    1.2375    0.0000 C   0  0  0  0  0  0  0  0  0  0  0  0
   -0.0000    0.0000    0.0000 C   0  0  0  0  0  0  0  0  0  0  0  0
   -0.7145   -1.2375    0.0000 C   0  0  0  0  0  0  0  0  0  0  0  0
    0.7145    2.0625    0.0000 C   0  0  0  0  0  0  0  0  0  0  0  0
    0.7145    2.8875    0.0000 F   0  0  0  0  0  0  0  0  0  0  0  0
    1.5395    2.0625    0.0000 F   0  0  0  0  0  0  0  0  0  0  0  0
   -0.1105    2.0625    0.0000 F   0  0  0  0  0  0  0  0  0  0  0  0
   -0.7145   -0.4125    0.0000 N   0  0  0  0  0  0  0  0  0  0  0  0
   -1.4289   -1.6500    0.0000 N   0  0  0  0  0  0  0  0  0  0  0  0
   -0.0000   -1.6500    0.0000 O   0  0  0  0  0  0  0  0  0  0  0  0
  4  3  2  0  0  0  0
  5  3  1  0  0  0  0
  7  4  1  0  0  0  0
  7  6  2  0  0  0  0
  8  5  2  0  0  0  0
  8  6  1  0  0  0  0
 10  7  1  0  0  0  0
 11 10  1  0  0  0  0
 12 10  1  0  0  0  0
 13 10  1  0  0  0  0
 14  8  1  4  0  0  0
 14  9  2  0  0  0  0
 15  1  1  0  0  0  0
 15  2  1  0  0  0  0
 15  9  1  0  0  0  0
 16  9  1  0  0  0  0
M  END