747
  Mrv0541 07281413492D          

 20 21  0  0  0  0            999 V2000
    0.4259    1.9883    0.0000 C   0  0  0  0  0  0  0  0  0  0  0  0
    1.2509    1.9883    0.0000 C   0  0  0  0  0  0  0  0  0  0  0  0
    0.8459    5.2462    0.0000 C   0  0  0  0  0  0  0  0  0  0  0  0
    0.0209    5.2462    0.0000 C   0  0  0  0  0  0  0  0  0  0  0  0
    0.1710    2.7730    0.0000 C   0  0  0  0  0  0  0  0  0  0  0  0
    1.5059    2.7730    0.0000 C   0  0  0  0  0  0  0  0  0  0  0  0
    1.1009    4.4616    0.0000 C   0  0  0  0  0  0  0  0  0  0  0  0
   -0.2340    4.4616    0.0000 C   0  0  0  0  0  0  0  0  0  0  0  0
    0.8384    3.2579    0.0000 C   0  0  0  0  0  0  0  0  0  0  0  0
    0.4334    3.9766    0.0000 C   0  0  0  0  0  0  0  0  0  0  0  0
   -0.0590    1.3209    0.0000 Cl  0  0  0  0  0  0  0  0  0  0  0  0
    1.7358    1.3209    0.0000 Cl  0  0  0  0  0  0  0  0  0  0  0  0
    1.3308    5.9136    0.0000 Cl  0  0  0  0  0  0  0  0  0  0  0  0
   -0.4640    5.9136    0.0000 Cl  0  0  0  0  0  0  0  0  0  0  0  0
   -0.6136    3.0279    0.0000 Cl  0  0  0  0  0  0  0  0  0  0  0  0
    2.2905    3.0279    0.0000 Cl  0  0  0  0  0  0  0  0  0  0  0  0
    1.8855    4.2066    0.0000 Cl  0  0  0  0  0  0  0  0  0  0  0  0
   -1.0186    4.2066    0.0000 Cl  0  0  0  0  0  0  0  0  0  0  0  0
    1.2434    3.9766    0.0000 Cl  0  0  0  0  0  0  0  0  0  0  0  0
    0.0284    3.2579    0.0000 Cl  0  0  0  0  0  0  0  0  0  0  0  0
  2  1  1  0  0  0  0
  4  3  1  0  0  0  0
  5  1  2  0  0  0  0
  6  2  2  0  0  0  0
  7  3  2  0  0  0  0
  8  4  2  0  0  0  0
  9  5  1  0  0  0  0
  9  6  1  0  0  0  0
 10  7  1  0  0  0  0
 10  8  1  0  0  0  0
 10  9  1  0  0  0  0
 11  1  1  0  0  0  0
 12  2  1  0  0  0  0
 13  3  1  0  0  0  0
 14  4  1  0  0  0  0
 15  5  1  0  0  0  0
 16  6  1  0  0  0  0
 17  7  1  0  0  0  0
 18  8  1  0  0  0  0
 19  9  1  0  0  0  0
 20 10  1  0  0  0  0
M  END