751
  Mrv0541 07281413492D          

 22 26  0  0  0  0            999 V2000
    1.6338   -0.1019    0.0000 C   0  0  0  0  0  0  0  0  0  0  0  0
    0.6891   -0.1243    0.0000 C   0  0  0  0  0  0  0  0  0  0  0  0
    2.3994    0.1679    0.0000 C   0  0  0  0  0  0  0  0  0  0  0  0
    1.4146    0.2768    0.0000 C   0  0  0  0  0  0  0  0  0  0  0  0
    2.2888   -0.6146    0.0000 C   0  0  0  0  0  0  0  0  0  0  0  0
    1.9006    0.7180    0.0000 C   0  0  0  0  0  0  0  0  0  0  0  0
    1.0428   -0.6380    0.0000 C   0  0  0  0  0  0  0  0  0  0  0  0
    0.6352    0.6549    0.0000 C   0  0  0  0  0  0  0  0  0  0  0  0
    1.6897   -1.1676    0.0000 C   0  0  0  0  0  0  0  0  0  0  0  0
    1.2397    1.2284    0.0000 C   0  0  0  0  0  0  0  0  0  0  0  0
    1.3741   -0.8850    0.0000 Cl  0  0  0  0  0  0  0  0  0  0  0  0
   -0.0898   -0.3964    0.0000 Cl  0  0  0  0  0  0  0  0  0  0  0  0
    3.1341   -0.2074    0.0000 Cl  0  0  0  0  0  0  0  0  0  0  0  0
    1.6433    1.0694    0.0000 Cl  0  0  0  0  0  0  0  0  0  0  0  0
    3.0195   -0.9977    0.0000 Cl  0  0  0  0  0  0  0  0  0  0  0  0
    2.4605    1.3239    0.0000 Cl  0  0  0  0  0  0  0  0  0  0  0  0
    0.4357   -1.1966    0.0000 Cl  0  0  0  0  0  0  0  0  0  0  0  0
   -0.1801    0.5286    0.0000 Cl  0  0  0  0  0  0  0  0  0  0  0  0
    2.1302   -1.8651    0.0000 Cl  0  0  0  0  0  0  0  0  0  0  0  0
    1.2914   -1.8900    0.0000 Cl  0  0  0  0  0  0  0  0  0  0  0  0
    1.6214    1.9598    0.0000 Cl  0  0  0  0  0  0  0  0  0  0  0  0
    0.7858    1.9173    0.0000 Cl  0  0  0  0  0  0  0  0  0  0  0  0
  2  1  1  0  0  0  0
  4  3  1  0  0  0  0
  5  1  1  0  0  0  0
  5  3  1  0  0  0  0
  6  1  1  0  0  0  0
  6  3  1  0  0  0  0
  7  2  1  0  0  0  0
  7  4  1  0  0  0  0
  8  2  1  0  0  0  0
  8  4  1  0  0  0  0
  9  5  1  0  0  0  0
  9  7  1  0  0  0  0
 10  6  1  0  0  0  0
 10  8  1  0  0  0  0
 11  1  1  0  0  0  0
 12  2  1  0  0  0  0
 13  3  1  0  0  0  0
 14  4  1  0  0  0  0
 15  5  1  0  0  0  0
 16  6  1  0  0  0  0
 17  7  1  0  0  0  0
 18  8  1  0  0  0  0
 19  9  1  0  0  0  0
 20  9  1  0  0  0  0
 21 10  1  0  0  0  0
 22 10  1  0  0  0  0
M  END