753
  Mrv0541 07281413492D          

 26 28  0  0  0  0            999 V2000
    0.3020   -3.6020    0.0000 C   0  0  0  0  0  0  0  0  0  0  0  0
    1.0164   -2.3645    0.0000 C   0  0  0  0  0  0  0  0  0  0  0  0
    2.2259   -1.9447    0.0000 C   0  0  0  0  0  0  0  0  0  0  0  0
    3.4899   -1.9447    0.0000 C   0  0  0  0  0  0  0  0  0  0  0  0
    8.2717   -6.0770    0.0000 C   0  0  0  0  0  0  0  0  0  0  0  0
    8.9862   -5.6645    0.0000 C   0  0  0  0  0  0  0  0  0  0  0  0
    7.5572   -5.6645    0.0000 C   0  0  0  0  0  0  0  0  0  0  0  0
    6.8427   -1.9520    0.0000 C   0  0  0  0  0  0  0  0  0  0  0  0
    6.1283   -2.3645    0.0000 C   0  0  0  0  0  0  0  0  0  0  0  0
    8.9862   -4.8395    0.0000 C   0  0  0  0  0  0  0  0  0  0  0  0
    7.5572   -4.8395    0.0000 C   0  0  0  0  0  0  0  0  0  0  0  0
    7.5572   -2.3645    0.0000 C   0  0  0  0  0  0  0  0  0  0  0  0
    1.7309   -3.6020    0.0000 C   0  0  0  0  0  0  0  0  0  0  0  0
    6.8427   -3.6020    0.0000 C   0  0  0  0  0  0  0  0  0  0  0  0
    5.4138   -3.6020    0.0000 C   0  0  0  0  0  0  0  0  0  0  0  0
    1.0164   -3.1895    0.0000 C   0  0  0  0  0  0  0  0  0  0  0  0
    6.1283   -3.1895    0.0000 C   0  0  0  0  0  0  0  0  0  0  0  0
    8.2717   -4.4270    0.0000 C   0  0  0  0  0  0  0  0  0  0  0  0
    7.5572   -3.1895    0.0000 C   0  0  0  0  0  0  0  0  0  0  0  0
    2.4454   -3.1895    0.0000 C   0  0  0  0  0  0  0  0  0  0  0  0
    3.2704   -3.1895    0.0000 C   0  0  0  0  0  0  0  0  0  0  0  0
    3.9849   -3.6020    0.0000 C   0  0  0  0  0  0  0  0  0  0  0  0
    2.8579   -2.4750    0.0000 C   0  0  0  0  0  0  0  0  0  0  0  0
    3.9849   -4.4270    0.0000 O   0  0  0  0  0  0  0  0  0  0  0  0
    4.6993   -3.1895    0.0000 O   0  0  0  0  0  0  0  0  0  0  0  0
    8.2717   -3.6020    0.0000 O   0  0  0  0  0  0  0  0  0  0  0  0
  6  5  2  0  0  0  0
  7  5  1  0  0  0  0
  9  8  2  0  0  0  0
 10  6  1  0  0  0  0
 11  7  2  0  0  0  0
 12  8  1  0  0  0  0
 16  1  1  0  0  0  0
 16  2  1  0  0  0  0
 16 13  2  0  0  0  0
 17  9  1  0  0  0  0
 17 14  2  0  0  0  0
 17 15  1  0  0  0  0
 18 10  2  0  0  0  0
 18 11  1  0  0  0  0
 19 12  2  0  0  0  0
 19 14  1  0  0  0  0
 20 13  1  0  0  0  0
 21 20  1  0  0  0  0
 22 21  1  0  0  0  0
 23  3  1  0  0  0  0
 23  4  1  0  0  0  0
 23 20  1  0  0  0  0
 23 21  1  0  0  0  0
 24 22  2  0  0  0  0
 25 15  1  0  0  0  0
 25 22  1  0  0  0  0
 26 18  1  0  0  0  0
 26 19  1  0  0  0  0
M  END