755
  Mrv0541 07281413492D          

 27 29  0  0  0  0            999 V2000
    5.2088    2.7647    0.0000 C   0  0  0  0  0  0  0  0  0  0  0  0
    4.0464    0.1539    0.0000 C   0  0  0  0  0  0  0  0  0  0  0  0
    2.3666    2.4660    0.0000 C   0  0  0  0  0  0  0  0  0  0  0  0
    0.1827    3.6053    0.0000 C   0  0  0  0  0  0  0  0  0  0  0  0
    1.1612    4.2408    0.0000 C   0  0  0  0  0  0  0  0  0  0  0  0
    0.8181    2.6268    0.0000 C   0  0  0  0  0  0  0  0  0  0  0  0
   -0.0000    0.8250    0.0000 C   0  0  0  0  0  0  0  0  0  0  0  0
   -0.0000    0.0000    0.0000 C   0  0  0  0  0  0  0  0  0  0  0  0
    0.7846    1.0799    0.0000 C   0  0  0  0  0  0  0  0  0  0  0  0
    0.7846   -0.2549    0.0000 C   0  0  0  0  0  0  0  0  0  0  0  0
    4.6276    1.4593    0.0000 C   0  0  0  0  0  0  0  0  0  0  0  0
    3.7877    2.6153    0.0000 C   0  0  0  0  0  0  0  0  0  0  0  0
    1.7966    3.2623    0.0000 C   0  0  0  0  0  0  0  0  0  0  0  0
    4.5414    2.2798    0.0000 C   0  0  0  0  0  0  0  0  0  0  0  0
    3.9602    0.9744    0.0000 C   0  0  0  0  0  0  0  0  0  0  0  0
    3.1203    2.1304    0.0000 C   0  0  0  0  0  0  0  0  0  0  0  0
    2.0516    2.4777    0.0000 C   0  0  0  0  0  0  0  0  0  0  0  0
    3.2065    1.3099    0.0000 C   0  0  0  0  0  0  0  0  0  0  0  0
    2.5391    0.8250    0.0000 C   0  0  0  0  0  0  0  0  0  0  0  0
    1.7545    1.0799    0.0000 C   0  0  0  0  0  0  0  0  0  0  0  0
    2.5391   -0.0000    0.0000 C   0  0  0  0  0  0  0  0  0  0  0  0
    0.9897    3.4338    0.0000 C   0  0  0  0  0  0  0  0  0  0  0  0
    1.2695    0.4125    0.0000 C   0  0  0  0  0  0  0  0  0  0  0  0
    2.6647    3.0297    0.0000 O   0  0  0  0  0  0  0  0  0  0  0  0
    3.2065   -0.4849    0.0000 O   0  0  0  0  0  0  0  0  0  0  0  0
    1.4995    1.8646    0.0000 O   0  0  0  0  0  0  0  0  0  0  0  0
    1.7545   -0.2549    0.0000 O   0  0  0  0  0  0  0  0  0  0  0  0
  8  7  1  0  0  0  0
  9  7  1  0  0  0  0
 10  8  1  0  0  0  0
 14  1  1  0  0  0  0
 14 11  2  0  0  0  0
 14 12  1  0  0  0  0
 15  2  1  0  0  0  0
 15 11  1  0  0  0  0
 16  3  1  0  0  0  0
 16 12  2  0  0  0  0
 17 13  1  0  0  0  0
 18 15  2  0  0  0  0
 18 16  1  0  0  0  0
 19 18  1  0  0  0  0
 20 19  2  0  0  0  0
 21 19  1  0  0  0  0
 22  4  1  0  0  0  0
 22  5  1  0  0  0  0
 22  6  1  0  0  0  0
 22 13  1  0  0  0  0
 23  9  1  0  0  0  0
 23 10  1  0  0  0  0
 23 20  1  0  0  0  0
 24 17  2  0  0  0  0
 25 21  2  0  0  0  0
 26 17  1  0  0  0  0
 26 20  1  0  0  0  0
 27 21  1  0  0  0  0
 27 23  1  0  0  0  0
M  END