758
  Mrv0541 07281413492D          

 18 21  0  0  0  0            999 V2000
   -0.9315   -1.2924    0.0000 C   0  0  0  0  0  0  0  0  0  0  0  0
   -1.3385   -1.9280    0.0000 C   0  0  0  0  0  0  0  0  0  0  0  0
   -0.3708   -0.0602    0.0000 C   0  0  0  0  0  0  0  0  0  0  0  0
   -0.2636   -0.8842    0.0000 C   0  0  0  0  0  0  0  0  0  0  0  0
   -0.5395   -1.5884    0.0000 C   0  0  0  0  0  0  0  0  0  0  0  0
    0.5004   -1.3997    0.0000 C   0  0  0  0  0  0  0  0  0  0  0  0
    0.1657   -2.0048    0.0000 C   0  0  0  0  0  0  0  0  0  0  0  0
    1.9362   -1.4148    0.0000 C   0  0  0  0  0  0  0  0  0  0  0  0
    1.6411   -2.0402    0.0000 C   0  0  0  0  0  0  0  0  0  0  0  0
    1.1407   -0.9495    0.0000 C   0  0  0  0  0  0  0  0  0  0  0  0
    0.9106   -1.6699    0.0000 C   0  0  0  0  0  0  0  0  0  0  0  0
    0.9807   -0.1341    0.0000 C   0  0  0  0  0  0  0  0  0  0  0  0
    2.7243   -1.1707    0.0000 Cl  0  0  0  0  0  0  0  0  0  0  0  0
    1.9087   -2.8206    0.0000 Cl  0  0  0  0  0  0  0  0  0  0  0  0
    1.3626   -0.1549    0.0000 Cl  0  0  0  0  0  0  0  0  0  0  0  0
    0.8914   -2.4947    0.0000 Cl  0  0  0  0  0  0  0  0  0  0  0  0
    1.4674    0.5320    0.0000 Cl  0  0  0  0  0  0  0  0  0  0  0  0
    0.4010    0.4529    0.0000 Cl  0  0  0  0  0  0  0  0  0  0  0  0
  2  1  2  0  0  0  0
  4  1  1  0  0  0  0
  4  3  1  0  0  0  0
  5  2  1  0  0  0  0
  5  3  1  0  0  0  0
  6  4  1  0  0  0  0
  7  5  1  0  0  0  0
  7  6  1  0  0  0  0
  9  8  2  0  0  0  0
 10  6  1  0  0  0  0
 10  8  1  0  0  0  0
 11  7  1  0  0  0  0
 11  9  1  0  0  0  0
 12 10  1  0  0  0  0
 12 11  1  0  0  0  0
 13  8  1  0  0  0  0
 14  9  1  0  0  0  0
 15 10  1  0  0  0  0
 16 11  1  0  0  0  0
 17 12  1  0  0  0  0
 18 12  1  0  0  0  0
M  END