762
  Mrv0541 07281413492D          

 19 20  0  0  0  0            999 V2000
    3.8743    0.7145    0.0000 C   0  0  0  0  0  0  0  0  0  0  0  0
    4.2868   -0.0000    0.0000 C   0  0  0  0  0  0  0  0  0  0  0  0
    7.9993   -2.1434    0.0000 C   0  0  0  0  0  0  0  0  0  0  0  0
    7.5868   -1.4289    0.0000 C   0  0  0  0  0  0  0  0  0  0  0  0
    8.8564    0.4125    0.0000 C   0  0  0  0  0  0  0  0  0  0  0  0
    8.0717    0.6674    0.0000 C   0  0  0  0  0  0  0  0  0  0  0  0
    5.1118   -0.0000    0.0000 C   0  0  0  0  0  0  0  0  0  0  0  0
    6.7618   -2.8579    0.0000 C   0  0  0  0  0  0  0  0  0  0  0  0
    6.7618    0.0000    0.0000 C   0  0  0  0  0  0  0  0  0  0  0  0
    8.0717   -0.6674    0.0000 C   0  0  0  0  0  0  0  0  0  0  0  0
    7.5868   -2.8579    0.0000 C   0  0  0  0  0  0  0  0  0  0  0  0
    6.7618   -1.4289    0.0000 C   0  0  0  0  0  0  0  0  0  0  0  0
    6.3493   -2.1434    0.0000 C   0  0  0  0  0  0  0  0  0  0  0  0
    6.3493   -0.7145    0.0000 C   0  0  0  0  0  0  0  0  0  0  0  0
    7.9993   -3.5724    0.0000 Cl  0  0  0  0  0  0  0  0  0  0  0  0
    5.5243   -2.1434    0.0000 Cl  0  0  0  0  0  0  0  0  0  0  0  0
    8.8564   -0.4125    0.0000 N   0  0  0  0  0  0  0  0  0  0  0  0
    7.5868    0.0000    0.0000 N   0  0  0  0  0  0  0  0  0  0  0  0
    5.5243   -0.7145    0.0000 O   0  0  0  0  0  0  0  0  0  0  0  0
  2  1  2  0  0  0  0
  4  3  2  0  0  0  0
  6  5  2  0  0  0  0
  7  2  1  0  0  0  0
 11  3  1  0  0  0  0
 11  8  2  0  0  0  0
 12  4  1  0  0  0  0
 13  8  1  0  0  0  0
 13 12  2  0  0  0  0
 14  9  1  0  0  0  0
 14 12  1  0  0  0  0
 15 11  1  0  0  0  0
 16 13  1  0  0  0  0
 17  5  1  0  0  0  0
 17 10  2  0  0  0  0
 18  6  1  0  0  0  0
 18  9  1  0  0  0  0
 18 10  1  0  0  0  0
 19  7  1  0  0  0  0
 19 14  1  0  0  0  0
M  END