764
  Mrv0541 07281413492D          

 14 13  0  0  0  0            999 V2000
    2.8875    2.1434    0.0000 C   0  0  0  0  0  0  0  0  0  0  0  0
    2.0625    1.3184    0.0000 C   0  0  0  0  0  0  0  0  0  0  0  0
    2.0625    2.9684    0.0000 C   0  0  0  0  0  0  0  0  0  0  0  0
   -0.4125   -0.7145    0.0000 C   0  0  0  0  0  0  0  0  0  0  0  0
    0.8250    4.2868    0.0000 C   0  0  0  0  0  0  0  0  0  0  0  0
    0.8250    2.8579    0.0000 C   0  0  0  0  0  0  0  0  0  0  0  0
    1.2375    2.1434    0.0000 C   0  0  0  0  0  0  0  0  0  0  0  0
    0.8250    0.0000    0.0000 C   0  0  0  0  0  0  0  0  0  0  0  0
    2.0625    2.1434    0.0000 C   0  0  0  0  0  0  0  0  0  0  0  0
    0.0000    0.0000    0.0000 N   0  0  0  0  0  0  0  0  0  0  0  0
    0.8250    1.4289    0.0000 N   0  0  0  0  0  0  0  0  0  0  0  0
    1.2375   -0.7145    0.0000 O   0  0  0  0  0  0  0  0  0  0  0  0
    1.2375    0.7145    0.0000 O   0  0  0  0  0  0  0  0  0  0  0  0
    1.2375    3.5724    0.0000 S   0  0  0  0  0  0  0  0  0  0  0  0
  7  6  1  0  0  0  0
  9  1  1  0  0  0  0
  9  2  1  0  0  0  0
  9  3  1  0  0  0  0
  9  7  1  0  0  0  0
 10  4  1  4  0  0  0
 10  8  2  0  0  0  0
 11  7  2  0  0  0  0
 12  8  1  0  0  0  0
 13  8  1  0  0  0  0
 13 11  1  0  0  0  0
 14  5  1  0  0  0  0
 14  6  1  0  0  0  0
M  END