769
  Mrv0541 07281413492D          

 19 19  0  0  0  0            999 V2000
    0.0809    1.3480    0.0000 C   0  0  0  0  0  0  0  0  0  0  0  0
    3.3809   -0.0809    0.0000 C   0  0  0  0  0  0  0  0  0  0  0  0
    3.7934    0.6336    0.0000 C   0  0  0  0  0  0  0  0  0  0  0  0
    5.0309    2.7770    0.0000 C   0  0  0  0  0  0  0  0  0  0  0  0
    0.9059    1.3480    0.0000 C   0  0  0  0  0  0  0  0  0  0  0  0
    1.3184   -0.7954    0.0000 C   0  0  0  0  0  0  0  0  0  0  0  0
    2.1434   -0.7954    0.0000 C   0  0  0  0  0  0  0  0  0  0  0  0
    0.9059   -0.0809    0.0000 C   0  0  0  0  0  0  0  0  0  0  0  0
    1.3184    2.0625    0.0000 C   0  0  0  0  0  0  0  0  0  0  0  0
    3.7934    2.0625    0.0000 C   0  0  0  0  0  0  0  0  0  0  0  0
    2.5559   -0.0809    0.0000 C   0  0  0  0  0  0  0  0  0  0  0  0
    3.3809    1.3480    0.0000 C   0  0  0  0  0  0  0  0  0  0  0  0
    1.3184    0.6336    0.0000 C   0  0  0  0  0  0  0  0  0  0  0  0
    2.1434    2.0625    0.0000 C   0  0  0  0  0  0  0  0  0  0  0  0
    2.1434    0.6336    0.0000 C   0  0  0  0  0  0  0  0  0  0  0  0
    0.9059    2.7770    0.0000 Cl  0  0  0  0  0  0  0  0  0  0  0  0
    2.5559    1.3480    0.0000 N   0  0  0  0  0  0  0  0  0  0  0  0
    2.5559    2.7770    0.0000 O   0  0  0  0  0  0  0  0  0  0  0  0
    4.6184    2.0625    0.0000 O   0  0  0  0  0  0  0  0  0  0  0  0
  5  1  1  0  0  0  0
  7  6  2  0  0  0  0
  8  6  1  0  0  0  0
 11  2  1  0  0  0  0
 11  7  1  0  0  0  0
 12  3  1  0  0  0  0
 12 10  1  0  0  0  0
 13  5  1  0  0  0  0
 13  8  2  0  0  0  0
 14  9  1  0  0  0  0
 15 11  2  0  0  0  0
 15 13  1  0  0  0  0
 16  9  1  0  0  0  0
 17 12  1  0  0  0  0
 17 14  1  0  0  0  0
 17 15  1  0  0  0  0
 18 14  2  0  0  0  0
 19  4  1  0  0  0  0
 19 10  1  0  0  0  0
M  END