772
  Mrv0541 07281413492D          

 26 28  0  0  0  0            999 V2000
    2.2259   -1.9447    0.0000 C   0  0  0  0  0  0  0  0  0  0  0  0
    3.4899   -1.9447    0.0000 C   0  0  0  0  0  0  0  0  0  0  0  0
   10.4151   -2.3645    0.0000 C   0  0  0  0  0  0  0  0  0  0  0  0
    9.7006   -1.9520    0.0000 C   0  0  0  0  0  0  0  0  0  0  0  0
   10.4151   -3.1895    0.0000 C   0  0  0  0  0  0  0  0  0  0  0  0
    6.8427   -1.9520    0.0000 C   0  0  0  0  0  0  0  0  0  0  0  0
    6.1283   -2.3645    0.0000 C   0  0  0  0  0  0  0  0  0  0  0  0
    8.9862   -2.3645    0.0000 C   0  0  0  0  0  0  0  0  0  0  0  0
    9.7006   -3.6020    0.0000 C   0  0  0  0  0  0  0  0  0  0  0  0
    7.5572   -2.3645    0.0000 C   0  0  0  0  0  0  0  0  0  0  0  0
    6.8427   -3.6020    0.0000 C   0  0  0  0  0  0  0  0  0  0  0  0
    1.7309   -3.6020    0.0000 C   0  0  0  0  0  0  0  0  0  0  0  0
    5.4138   -3.6020    0.0000 C   0  0  0  0  0  0  0  0  0  0  0  0
    6.1283   -3.1895    0.0000 C   0  0  0  0  0  0  0  0  0  0  0  0
    8.9862   -3.1895    0.0000 C   0  0  0  0  0  0  0  0  0  0  0  0
    7.5572   -3.1895    0.0000 C   0  0  0  0  0  0  0  0  0  0  0  0
    2.4454   -3.1895    0.0000 C   0  0  0  0  0  0  0  0  0  0  0  0
    1.0164   -3.1895    0.0000 C   0  0  0  0  0  0  0  0  0  0  0  0
    3.2704   -3.1895    0.0000 C   0  0  0  0  0  0  0  0  0  0  0  0
    3.9849   -3.6020    0.0000 C   0  0  0  0  0  0  0  0  0  0  0  0
    2.8579   -2.4750    0.0000 C   0  0  0  0  0  0  0  0  0  0  0  0
    0.3020   -3.6020    0.0000 Cl  0  0  0  0  0  0  0  0  0  0  0  0
    1.0164   -2.3645    0.0000 Cl  0  0  0  0  0  0  0  0  0  0  0  0
    3.9849   -4.4270    0.0000 O   0  0  0  0  0  0  0  0  0  0  0  0
    4.6993   -3.1895    0.0000 O   0  0  0  0  0  0  0  0  0  0  0  0
    8.2717   -3.6020    0.0000 O   0  0  0  0  0  0  0  0  0  0  0  0
  4  3  2  0  0  0  0
  5  3  1  0  0  0  0
  7  6  2  0  0  0  0
  8  4  1  0  0  0  0
  9  5  2  0  0  0  0
 10  6  1  0  0  0  0
 14  7  1  0  0  0  0
 14 11  2  0  0  0  0
 14 13  1  0  0  0  0
 15  8  2  0  0  0  0
 15  9  1  0  0  0  0
 16 10  2  0  0  0  0
 16 11  1  0  0  0  0
 17 12  1  0  0  0  0
 18 12  2  0  0  0  0
 19 17  1  0  0  0  0
 20 19  1  0  0  0  0
 21  1  1  0  0  0  0
 21  2  1  0  0  0  0
 21 17  1  0  0  0  0
 21 19  1  0  0  0  0
 22 18  1  0  0  0  0
 23 18  1  0  0  0  0
 24 20  2  0  0  0  0
 25 13  1  0  0  0  0
 25 20  1  0  0  0  0
 26 15  1  0  0  0  0
 26 16  1  0  0  0  0
M  END