773
  Mrv0541 07281413492D          

 17 17  0  0  0  0            999 V2000
    0.9059    5.8559    0.0000 C   0  0  0  0  0  0  0  0  0  0  0  0
    2.1434    2.2836    0.0000 C   0  0  0  0  0  0  0  0  0  0  0  0
    1.3184    5.1414    0.0000 C   0  0  0  0  0  0  0  0  0  0  0  0
    2.5559    2.9980    0.0000 C   0  0  0  0  0  0  0  0  0  0  0  0
    5.8559    1.5691    0.0000 C   0  0  0  0  0  0  0  0  0  0  0  0
    6.2684    2.2836    0.0000 C   0  0  0  0  0  0  0  0  0  0  0  0
    5.0309    1.5691    0.0000 C   0  0  0  0  0  0  0  0  0  0  0  0
    5.8559    2.9980    0.0000 C   0  0  0  0  0  0  0  0  0  0  0  0
    4.6184    2.2836    0.0000 C   0  0  0  0  0  0  0  0  0  0  0  0
    2.1434    5.1414    0.0000 C   0  0  0  0  0  0  0  0  0  0  0  0
    2.1434    3.7125    0.0000 C   0  0  0  0  0  0  0  0  0  0  0  0
    4.6184    3.7125    0.0000 C   0  0  0  0  0  0  0  0  0  0  0  0
    5.0309    2.9980    0.0000 C   0  0  0  0  0  0  0  0  0  0  0  0
    3.3809    4.4270    0.0000 C   0  0  0  0  0  0  0  0  0  0  0  0
    2.5559    4.4270    0.0000 N   0  0  0  0  0  0  0  0  0  0  0  0
    3.7934    5.1414    0.0000 O   0  0  0  0  0  0  0  0  0  0  0  0
    3.7934    3.7125    0.0000 S   0  0  0  0  0  0  0  0  0  0  0  0
  3  1  1  0  0  0  0
  4  2  1  0  0  0  0
  6  5  2  0  0  0  0
  7  5  1  0  0  0  0
  8  6  1  0  0  0  0
  9  7  2  0  0  0  0
 10  3  1  0  0  0  0
 11  4  1  0  0  0  0
 13  8  2  0  0  0  0
 13  9  1  0  0  0  0
 13 12  1  0  0  0  0
 15 10  1  0  0  0  0
 15 11  1  0  0  0  0
 15 14  1  0  0  0  0
 16 14  2  0  0  0  0
 17 12  1  0  0  0  0
 17 14  1  0  0  0  0
M  END