778
  Mrv0541 07281413492D          

 22 23  0  0  0  0            999 V2000
    3.5136    0.3161    0.0000 C   0  0  0  0  0  0  0  0  0  0  0  0
   -5.0298    1.0886    0.0000 C   0  0  0  0  0  0  0  0  0  0  0  0
   -4.3153    2.3261    0.0000 C   0  0  0  0  0  0  0  0  0  0  0  0
    1.0072    2.2311    0.0000 C   0  0  0  0  0  0  0  0  0  0  0  0
   -3.1059    2.7459    0.0000 C   0  0  0  0  0  0  0  0  0  0  0  0
   -1.8419    2.7459    0.0000 C   0  0  0  0  0  0  0  0  0  0  0  0
    2.6931    0.2299    0.0000 C   0  0  0  0  0  0  0  0  0  0  0  0
    2.2082    0.8973    0.0000 C   0  0  0  0  0  0  0  0  0  0  0  0
   -3.6009    1.0886    0.0000 C   0  0  0  0  0  0  0  0  0  0  0  0
    0.1682    0.2681    0.0000 C   0  0  0  0  0  0  0  0  0  0  0  0
   -4.3153    1.5011    0.0000 C   0  0  0  0  0  0  0  0  0  0  0  0
    0.8357    1.4242    0.0000 C   0  0  0  0  0  0  0  0  0  0  0  0
    1.3877    0.8111    0.0000 C   0  0  0  0  0  0  0  0  0  0  0  0
   -2.8864    1.5011    0.0000 C   0  0  0  0  0  0  0  0  0  0  0  0
    0.9752    0.0966    0.0000 C   0  0  0  0  0  0  0  0  0  0  0  0
    0.0820    1.0886    0.0000 C   0  0  0  0  0  0  0  0  0  0  0  0
   -2.0614    1.5011    0.0000 C   0  0  0  0  0  0  0  0  0  0  0  0
   -1.3469    1.0886    0.0000 C   0  0  0  0  0  0  0  0  0  0  0  0
   -2.4739    2.2156    0.0000 C   0  0  0  0  0  0  0  0  0  0  0  0
    1.3108   -0.6571    0.0000 O   0  0  0  0  0  0  0  0  0  0  0  0
   -1.3469    0.2636    0.0000 O   0  0  0  0  0  0  0  0  0  0  0  0
   -0.6325    1.5011    0.0000 O   0  0  0  0  0  0  0  0  0  0  0  0
  7  1  2  0  0  0  0
  8  7  1  0  0  0  0
 11  2  1  0  0  0  0
 11  3  1  0  0  0  0
 11  9  2  0  0  0  0
 12  4  1  0  0  0  0
 13  8  1  0  0  0  0
 13 12  2  0  0  0  0
 14  9  1  0  0  0  0
 15 10  1  0  0  0  0
 15 13  1  0  0  0  0
 16 10  1  0  0  0  0
 16 12  1  0  0  0  0
 17 14  1  0  0  0  0
 18 17  1  0  0  0  0
 19  5  1  0  0  0  0
 19  6  1  0  0  0  0
 19 14  1  0  0  0  0
 19 17  1  0  0  0  0
 20 15  2  0  0  0  0
 21 18  2  0  0  0  0
 22 16  1  0  0  0  0
 22 18  1  0  0  0  0
M  END