780
  Mrv0541 07281413492D          

 21 20  0  0  0  0            999 V2000
    6.3493   -0.9355    0.0000 C   0  0  0  0  0  0  0  0  0  0  0  0
    0.6336    1.5395    0.0000 C   0  0  0  0  0  0  0  0  0  0  0  0
    4.9204    1.5395    0.0000 C   0  0  0  0  0  0  0  0  0  0  0  0
    3.4914    1.5395    0.0000 C   0  0  0  0  0  0  0  0  0  0  0  0
    7.7783   -1.7605    0.0000 C   0  0  0  0  0  0  0  0  0  0  0  0
   -0.7954    0.7145    0.0000 C   0  0  0  0  0  0  0  0  0  0  0  0
    7.0638   -0.5230    0.0000 C   0  0  0  0  0  0  0  0  0  0  0  0
    0.6336    0.7145    0.0000 C   0  0  0  0  0  0  0  0  0  0  0  0
    5.6349    0.3020    0.0000 C   0  0  0  0  0  0  0  0  0  0  0  0
    2.7770    0.3020    0.0000 C   0  0  0  0  0  0  0  0  0  0  0  0
    7.0638    0.3020    0.0000 N   0  0  0  0  0  0  0  0  0  0  0  0
    1.3480    0.3020    0.0000 N   0  0  0  0  0  0  0  0  0  0  0  0
    4.9204    0.7145    0.0000 N   0  0  0  0  0  0  0  0  0  0  0  0
    3.4914    0.7145    0.0000 N   0  0  0  0  0  0  0  0  0  0  0  0
    5.6349   -0.5230    0.0000 O   0  0  0  0  0  0  0  0  0  0  0  0
    2.7770   -0.5230    0.0000 O   0  0  0  0  0  0  0  0  0  0  0  0
    6.3493    0.7145    0.0000 O   0  0  0  0  0  0  0  0  0  0  0  0
    2.0625    0.7145    0.0000 O   0  0  0  0  0  0  0  0  0  0  0  0
    7.7783   -0.9355    0.0000 S   0  0  0  0  0  0  0  0  0  0  0  0
   -0.0809    0.3020    0.0000 S   0  0  0  0  0  0  0  0  0  0  0  0
    4.2059    0.3020    0.0000 S   0  0  0  0  0  0  0  0  0  0  0  0
  7  1  1  0  0  0  0
  8  2  1  0  0  0  0
 11  7  2  0  0  0  0
 12  8  2  0  0  0  0
 13  3  1  0  0  0  0
 13  9  1  0  0  0  0
 14  4  1  0  0  0  0
 14 10  1  0  0  0  0
 15  9  2  0  0  0  0
 16 10  2  0  0  0  0
 17  9  1  0  0  0  0
 17 11  1  0  0  0  0
 18 10  1  0  0  0  0
 18 12  1  0  0  0  0
 19  5  1  0  0  0  0
 19  7  1  0  0  0  0
 20  6  1  0  0  0  0
 20  8  1  0  0  0  0
 21 13  1  0  0  0  0
 21 14  1  0  0  0  0
M  END