782
  Mrv0541 07281413492D          

 22 24  0  0  0  0            999 V2000
   -0.9355   -2.0625    0.0000 C   0  0  0  0  0  0  0  0  0  0  0  0
   -0.2211   -1.6500    0.0000 C   0  0  0  0  0  0  0  0  0  0  0  0
   -1.6500   -1.6500    0.0000 C   0  0  0  0  0  0  0  0  0  0  0  0
   -0.2211   -0.8250    0.0000 C   0  0  0  0  0  0  0  0  0  0  0  0
   -3.0789    0.8250    0.0000 C   0  0  0  0  0  0  0  0  0  0  0  0
   -3.7934   -0.4125    0.0000 C   0  0  0  0  0  0  0  0  0  0  0  0
   -3.7934    1.2375    0.0000 C   0  0  0  0  0  0  0  0  0  0  0  0
   -4.5079    0.0000    0.0000 C   0  0  0  0  0  0  0  0  0  0  0  0
   -2.3645   -1.8414    0.0000 C   0  0  0  0  0  0  0  0  0  0  0  0
   -3.6020   -1.1270    0.0000 C   0  0  0  0  0  0  0  0  0  0  0  0
   -3.6020   -2.5559    0.0000 C   0  0  0  0  0  0  0  0  0  0  0  0
   -3.0789    0.0000    0.0000 C   0  0  0  0  0  0  0  0  0  0  0  0
   -2.7770   -1.1270    0.0000 C   0  0  0  0  0  0  0  0  0  0  0  0
   -4.5079    0.8250    0.0000 C   0  0  0  0  0  0  0  0  0  0  0  0
   -1.6500   -0.8250    0.0000 C   0  0  0  0  0  0  0  0  0  0  0  0
   -0.9355   -0.4125    0.0000 C   0  0  0  0  0  0  0  0  0  0  0  0
   -2.3645   -0.4125    0.0000 C   0  0  0  0  0  0  0  0  0  0  0  0
   -5.2224    1.2375    0.0000 Cl  0  0  0  0  0  0  0  0  0  0  0  0
   -0.9355    0.4125    0.0000 Cl  0  0  0  0  0  0  0  0  0  0  0  0
   -2.7770   -2.5559    0.0000 N   0  0  0  0  0  0  0  0  0  0  0  0
   -4.0145   -1.8414    0.0000 N   0  0  0  0  0  0  0  0  0  0  0  0
   -1.9520    0.3020    0.0000 O   0  0  0  0  0  0  0  0  0  0  0  0
  2  1  2  0  0  0  0
  3  1  1  0  0  0  0
  4  2  1  0  0  0  0
  7  5  1  0  0  0  0
  8  6  2  0  0  0  0
 12  5  2  0  0  0  0
 12  6  1  0  0  0  0
 13  9  2  0  0  0  0
 13 10  1  0  0  0  0
 14  7  2  0  0  0  0
 14  8  1  0  0  0  0
 15  3  2  0  0  0  0
 16  4  2  0  0  0  0
 16 15  1  0  0  0  0
 17 12  1  0  0  0  0
 17 13  1  0  0  0  0
 17 15  1  0  0  0  0
 18 14  1  0  0  0  0
 19 16  1  0  0  0  0
 20  9  1  0  0  0  0
 20 11  2  0  0  0  0
 21 10  2  0  0  0  0
 21 11  1  0  0  0  0
 22 17  1  0  0  0  0
M  END