783
  Mrv0541 07281413492D          

 19 20  0  0  0  0            999 V2000
    1.7613    0.1080    0.0000 C   0  0  0  0  0  0  0  0  0  0  0  0
    2.5817    0.1942    0.0000 C   0  0  0  0  0  0  0  0  0  0  0  0
    1.2763    0.7754    0.0000 C   0  0  0  0  0  0  0  0  0  0  0  0
    2.4324    1.6153    0.0000 C   0  0  0  0  0  0  0  0  0  0  0  0
    0.7145    4.2911    0.0000 C   0  0  0  0  0  0  0  0  0  0  0  0
    1.3819    2.9812    0.0000 C   0  0  0  0  0  0  0  0  0  0  0  0
    0.7145    3.4661    0.0000 C   0  0  0  0  0  0  0  0  0  0  0  0
    2.9173    0.9479    0.0000 C   0  0  0  0  0  0  0  0  0  0  0  0
    1.6119    1.5291    0.0000 C   0  0  0  0  0  0  0  0  0  0  0  0
    0.0470    2.9812    0.0000 C   0  0  0  0  0  0  0  0  0  0  0  0
    0.3020    2.1965    0.0000 C   0  0  0  0  0  0  0  0  0  0  0  0
    3.7378    1.0341    0.0000 C   0  0  0  0  0  0  0  0  0  0  0  0
    0.0000    4.7036    0.0000 Cl  0  0  0  0  0  0  0  0  0  0  0  0
   -0.7376    3.2361    0.0000 Cl  0  0  0  0  0  0  0  0  0  0  0  0
    4.5583    1.1204    0.0000 F   0  0  0  0  0  0  0  0  0  0  0  0
    3.8240    0.2136    0.0000 F   0  0  0  0  0  0  0  0  0  0  0  0
    3.6515    1.8546    0.0000 F   0  0  0  0  0  0  0  0  0  0  0  0
    1.1270    2.1965    0.0000 N   0  0  0  0  0  0  0  0  0  0  0  0
   -0.1830    1.5291    0.0000 O   0  0  0  0  0  0  0  0  0  0  0  0
  2  1  2  0  0  0  0
  3  1  1  0  0  0  0
  7  5  1  0  0  0  0
  7  6  1  0  0  0  0
  8  2  1  0  0  0  0
  8  4  2  0  0  0  0
  9  3  2  0  0  0  0
  9  4  1  0  0  0  0
 10  7  1  0  0  0  0
 11 10  1  0  0  0  0
 12  8  1  0  0  0  0
 13  5  1  0  0  0  0
 14 10  1  0  0  0  0
 15 12  1  0  0  0  0
 16 12  1  0  0  0  0
 17 12  1  0  0  0  0
 18  6  1  0  0  0  0
 18  9  1  0  0  0  0
 18 11  1  0  0  0  0
 19 11  2  0  0  0  0
M  END