788
  Mrv0541 07281413492D          

 23 25  0  0  0  0            999 V2000
    3.4656    6.8277    0.0000 C   0  0  0  0  0  0  0  0  0  0  0  0
    2.7512    7.2402    0.0000 C   0  0  0  0  0  0  0  0  0  0  0  0
    3.4656    6.0027    0.0000 C   0  0  0  0  0  0  0  0  0  0  0  0
    0.1953    2.2581    0.0000 C   0  0  0  0  0  0  0  0  0  0  0  0
    1.0203    2.2581    0.0000 C   0  0  0  0  0  0  0  0  0  0  0  0
    2.0367    6.8277    0.0000 C   0  0  0  0  0  0  0  0  0  0  0  0
    2.7512    5.5902    0.0000 C   0  0  0  0  0  0  0  0  0  0  0  0
   -0.0597    3.0428    0.0000 C   0  0  0  0  0  0  0  0  0  0  0  0
    1.2752    3.0428    0.0000 C   0  0  0  0  0  0  0  0  0  0  0  0
   -1.5356    4.7652    0.0000 C   0  0  0  0  0  0  0  0  0  0  0  0
   -0.8212    3.5277    0.0000 C   0  0  0  0  0  0  0  0  0  0  0  0
   -2.2501    4.3527    0.0000 C   0  0  0  0  0  0  0  0  0  0  0  0
   -1.5356    3.1152    0.0000 C   0  0  0  0  0  0  0  0  0  0  0  0
   -0.1067    4.7652    0.0000 C   0  0  0  0  0  0  0  0  0  0  0  0
   -0.8212    4.3527    0.0000 C   0  0  0  0  0  0  0  0  0  0  0  0
   -2.2501    3.5277    0.0000 C   0  0  0  0  0  0  0  0  0  0  0  0
    2.0367    6.0027    0.0000 C   0  0  0  0  0  0  0  0  0  0  0  0
    0.6078    3.5277    0.0000 C   0  0  0  0  0  0  0  0  0  0  0  0
    1.3222    4.7652    0.0000 C   0  0  0  0  0  0  0  0  0  0  0  0
   -2.9646    3.1152    0.0000 Cl  0  0  0  0  0  0  0  0  0  0  0  0
    1.3222    5.5902    0.0000 N   0  0  0  0  0  0  0  0  0  0  0  0
    0.6078    4.3527    0.0000 N   0  0  0  0  0  0  0  0  0  0  0  0
    2.0367    4.3527    0.0000 O   0  0  0  0  0  0  0  0  0  0  0  0
  2  1  2  0  0  0  0
  3  1  1  0  0  0  0
  5  4  1  0  0  0  0
  6  2  1  0  0  0  0
  7  3  2  0  0  0  0
  8  4  1  0  0  0  0
  9  5  1  0  0  0  0
 12 10  1  0  0  0  0
 13 11  2  0  0  0  0
 15 10  2  0  0  0  0
 15 11  1  0  0  0  0
 15 14  1  0  0  0  0
 16 12  2  0  0  0  0
 16 13  1  0  0  0  0
 17  6  2  0  0  0  0
 17  7  1  0  0  0  0
 18  8  1  0  0  0  0
 18  9  1  0  0  0  0
 20 16  1  0  0  0  0
 21 17  1  4  0  0  0
 21 19  2  0  0  0  0
 22 14  1  0  0  0  0
 22 18  1  0  0  0  0
 22 19  1  0  0  0  0
 23 19  1  0  0  0  0
M  END