791
  Mrv0541 07281413492D          

 34 36  0  0  1  0            999 V2000
    5.3313   -2.0698    0.0000 C   0  0  0  0  0  0  0  0  0  0  0  0
    4.0673   -2.0698    0.0000 C   0  0  0  0  0  0  0  0  0  0  0  0
   -2.8579   -1.6500    0.0000 C   0  0  0  0  0  0  0  0  0  0  0  0
   -2.1434   -2.0625    0.0000 C   0  0  0  0  0  0  0  0  0  0  0  0
   -2.8579   -0.8250    0.0000 C   0  0  0  0  0  0  0  0  0  0  0  0
    0.7145   -2.0625    0.0000 C   0  0  0  0  0  0  0  0  0  0  0  0
    1.4289   -1.6500    0.0000 C   0  0  0  0  0  0  0  0  0  0  0  0
   -1.4289   -1.6500    0.0000 C   0  0  0  0  0  0  0  0  0  0  0  0
   -2.1434   -0.4125    0.0000 C   0  0  0  0  0  0  0  0  0  0  0  0
    0.0000   -1.6500    0.0000 C   0  0  0  0  0  0  0  0  0  0  0  0
    0.7145   -0.4125    0.0000 C   0  0  0  0  0  0  0  0  0  0  0  0
    2.1434    0.4125    0.0000 C   0  0  0  0  0  0  0  0  0  0  0  0
    1.4289   -0.8250    0.0000 C   0  0  0  0  0  0  0  0  0  0  0  0
   -1.4289   -0.8250    0.0000 C   0  0  0  0  0  0  0  0  0  0  0  0
   -0.0000   -0.8250    0.0000 C   0  0  0  0  0  0  0  0  0  0  0  0
    2.1434   -0.4125    0.0000 C   0  0  2  0  0  0  0  0  0  0  0  0
    5.1118   -0.8250    0.0000 C   0  0  2  0  0  0  0  0  0  0  0  0
    4.2868   -0.8250    0.0000 C   0  0  1  0  0  0  0  0  0  0  0  0
    5.8263   -0.4125    0.0000 C   0  0  0  0  0  0  0  0  0  0  0  0
    3.5724   -0.4125    0.0000 C   0  0  0  0  0  0  0  0  0  0  0  0
    4.6993   -1.5395    0.0000 C   0  0  0  0  0  0  0  0  0  0  0  0
    5.8263    0.4125    0.0000 C   0  0  0  0  0  0  0  0  0  0  0  0
    6.5408   -0.8250    0.0000 Br  0  0  0  0  0  0  0  0  0  0  0  0
    5.8263    1.2375    0.0000 Br  0  0  0  0  0  0  0  0  0  0  0  0
    6.6513    0.4125    0.0000 Br  0  0  0  0  0  0  0  0  0  0  0  0
    5.0013    0.4125    0.0000 Br  0  0  0  0  0  0  0  0  0  0  0  0
    2.1434    1.2375    0.0000 N   0  0  0  0  0  0  0  0  0  0  0  0
    3.5724    0.4125    0.0000 O   0  0  0  0  0  0  0  0  0  0  0  0
   -0.7145   -0.4125    0.0000 O   0  0  0  0  0  0  0  0  0  0  0  0
    2.8579   -0.8250    0.0000 O   0  0  0  0  0  0  0  0  0  0  0  0
    1.4289   -0.0000    0.0000 H   0  0  0  0  0  0  0  0  0  0  0  0
    4.8983   -0.0281    0.0000 H   0  0  0  0  0  0  0  0  0  0  0  0
    4.2149   -0.0031    0.0000 H   0  0  0  0  0  0  0  0  0  0  0  0
    5.2960    0.2195    0.0000 H   0  0  0  0  0  0  0  0  0  0  0  0
  4  3  2  0  0  0  0
  5  3  1  0  0  0  0
  7  6  2  0  0  0  0
  8  4  1  0  0  0  0
  9  5  2  0  0  0  0
 10  6  1  0  0  0  0
 13  7  1  0  0  0  0
 13 11  2  0  0  0  0
 14  8  2  0  0  0  0
 14  9  1  0  0  0  0
 15 10  2  0  0  0  0
 15 11  1  0  0  0  0
 16 12  1  0  0  0  0
 16 13  1  0  0  0  0
 18 17  1  0  0  0  0
 17 19  1  6  0  0  0
 18 20  1  6  0  0  0
 21  1  1  0  0  0  0
 21  2  1  0  0  0  0
 21 17  1  0  0  0  0
 21 18  1  0  0  0  0
 22 19  1  0  0  0  0
 23 19  1  0  0  0  0
 24 22  1  0  0  0  0
 25 22  1  0  0  0  0
 26 22  1  0  0  0  0
 27 12  3  0  0  0  0
 28 20  2  0  0  0  0
 29 14  1  0  0  0  0
 29 15  1  0  0  0  0
 16 30  1  6  0  0  0
 30 20  1  0  0  0  0
 16 31  1  6  0  0  0
 17 32  1  1  0  0  0
 18 33  1  1  0  0  0
 34 19  1  0  0  0  0
M  END