793
  Mrv0541 07281413492D          

 25 26  0  0  0  0            999 V2000
   -5.0013   -1.2375    0.0000 C   0  0  0  0  0  0  0  0  0  0  0  0
   -7.1447   -2.4750    0.0000 C   0  0  0  0  0  0  0  0  0  0  0  0
   -5.7158   -4.9500    0.0000 C   0  0  0  0  0  0  0  0  0  0  0  0
   -3.5724    2.8875    0.0000 C   0  0  0  0  0  0  0  0  0  0  0  0
   -2.7474    2.0625    0.0000 C   0  0  0  0  0  0  0  0  0  0  0  0
   -4.3974    2.0625    0.0000 C   0  0  0  0  0  0  0  0  0  0  0  0
   -2.8579    0.0000    0.0000 C   0  0  0  0  0  0  0  0  0  0  0  0
   -4.2868    0.0000    0.0000 C   0  0  0  0  0  0  0  0  0  0  0  0
   -2.8579    0.8250    0.0000 C   0  0  0  0  0  0  0  0  0  0  0  0
   -4.2868    0.8250    0.0000 C   0  0  0  0  0  0  0  0  0  0  0  0
   -3.5724   -1.2375    0.0000 C   0  0  0  0  0  0  0  0  0  0  0  0
   -4.2868   -2.4750    0.0000 C   0  0  0  0  0  0  0  0  0  0  0  0
   -5.7158   -2.4750    0.0000 C   0  0  0  0  0  0  0  0  0  0  0  0
   -5.0013   -3.7125    0.0000 C   0  0  0  0  0  0  0  0  0  0  0  0
   -4.2868   -1.6500    0.0000 C   0  0  0  0  0  0  0  0  0  0  0  0
   -6.4302   -2.8875    0.0000 C   0  0  1  0  0  0  0  0  0  0  0  0
   -5.7158   -4.1250    0.0000 C   0  0  2  0  0  0  0  0  0  0  0  0
   -3.5724   -0.4125    0.0000 C   0  0  0  0  0  0  0  0  0  0  0  0
   -3.5724    1.2375    0.0000 C   0  0  0  0  0  0  0  0  0  0  0  0
   -3.5724    2.0625    0.0000 C   0  0  0  0  0  0  0  0  0  0  0  0
   -5.0013   -2.8875    0.0000 N   0  0  0  0  0  0  0  0  0  0  0  0
   -6.4302   -3.7125    0.0000 O   0  0  0  0  0  0  0  0  0  0  0  0
   -4.2868   -0.8250    0.0000 H   0  0  0  0  0  0  0  0  0  0  0  0
   -6.4302   -2.0625    0.0000 H   0  0  0  0  0  0  0  0  0  0  0  0
   -5.0013   -4.5375    0.0000 H   0  0  0  0  0  0  0  0  0  0  0  0
  9  7  1  0  0  0  0
 10  8  2  0  0  0  0
 15  1  1  0  0  0  0
 15 11  1  0  0  0  0
 15 12  1  0  0  0  0
 16  2  1  1  0  0  0
 16 13  1  0  0  0  0
 17  3  1  1  0  0  0
 17 14  1  0  0  0  0
 18  7  2  0  0  0  0
 18  8  1  0  0  0  0
 18 11  1  0  0  0  0
 19  9  2  0  0  0  0
 19 10  1  0  0  0  0
 20  4  1  0  0  0  0
 20  5  1  0  0  0  0
 20  6  1  0  0  0  0
 20 19  1  0  0  0  0
 21 12  1  0  0  0  0
 21 13  1  0  0  0  0
 21 14  1  0  0  0  0
 22 16  1  0  0  0  0
 22 17  1  0  0  0  0
 23 15  1  0  0  0  0
 16 24  1  6  0  0  0
 17 25  1  6  0  0  0
M  END