794
  Mrv0541 07281413492D          

 23 24  0  0  0  0            999 V2000
    1.6204    4.0145    0.0000 C   0  0  0  0  0  0  0  0  0  0  0  0
    2.0329    3.3000    0.0000 C   0  0  0  0  0  0  0  0  0  0  0  0
    0.7633    1.4586    0.0000 C   0  0  0  0  0  0  0  0  0  0  0  0
    2.8579    3.3000    0.0000 C   0  0  0  0  0  0  0  0  0  0  0  0
    1.5480    1.2036    0.0000 C   0  0  0  0  0  0  0  0  0  0  0  0
    4.0954    2.5855    0.0000 C   0  0  0  0  0  0  0  0  0  0  0  0
    4.5079    3.3000    0.0000 C   0  0  0  0  0  0  0  0  0  0  0  0
    6.9829    4.7289    0.0000 C   0  0  0  0  0  0  0  0  0  0  0  0
    5.7454    5.4434    0.0000 C   0  0  0  0  0  0  0  0  0  0  0  0
    1.5480    2.5385    0.0000 C   0  0  0  0  0  0  0  0  0  0  0  0
    6.5704    5.4434    0.0000 C   0  0  0  0  0  0  0  0  0  0  0  0
    6.5704    4.0145    0.0000 C   0  0  0  0  0  0  0  0  0  0  0  0
    5.3329    4.7289    0.0000 C   0  0  0  0  0  0  0  0  0  0  0  0
    5.7454    4.0145    0.0000 C   0  0  0  0  0  0  0  0  0  0  0  0
    2.8579    1.8711    0.0000 C   0  0  0  0  0  0  0  0  0  0  0  0
    6.9829    6.1579    0.0000 Cl  0  0  0  0  0  0  0  0  0  0  0  0
    6.9829    3.3000    0.0000 Cl  0  0  0  0  0  0  0  0  0  0  0  0
    4.5079    4.7289    0.0000 Cl  0  0  0  0  0  0  0  0  0  0  0  0
    0.7633    2.2836    0.0000 N   0  0  0  0  0  0  0  0  0  0  0  0
    3.2704    2.5855    0.0000 N   0  0  0  0  0  0  0  0  0  0  0  0
    2.0329    1.8711    0.0000 N   0  0  0  0  0  0  0  0  0  0  0  0
    3.2704    1.1566    0.0000 O   0  0  0  0  0  0  0  0  0  0  0  0
    5.3329    3.3000    0.0000 O   0  0  0  0  0  0  0  0  0  0  0  0
  2  1  1  0  0  0  0
  4  2  1  0  0  0  0
  5  3  2  0  0  0  0
  7  6  1  0  0  0  0
 11  8  2  0  0  0  0
 11  9  1  0  0  0  0
 12  8  1  0  0  0  0
 13  9  2  0  0  0  0
 14 12  2  0  0  0  0
 14 13  1  0  0  0  0
 16 11  1  0  0  0  0
 17 12  1  0  0  0  0
 18 13  1  0  0  0  0
 19  3  1  0  0  0  0
 19 10  2  0  0  0  0
 20  4  1  0  0  0  0
 20  6  1  0  0  0  0
 20 15  1  0  0  0  0
 21  5  1  0  0  0  0
 21 10  1  0  0  0  0
 21 15  1  0  0  0  0
 22 15  2  0  0  0  0
 23  7  1  0  0  0  0
 23 14  1  0  0  0  0
M  END