796
  Mrv0541 07281413492D          

 29 31  0  0  0  0            999 V2000
    2.4734   -0.4198    0.0000 C   0  0  0  0  0  0  0  0  0  0  0  0
    1.2095   -0.4198    0.0000 C   0  0  0  0  0  0  0  0  0  0  0  0
   -4.2868   -2.4750    0.0000 C   0  0  0  0  0  0  0  0  0  0  0  0
   -3.5724   -2.8875    0.0000 C   0  0  0  0  0  0  0  0  0  0  0  0
   -4.2868   -1.6500    0.0000 C   0  0  0  0  0  0  0  0  0  0  0  0
   -2.8579   -2.4750    0.0000 C   0  0  0  0  0  0  0  0  0  0  0  0
   -3.5724   -1.2375    0.0000 C   0  0  0  0  0  0  0  0  0  0  0  0
   -2.1434    1.2375    0.0000 C   0  0  0  0  0  0  0  0  0  0  0  0
   -2.8579    0.8250    0.0000 C   0  0  0  0  0  0  0  0  0  0  0  0
   -1.4289    0.0000    0.0000 C   0  0  0  0  0  0  0  0  0  0  0  0
    2.9684    1.2375    0.0000 C   0  0  0  0  0  0  0  0  0  0  0  0
   -0.7145    2.0625    0.0000 C   0  0  0  0  0  0  0  0  0  0  0  0
   -1.4289    0.8250    0.0000 C   0  0  0  0  0  0  0  0  0  0  0  0
   -2.8579   -1.6500    0.0000 C   0  0  0  0  0  0  0  0  0  0  0  0
    2.2539    0.8250    0.0000 C   0  0  0  0  0  0  0  0  0  0  0  0
   -2.8579    0.0000    0.0000 C   0  0  0  0  0  0  0  0  0  0  0  0
   -2.1434   -0.4125    0.0000 C   0  0  0  0  0  0  0  0  0  0  0  0
   -0.7145    1.2375    0.0000 C   0  0  0  0  0  0  0  0  0  0  0  0
    3.6829    0.8250    0.0000 C   0  0  0  0  0  0  0  0  0  0  0  0
    1.4289    0.8250    0.0000 C   0  0  0  0  0  0  0  0  0  0  0  0
    0.7145    1.2375    0.0000 C   0  0  0  0  0  0  0  0  0  0  0  0
    1.8414    0.1105    0.0000 C   0  0  0  0  0  0  0  0  0  0  0  0
    4.3974    1.2375    0.0000 Cl  0  0  0  0  0  0  0  0  0  0  0  0
    3.6829   -0.0000    0.0000 Cl  0  0  0  0  0  0  0  0  0  0  0  0
   -3.5724   -0.4125    0.0000 F   0  0  0  0  0  0  0  0  0  0  0  0
   -0.7145    2.8875    0.0000 N   0  0  0  0  0  0  0  0  0  0  0  0
    0.7145    2.0625    0.0000 O   0  0  0  0  0  0  0  0  0  0  0  0
   -2.1434   -1.2375    0.0000 O   0  0  0  0  0  0  0  0  0  0  0  0
    0.0000    0.8250    0.0000 O   0  0  0  0  0  0  0  0  0  0  0  0
  4  3  2  0  0  0  0
  5  3  1  0  0  0  0
  6  4  1  0  0  0  0
  7  5  2  0  0  0  0
  9  8  2  0  0  0  0
 13  8  1  0  0  0  0
 13 10  2  0  0  0  0
 14  6  2  0  0  0  0
 14  7  1  0  0  0  0
 15 11  1  0  0  0  0
 16  9  1  0  0  0  0
 17 10  1  0  0  0  0
 17 16  2  0  0  0  0
 18 12  1  0  0  0  0
 18 13  1  0  0  0  0
 19 11  2  0  0  0  0
 20 15  1  0  0  0  0
 21 20  1  0  0  0  0
 22  1  1  0  0  0  0
 22  2  1  0  0  0  0
 22 15  1  0  0  0  0
 22 20  1  0  0  0  0
 23 19  1  0  0  0  0
 24 19  1  0  0  0  0
 25 16  1  0  0  0  0
 26 12  3  0  0  0  0
 27 21  2  0  0  0  0
 28 14  1  0  0  0  0
 28 17  1  0  0  0  0
 29 18  1  0  0  0  0
 29 21  1  0  0  0  0
M  END