798
  Mrv0541 07281413492D          

 33 35  0  0  0  0            999 V2000
    1.8711    3.3000    0.0000 C   0  0  0  0  0  0  0  0  0  0  0  0
    0.6336    2.5855    0.0000 C   0  0  0  0  0  0  0  0  0  0  0  0
   -5.1414   -0.2724    0.0000 C   0  0  0  0  0  0  0  0  0  0  0  0
   -4.3164   -0.2724    0.0000 C   0  0  0  0  0  0  0  0  0  0  0  0
   -5.5539    0.4421    0.0000 C   0  0  0  0  0  0  0  0  0  0  0  0
   -1.8414    1.1566    0.0000 C   0  0  0  0  0  0  0  0  0  0  0  0
   -1.4289    1.8711    0.0000 C   0  0  0  0  0  0  0  0  0  0  0  0
   -3.9039    0.4421    0.0000 C   0  0  0  0  0  0  0  0  0  0  0  0
   -5.1414    1.1566    0.0000 C   0  0  0  0  0  0  0  0  0  0  0  0
   -2.6664    1.1566    0.0000 C   0  0  0  0  0  0  0  0  0  0  0  0
    1.8711    4.7289    0.0000 C   0  0  0  0  0  0  0  0  0  0  0  0
    0.6336    5.4434    0.0000 C   0  0  0  0  0  0  0  0  0  0  0  0
    2.2836    5.4434    0.0000 C   0  0  0  0  0  0  0  0  0  0  0  0
    1.0461    6.1579    0.0000 C   0  0  0  0  0  0  0  0  0  0  0  0
   -2.6664    2.5855    0.0000 C   0  0  0  0  0  0  0  0  0  0  0  0
   -1.8414    4.0145    0.0000 C   0  0  0  0  0  0  0  0  0  0  0  0
    1.0461    3.3000    0.0000 C   0  0  0  0  0  0  0  0  0  0  0  0
    1.0461    4.7289    0.0000 C   0  0  0  0  0  0  0  0  0  0  0  0
   -1.8414    2.5855    0.0000 C   0  0  0  0  0  0  0  0  0  0  0  0
   -4.3164    1.1566    0.0000 C   0  0  0  0  0  0  0  0  0  0  0  0
    1.8711    6.1579    0.0000 C   0  0  0  0  0  0  0  0  0  0  0  0
   -3.0789    1.8711    0.0000 C   0  0  0  0  0  0  0  0  0  0  0  0
   -1.4289    3.3000    0.0000 C   0  0  0  0  0  0  0  0  0  0  0  0
    0.6336    4.0145    0.0000 C   0  0  0  0  0  0  0  0  0  0  0  0
   -0.1914    4.0145    0.0000 C   0  0  0  0  0  0  0  0  0  0  0  0
    3.1086    6.8724    0.0000 C   0  0  0  0  0  0  0  0  0  0  0  0
    3.5211    7.5868    0.0000 F   0  0  0  0  0  0  0  0  0  0  0  0
    3.5211    6.1579    0.0000 F   0  0  0  0  0  0  0  0  0  0  0  0
   -2.2539    4.7289    0.0000 N   0  0  0  0  0  0  0  0  0  0  0  0
   -0.6039    4.7289    0.0000 O   0  0  0  0  0  0  0  0  0  0  0  0
   -3.9039    1.8711    0.0000 O   0  0  0  0  0  0  0  0  0  0  0  0
    2.2836    6.8724    0.0000 O   0  0  0  0  0  0  0  0  0  0  0  0
   -0.6039    3.3000    0.0000 O   0  0  0  0  0  0  0  0  0  0  0  0
  4  3  2  0  0  0  0
  5  3  1  0  0  0  0
  7  6  2  0  0  0  0
  8  4  1  0  0  0  0
  9  5  2  0  0  0  0
 10  6  1  0  0  0  0
 13 11  1  0  0  0  0
 14 12  2  0  0  0  0
 17  1  1  0  0  0  0
 17  2  1  0  0  0  0
 18 11  2  0  0  0  0
 18 12  1  0  0  0  0
 19  7  1  0  0  0  0
 19 15  2  0  0  0  0
 20  8  2  0  0  0  0
 20  9  1  0  0  0  0
 21 13  2  0  0  0  0
 21 14  1  0  0  0  0
 22 10  2  0  0  0  0
 22 15  1  0  0  0  0
 23 16  1  0  0  0  0
 23 19  1  0  0  0  0
 24 17  1  0  0  0  0
 24 18  1  0  0  0  0
 25 24  1  0  0  0  0
 27 26  1  0  0  0  0
 28 26  1  0  0  0  0
 29 16  3  0  0  0  0
 30 25  2  0  0  0  0
 31 20  1  0  0  0  0
 31 22  1  0  0  0  0
 32 21  1  0  0  0  0
 32 26  1  0  0  0  0
 33 23  1  0  0  0  0
 33 25  1  0  0  0  0
M  END