800
  Mrv0541 07281413492D          

 19 19  0  0  0  0            999 V2000
    0.7145   -1.2375    0.0000 C   0  0  0  0  0  0  0  0  0  0  0  0
    2.1434    3.7125    0.0000 C   0  0  0  0  0  0  0  0  0  0  0  0
    2.8579    2.4750    0.0000 C   0  0  0  0  0  0  0  0  0  0  0  0
    1.4289    0.0000    0.0000 C   0  0  0  0  0  0  0  0  0  0  0  0
   -0.0000    0.0000    0.0000 C   0  0  0  0  0  0  0  0  0  0  0  0
    1.4289    0.8250    0.0000 C   0  0  0  0  0  0  0  0  0  0  0  0
   -0.0000    0.8250    0.0000 C   0  0  0  0  0  0  0  0  0  0  0  0
    0.7145   -0.4125    0.0000 C   0  0  0  0  0  0  0  0  0  0  0  0
    0.7145    1.2375    0.0000 C   0  0  0  0  0  0  0  0  0  0  0  0
   -0.7145    2.0625    0.0000 C   0  0  0  0  0  0  0  0  0  0  0  0
   -1.4289    1.6500    0.0000 Cl  0  0  0  0  0  0  0  0  0  0  0  0
   -1.1270    2.7770    0.0000 Cl  0  0  0  0  0  0  0  0  0  0  0  0
   -0.3020    1.3480    0.0000 F   0  0  0  0  0  0  0  0  0  0  0  0
    2.1434    2.8875    0.0000 N   0  0  0  0  0  0  0  0  0  0  0  0
    0.7145    2.0625    0.0000 N   0  0  0  0  0  0  0  0  0  0  0  0
    1.8414    1.7605    0.0000 O   0  0  0  0  0  0  0  0  0  0  0  0
    1.0164    3.1895    0.0000 O   0  0  0  0  0  0  0  0  0  0  0  0
   -0.0000    2.4750    0.0000 S   0  0  0  0  0  0  0  0  0  0  0  0
    1.4289    2.4750    0.0000 S   0  0  0  0  0  0  0  0  0  0  0  0
  6  4  1  0  0  0  0
  7  5  2  0  0  0  0
  8  1  1  0  0  0  0
  8  4  2  0  0  0  0
  8  5  1  0  0  0  0
  9  6  2  0  0  0  0
  9  7  1  0  0  0  0
 11 10  1  0  0  0  0
 12 10  1  0  0  0  0
 13 10  1  0  0  0  0
 14  2  1  0  0  0  0
 14  3  1  0  0  0  0
 15  9  1  0  0  0  0
 18 10  1  0  0  0  0
 18 15  1  0  0  0  0
 19 14  1  0  0  0  0
 19 15  1  0  0  0  0
 19 16  2  0  0  0  0
 19 17  2  0  0  0  0
M  END