803
  Mrv0541 07281413492D          

 10 12  0  0  0  0            999 V2000
    2.9083   -2.3296    0.0000 C   0  0  0  0  0  0  0  0  0  0  0  0
    2.7546   -1.5191    0.0000 C   0  0  0  0  0  0  0  0  0  0  0  0
    2.1849   -2.7263    0.0000 C   0  0  0  0  0  0  0  0  0  0  0  0
    0.5004   -1.3997    0.0000 C   0  0  0  0  0  0  0  0  0  0  0  0
    0.1351   -2.0602    0.0000 C   0  0  0  0  0  0  0  0  0  0  0  0
    0.9807   -0.1341    0.0000 C   0  0  0  0  0  0  0  0  0  0  0  0
    1.1407   -0.9495    0.0000 C   0  0  0  0  0  0  0  0  0  0  0  0
    0.9106   -1.6699    0.0000 C   0  0  0  0  0  0  0  0  0  0  0  0
    1.9362   -1.4148    0.0000 C   0  0  0  0  0  0  0  0  0  0  0  0
    1.5841   -2.1609    0.0000 C   0  0  0  0  0  0  0  0  0  0  0  0
  2  1  2  0  0  0  0
  3  1  1  0  0  0  0
  5  4  2  0  0  0  0
  7  4  1  0  0  0  0
  7  6  1  0  0  0  0
  8  5  1  0  0  0  0
  8  6  1  0  0  0  0
  9  2  1  0  0  0  0
  9  7  1  0  0  0  0
 10  3  1  0  0  0  0
 10  8  1  0  0  0  0
 10  9  1  0  0  0  0
M  END