804
  Mrv0541 07281413492D          

 17 16  0  0  0  0            999 V2000
    6.5704    2.1434    0.0000 C   0  0  0  0  0  0  0  0  0  0  0  0
    0.7954   -2.1434    0.0000 C   0  0  0  0  0  0  0  0  0  0  0  0
    0.1105    0.4125    0.0000 C   0  0  0  0  0  0  0  0  0  0  0  0
    6.1579    1.4289    0.0000 C   0  0  0  0  0  0  0  0  0  0  0  0
    1.2079   -1.4289    0.0000 C   0  0  0  0  0  0  0  0  0  0  0  0
    0.8250   -0.0000    0.0000 C   0  0  0  0  0  0  0  0  0  0  0  0
    5.3329    1.4289    0.0000 C   0  0  0  0  0  0  0  0  0  0  0  0
    2.0329   -1.4289    0.0000 C   0  0  0  0  0  0  0  0  0  0  0  0
    1.5395    0.4125    0.0000 C   0  0  0  0  0  0  0  0  0  0  0  0
    4.9204    0.7145    0.0000 C   0  0  0  0  0  0  0  0  0  0  0  0
    2.4454   -0.7145    0.0000 C   0  0  0  0  0  0  0  0  0  0  0  0
    2.2539   -0.0000    0.0000 C   0  0  0  0  0  0  0  0  0  0  0  0
    4.3974   -0.4125    0.0000 O   0  0  0  0  0  0  0  0  0  0  0  0
    3.6829   -0.0000    0.0000 P   0  0  0  0  0  0  0  0  0  0  0  0
    4.0954    0.7145    0.0000 S   0  0  0  0  0  0  0  0  0  0  0  0
    3.2704   -0.7145    0.0000 S   0  0  0  0  0  0  0  0  0  0  0  0
    2.9684    0.4125    0.0000 S   0  0  0  0  0  0  0  0  0  0  0  0
  4  1  1  0  0  0  0
  5  2  1  0  0  0  0
  6  3  1  0  0  0  0
  7  4  1  0  0  0  0
  8  5  1  0  0  0  0
  9  6  1  0  0  0  0
 10  7  1  0  0  0  0
 11  8  1  0  0  0  0
 12  9  1  0  0  0  0
 14 13  2  0  0  0  0
 15 10  1  0  0  0  0
 15 14  1  0  0  0  0
 16 11  1  0  0  0  0
 16 14  1  0  0  0  0
 17 12  1  0  0  0  0
 17 14  1  0  0  0  0
M  END