805
  Mrv0541 07281413492D          

 18 18  0  0  0  0            999 V2000
   -2.3645    2.2836    0.0000 C   0  0  0  0  0  0  0  0  0  0  0  0
    0.9355    5.1414    0.0000 C   0  0  0  0  0  0  0  0  0  0  0  0
   -1.9520    2.9980    0.0000 C   0  0  0  0  0  0  0  0  0  0  0  0
    0.5230    4.4270    0.0000 C   0  0  0  0  0  0  0  0  0  0  0  0
    1.4289    0.0000    0.0000 C   0  0  0  0  0  0  0  0  0  0  0  0
   -0.0000    0.0000    0.0000 C   0  0  0  0  0  0  0  0  0  0  0  0
    1.4289    0.8250    0.0000 C   0  0  0  0  0  0  0  0  0  0  0  0
   -0.0000    0.8250    0.0000 C   0  0  0  0  0  0  0  0  0  0  0  0
   -0.0000    2.4750    0.0000 C   0  0  0  0  0  0  0  0  0  0  0  0
    0.7145   -0.4125    0.0000 C   0  0  0  0  0  0  0  0  0  0  0  0
    0.7145    1.2375    0.0000 C   0  0  0  0  0  0  0  0  0  0  0  0
    0.7145   -1.2375    0.0000 Cl  0  0  0  0  0  0  0  0  0  0  0  0
   -1.1270    2.9980    0.0000 O   0  0  0  0  0  0  0  0  0  0  0  0
   -0.3020    4.4270    0.0000 O   0  0  0  0  0  0  0  0  0  0  0  0
   -0.7145    3.7125    0.0000 P   0  0  0  0  0  0  0  0  0  0  0  0
   -1.4289    4.1250    0.0000 S   0  0  0  0  0  0  0  0  0  0  0  0
    0.7145    2.0625    0.0000 S   0  0  0  0  0  0  0  0  0  0  0  0
   -0.0000    3.3000    0.0000 S   0  0  0  0  0  0  0  0  0  0  0  0
  3  1  1  0  0  0  0
  4  2  1  0  0  0  0
  7  5  1  0  0  0  0
  8  6  2  0  0  0  0
 10  5  2  0  0  0  0
 10  6  1  0  0  0  0
 11  7  2  0  0  0  0
 11  8  1  0  0  0  0
 12 10  1  0  0  0  0
 13  3  1  0  0  0  0
 14  4  1  0  0  0  0
 15 13  1  0  0  0  0
 15 14  1  0  0  0  0
 16 15  2  0  0  0  0
 17  9  1  0  0  0  0
 17 11  1  0  0  0  0
 18  9  1  0  0  0  0
 18 15  1  0  0  0  0
M  END