807
  Mrv0541 07281413492D          

 25 26  0  0  0  0            999 V2000
   -1.6596   -6.2901    0.0000 C   0  0  0  0  0  0  0  0  0  0  0  0
    3.5724   -1.2375    0.0000 C   0  0  0  0  0  0  0  0  0  0  0  0
   -4.1850   -4.7184    0.0000 C   0  0  0  0  0  0  0  0  0  0  0  0
    2.4454   -4.5695    0.0000 C   0  0  0  0  0  0  0  0  0  0  0  0
    3.2704   -4.5695    0.0000 C   0  0  0  0  0  0  0  0  0  0  0  0
   -1.8312   -5.4832    0.0000 C   0  0  0  0  0  0  0  0  0  0  0  0
    2.1904   -3.7849    0.0000 C   0  0  0  0  0  0  0  0  0  0  0  0
    2.8579   -3.3000    0.0000 C   0  0  0  0  0  0  0  0  0  0  0  0
    2.8579   -2.4750    0.0000 C   0  0  0  0  0  0  0  0  0  0  0  0
   -1.3896   -4.1242    0.0000 C   0  0  0  0  0  0  0  0  0  0  0  0
    0.0081   -3.8271    0.0000 C   0  0  0  0  0  0  0  0  0  0  0  0
   -2.7873   -4.4213    0.0000 C   0  0  0  0  0  0  0  0  0  0  0  0
   -1.2181   -4.9311    0.0000 N   0  0  0  0  0  0  0  0  0  0  0  0
   -2.6158   -5.2282    0.0000 N   0  0  0  0  0  0  0  0  0  0  0  0
   -0.7765   -3.5721    0.0000 N   0  0  0  0  0  0  0  0  0  0  0  0
   -2.1742   -3.8692    0.0000 N   0  0  0  0  0  0  0  0  0  0  0  0
    0.6212   -3.2750    0.0000 N   0  0  0  0  0  0  0  0  0  0  0  0
    2.1434   -2.0625    0.0000 O   0  0  0  0  0  0  0  0  0  0  0  0
    0.1796   -4.6340    0.0000 O   0  0  0  0  0  0  0  0  0  0  0  0
    1.6608   -2.7454    0.0000 O   0  0  0  0  0  0  0  0  0  0  0  0
    1.1509   -4.3146    0.0000 O   0  0  0  0  0  0  0  0  0  0  0  0
    3.5724   -2.0625    0.0000 O   0  0  0  0  0  0  0  0  0  0  0  0
   -3.5719   -4.1663    0.0000 O   0  0  0  0  0  0  0  0  0  0  0  0
    3.5253   -3.7849    0.0000 S   0  0  0  0  0  0  0  0  0  0  0  0
    1.4058   -3.5300    0.0000 S   0  0  0  0  0  0  0  0  0  0  0  0
  5  4  2  0  0  0  0
  6  1  1  0  0  0  0
  7  4  1  0  0  0  0
  8  7  2  0  0  0  0
  9  8  1  0  0  0  0
 13  6  2  0  0  0  0
 13 10  1  0  0  0  0
 14  6  1  0  0  0  0
 14 12  2  0  0  0  0
 15 10  2  0  0  0  0
 15 11  1  4  0  0  0
 16 10  1  0  0  0  0
 16 12  1  0  0  0  0
 17 11  2  0  0  0  0
 18  9  2  0  0  0  0
 19 11  1  0  0  0  0
 22  2  1  0  0  0  0
 22  9  1  0  0  0  0
 23  3  1  0  0  0  0
 23 12  1  0  0  0  0
 24  5  1  0  0  0  0
 24  8  1  0  0  0  0
 25  7  1  0  0  0  0
 17 25  1  4  0  0  0
 25 20  2  0  0  0  0
 25 21  2  0  0  0  0
M  END