811
  Mrv0541 07281413492D          

 16 17  0  0  0  0            999 V2000
    2.5887    4.1408    0.0000 C   0  0  0  0  0  0  0  0  0  0  0  0
    1.4847    4.1408    0.0000 C   0  0  0  0  0  0  0  0  0  0  0  0
    1.3255   -0.5841    0.0000 C   0  0  0  0  0  0  0  0  0  0  0  0
    2.1460   -0.6703    0.0000 C   0  0  0  0  0  0  0  0  0  0  0  0
    0.9899    0.1696    0.0000 C   0  0  0  0  0  0  0  0  0  0  0  0
    2.6309   -0.0029    0.0000 C   0  0  0  0  0  0  0  0  0  0  0  0
    1.1393    1.5907    0.0000 C   0  0  0  0  0  0  0  0  0  0  0  0
    2.7041    3.0428    0.0000 C   0  0  0  0  0  0  0  0  0  0  0  0
    1.4748    0.8370    0.0000 C   0  0  0  0  0  0  0  0  0  0  0  0
    2.2953    0.7508    0.0000 C   0  0  0  0  0  0  0  0  0  0  0  0
    1.3693    3.0428    0.0000 C   0  0  0  0  0  0  0  0  0  0  0  0
    2.0367    3.5277    0.0000 C   0  0  0  0  0  0  0  0  0  0  0  0
    2.7802    1.4182    0.0000 Cl  0  0  0  0  0  0  0  0  0  0  0  0
    1.6242    2.2581    0.0000 N   0  0  0  0  0  0  0  0  0  0  0  0
    0.5846    3.2977    0.0000 O   0  0  0  0  0  0  0  0  0  0  0  0
    2.4492    2.2581    0.0000 O   0  0  0  0  0  0  0  0  0  0  0  0
  4  3  2  0  0  0  0
  5  3  1  0  0  0  0
  6  4  1  0  0  0  0
  9  5  2  0  0  0  0
  9  7  1  0  0  0  0
 10  6  2  0  0  0  0
 10  9  1  0  0  0  0
 12  1  1  0  0  0  0
 12  2  1  0  0  0  0
 12  8  1  0  0  0  0
 12 11  1  0  0  0  0
 13 10  1  0  0  0  0
 14  7  1  0  0  0  0
 14 11  1  0  0  0  0
 15 11  2  0  0  0  0
 16  8  1  0  0  0  0
 16 14  1  0  0  0  0
M  END