812
  Mrv0541 07281413492D          

 24 25  0  0  0  0            999 V2000
    2.7512    5.5902    0.0000 C   0  0  0  0  0  0  0  0  0  0  0  0
    4.7031    3.6382    0.0000 C   0  0  0  0  0  0  0  0  0  0  0  0
    2.6406    4.3527    0.0000 C   0  0  0  0  0  0  0  0  0  0  0  0
    6.3396    2.5168    0.0000 C   0  0  0  0  0  0  0  0  0  0  0  0
    4.0275    0.8370    0.0000 C   0  0  0  0  0  0  0  0  0  0  0  0
    3.4656    5.1777    0.0000 C   0  0  0  0  0  0  0  0  0  0  0  0
    4.2906    4.3527    0.0000 C   0  0  0  0  0  0  0  0  0  0  0  0
    6.6383   -0.3254    0.0000 C   0  0  0  0  0  0  0  0  0  0  0  0
    6.9739    0.4283    0.0000 C   0  0  0  0  0  0  0  0  0  0  0  0
    5.8178   -0.4116    0.0000 C   0  0  0  0  0  0  0  0  0  0  0  0
    4.1331    3.0428    0.0000 C   0  0  0  0  0  0  0  0  0  0  0  0
    6.4890    1.0957    0.0000 C   0  0  0  0  0  0  0  0  0  0  0  0
    5.3329    0.2558    0.0000 C   0  0  0  0  0  0  0  0  0  0  0  0
    3.4656    3.5277    0.0000 C   0  0  0  0  0  0  0  0  0  0  0  0
    3.8781    2.2581    0.0000 C   0  0  0  0  0  0  0  0  0  0  0  0
    5.6685    1.0095    0.0000 C   0  0  0  0  0  0  0  0  0  0  0  0
    5.1836    1.6769    0.0000 C   0  0  0  0  0  0  0  0  0  0  0  0
    3.4656    4.3527    0.0000 C   0  0  0  0  0  0  0  0  0  0  0  0
    4.3631    1.5907    0.0000 N   0  0  0  0  0  0  0  0  0  0  0  0
    2.7982    3.0428    0.0000 N   0  0  0  0  0  0  0  0  0  0  0  0
    5.5191    2.4306    0.0000 O   0  0  0  0  0  0  0  0  0  0  0  0
    6.8245    1.8494    0.0000 O   0  0  0  0  0  0  0  0  0  0  0  0
    4.5124    0.1696    0.0000 O   0  0  0  0  0  0  0  0  0  0  0  0
    3.0531    2.2581    0.0000 O   0  0  0  0  0  0  0  0  0  0  0  0
  6  1  1  0  0  0  0
  7  2  1  0  0  0  0
  9  8  2  0  0  0  0
 10  8  1  0  0  0  0
 12  9  1  0  0  0  0
 13 10  2  0  0  0  0
 14 11  1  0  0  0  0
 15 11  2  0  0  0  0
 16 12  2  0  0  0  0
 16 13  1  0  0  0  0
 17 16  1  0  0  0  0
 18  3  1  0  0  0  0
 18  6  1  0  0  0  0
 18  7  1  0  0  0  0
 18 14  1  0  0  0  0
 19 15  1  0  0  0  0
 19 17  1  0  0  0  0
 20 14  2  0  0  0  0
 21 17  2  0  0  0  0
 22  4  1  0  0  0  0
 22 12  1  0  0  0  0
 23  5  1  0  0  0  0
 23 13  1  0  0  0  0
 24 15  1  0  0  0  0
 24 20  1  0  0  0  0
M  END