819
  Mrv0541 07281413492D          

 20 22  0  0  0  0            999 V2000
   -1.7138    2.2368    0.0000 C   0  0  0  0  0  0  0  0  0  0  0  0
   -2.8408    0.2849    0.0000 C   0  0  0  0  0  0  0  0  0  0  0  0
   -2.0158    0.2849    0.0000 C   0  0  0  0  0  0  0  0  0  0  0  0
   -1.9053    2.9513    0.0000 C   0  0  0  0  0  0  0  0  0  0  0  0
   -3.1428    3.6658    0.0000 C   0  0  0  0  0  0  0  0  0  0  0  0
   -1.4928    3.6658    0.0000 C   0  0  0  0  0  0  0  0  0  0  0  0
   -2.7303    4.3803    0.0000 C   0  0  0  0  0  0  0  0  0  0  0  0
   -3.8572    2.6493    0.0000 C   0  0  0  0  0  0  0  0  0  0  0  0
   -5.4649    1.2448    0.0000 C   0  0  0  0  0  0  0  0  0  0  0  0
   -5.3254    2.5724    0.0000 C   0  0  0  0  0  0  0  0  0  0  0  0
   -2.4283    1.8243    0.0000 C   0  0  0  0  0  0  0  0  0  0  0  0
   -2.4283    0.9993    0.0000 C   0  0  0  0  0  0  0  0  0  0  0  0
   -2.7303    2.9513    0.0000 C   0  0  0  0  0  0  0  0  0  0  0  0
   -1.9053    4.3803    0.0000 C   0  0  0  0  0  0  0  0  0  0  0  0
   -3.1428    2.2368    0.0000 C   0  0  0  0  0  0  0  0  0  0  0  0
   -1.4928    5.0947    0.0000 Cl  0  0  0  0  0  0  0  0  0  0  0  0
   -5.8774    1.9593    0.0000 N   0  0  0  0  0  0  0  0  0  0  0  0
   -4.6579    1.4164    0.0000 N   0  0  0  0  0  0  0  0  0  0  0  0
   -4.5717    2.2368    0.0000 N   0  0  0  0  0  0  0  0  0  0  0  0
   -3.5553    1.5224    0.0000 O   0  0  0  0  0  0  0  0  0  0  0  0
  3  2  1  0  0  0  0
  6  4  1  0  0  0  0
  7  5  2  0  0  0  0
 11  1  1  0  0  0  0
 12  2  1  0  0  0  0
 12  3  1  0  0  0  0
 12 11  1  0  0  0  0
 13  4  2  0  0  0  0
 13  5  1  0  0  0  0
 14  6  2  0  0  0  0
 14  7  1  0  0  0  0
 15  8  1  0  0  0  0
 15 11  1  0  0  0  0
 15 13  1  0  0  0  0
 16 14  1  0  0  0  0
 17  9  1  0  0  0  0
 17 10  2  0  0  0  0
 18  9  2  0  0  0  0
 19  8  1  0  0  0  0
 19 10  1  0  0  0  0
 19 18  1  0  0  0  0
 20 15  1  0  0  0  0
M  END