820
  Mrv0541 07281413492D          

 16 16  0  0  0  0            999 V2000
   -3.0081   -1.0280    0.0000 C   0  0  0  0  0  0  0  0  0  0  0  0
   -1.9884    2.1105    0.0000 C   0  0  0  0  0  0  0  0  0  0  0  0
   -2.4982    0.5412    0.0000 C   0  0  0  0  0  0  0  0  0  0  0  0
   -2.2012   -0.8565    0.0000 C   0  0  0  0  0  0  0  0  0  0  0  0
   -1.1814    2.2820    0.0000 C   0  0  0  0  0  0  0  0  0  0  0  0
    0.1553   -0.1553    0.0000 C   0  0  0  0  0  0  0  0  0  0  0  0
    0.9803   -0.1553    0.0000 C   0  0  0  0  0  0  0  0  0  0  0  0
   -1.9462   -0.0718    0.0000 C   0  0  0  0  0  0  0  0  0  0  0  0
    0.5678    1.1143    0.0000 C   0  0  0  0  0  0  0  0  0  0  0  0
   -0.0997    0.6294    0.0000 N   0  0  0  0  0  0  0  0  0  0  0  0
    0.5678    1.9393    0.0000 O   0  0  0  0  0  0  0  0  0  0  0  0
   -1.6689    1.1392    0.0000 O   0  0  0  0  0  0  0  0  0  0  0  0
   -0.6294    1.6689    0.0000 O   0  0  0  0  0  0  0  0  0  0  0  0
   -0.8843    0.8843    0.0000 P   0  0  0  0  0  0  0  0  0  0  0  0
    1.2352    0.6294    0.0000 S   0  0  0  0  0  0  0  0  0  0  0  0
   -1.1392    0.0997    0.0000 S   0  0  0  0  0  0  0  0  0  0  0  0
  4  1  1  0  0  0  0
  5  2  1  0  0  0  0
  7  6  1  0  0  0  0
  8  3  1  0  0  0  0
  8  4  1  0  0  0  0
 10  6  1  0  0  0  0
 10  9  1  0  0  0  0
 11  9  2  0  0  0  0
 13  5  1  0  0  0  0
 14 10  1  0  0  0  0
 14 12  2  0  0  0  0
 14 13  1  0  0  0  0
 15  7  1  0  0  0  0
 15  9  1  0  0  0  0
 16  8  1  0  0  0  0
 16 14  1  0  0  0  0
M  END