825
  Mrv0541 07281413492D          

 27 30  0  0  0  0            999 V2000
    3.7273   -1.5018    0.0000 C   0  0  0  0  0  0  0  0  0  0  0  0
    7.2040    3.1576    0.0000 C   0  0  0  0  0  0  0  0  0  0  0  0
    6.9069    1.7599    0.0000 C   0  0  0  0  0  0  0  0  0  0  0  0
    6.3970    3.3291    0.0000 C   0  0  0  0  0  0  0  0  0  0  0  0
    6.0999    1.9314    0.0000 C   0  0  0  0  0  0  0  0  0  0  0  0
    3.6790    2.4460    0.0000 C   0  0  0  0  0  0  0  0  0  0  0  0
    3.1270    1.8329    0.0000 C   0  0  0  0  0  0  0  0  0  0  0  0
    4.7409    1.4899    0.0000 C   0  0  0  0  0  0  0  0  0  0  0  0
    2.4174   -0.8343    0.0000 C   0  0  0  0  0  0  0  0  0  0  0  0
    2.2778    1.0483    0.0000 C   0  0  0  0  0  0  0  0  0  0  0  0
    0.1433    1.0163    0.0000 C   0  0  0  0  0  0  0  0  0  0  0  0
    1.1353    0.1231    0.0000 C   0  0  0  0  0  0  0  0  0  0  0  0
    3.2424   -0.8343    0.0000 C   0  0  0  0  0  0  0  0  0  0  0  0
    7.4589    2.3730    0.0000 C   0  0  0  0  0  0  0  0  0  0  0  0
    5.8450    2.7160    0.0000 C   0  0  0  0  0  0  0  0  0  0  0  0
    4.4860    2.2745    0.0000 C   0  0  0  0  0  0  0  0  0  0  0  0
    3.3819    1.0483    0.0000 C   0  0  0  0  0  0  0  0  0  0  0  0
    4.1889    0.8768    0.0000 C   0  0  0  0  0  0  0  0  0  0  0  0
    2.8299    0.4352    0.0000 C   0  0  0  0  0  0  0  0  0  0  0  0
    8.2659    2.2015    0.0000 Cl  0  0  0  0  0  0  0  0  0  0  0  0
    4.4438    0.0921    0.0000 Cl  0  0  0  0  0  0  0  0  0  0  0  0
    0.3148    0.2093    0.0000 N   0  0  0  0  0  0  0  0  0  0  0  0
    0.8578    1.4288    0.0000 N   0  0  0  0  0  0  0  0  0  0  0  0
    1.4709    0.8768    0.0000 N   0  0  0  0  0  0  0  0  0  0  0  0
    2.1624   -0.0497    0.0000 O   0  0  0  0  0  0  0  0  0  0  0  0
    5.0380    2.8876    0.0000 O   0  0  0  0  0  0  0  0  0  0  0  0
    3.4973   -0.0497    0.0000 O   0  0  0  0  0  0  0  0  0  0  0  0
  4  2  1  0  0  0  0
  5  3  2  0  0  0  0
  7  6  2  0  0  0  0
 13  1  1  0  0  0  0
 13  9  1  0  0  0  0
 14  2  2  0  0  0  0
 14  3  1  0  0  0  0
 15  4  2  0  0  0  0
 15  5  1  0  0  0  0
 16  6  1  0  0  0  0
 16  8  2  0  0  0  0
 17  7  1  0  0  0  0
 18  8  1  0  0  0  0
 18 17  2  0  0  0  0
 19 10  1  0  0  0  0
 19 17  1  0  0  0  0
 20 14  1  0  0  0  0
 21 18  1  0  0  0  0
 22 11  1  0  0  0  0
 22 12  2  0  0  0  0
 23 11  2  0  0  0  0
 24 10  1  0  0  0  0
 24 12  1  0  0  0  0
 24 23  1  0  0  0  0
 25  9  1  0  0  0  0
 25 19  1  0  0  0  0
 26 15  1  0  0  0  0
 26 16  1  0  0  0  0
 27 13  1  0  0  0  0
 27 19  1  0  0  0  0
M  END