831
  Mrv0541 07281413492D          

 20 22  0  0  0  0            999 V2000
    2.9684    3.9336    0.0000 C   0  0  0  0  0  0  0  0  0  0  0  0
    2.9684   -1.0164    0.0000 C   0  0  0  0  0  0  0  0  0  0  0  0
    0.4934    1.4586    0.0000 C   0  0  0  0  0  0  0  0  0  0  0  0
    2.2539    3.5211    0.0000 C   0  0  0  0  0  0  0  0  0  0  0  0
    3.6829    3.5211    0.0000 C   0  0  0  0  0  0  0  0  0  0  0  0
    3.6829   -0.6039    0.0000 C   0  0  0  0  0  0  0  0  0  0  0  0
    2.2539   -0.6039    0.0000 C   0  0  0  0  0  0  0  0  0  0  0  0
    0.9059    0.7441    0.0000 C   0  0  0  0  0  0  0  0  0  0  0  0
    0.9059    2.1730    0.0000 C   0  0  0  0  0  0  0  0  0  0  0  0
    2.2539    2.6961    0.0000 C   0  0  0  0  0  0  0  0  0  0  0  0
    3.6829    2.6961    0.0000 C   0  0  0  0  0  0  0  0  0  0  0  0
    3.6829    0.2211    0.0000 C   0  0  0  0  0  0  0  0  0  0  0  0
    2.2539    0.2211    0.0000 C   0  0  0  0  0  0  0  0  0  0  0  0
    1.7309    0.7441    0.0000 C   0  0  0  0  0  0  0  0  0  0  0  0
    1.7309    2.1730    0.0000 C   0  0  0  0  0  0  0  0  0  0  0  0
    2.9684    2.2836    0.0000 C   0  0  0  0  0  0  0  0  0  0  0  0
    2.9684    0.6336    0.0000 C   0  0  0  0  0  0  0  0  0  0  0  0
    2.1434    1.4586    0.0000 C   0  0  0  0  0  0  0  0  0  0  0  0
    2.9684    1.4586    0.0000 C   0  0  0  0  0  0  0  0  0  0  0  0
    3.7934    1.4586    0.0000 Cl  0  0  0  0  0  0  0  0  0  0  0  0
  4  1  2  0  0  0  0
  5  1  1  0  0  0  0
  6  2  2  0  0  0  0
  7  2  1  0  0  0  0
  8  3  2  0  0  0  0
  9  3  1  0  0  0  0
 10  4  1  0  0  0  0
 11  5  2  0  0  0  0
 12  6  1  0  0  0  0
 13  7  2  0  0  0  0
 14  8  1  0  0  0  0
 15  9  2  0  0  0  0
 16 10  2  0  0  0  0
 16 11  1  0  0  0  0
 17 12  2  0  0  0  0
 17 13  1  0  0  0  0
 18 14  2  0  0  0  0
 18 15  1  0  0  0  0
 19 16  1  0  0  0  0
 19 17  1  0  0  0  0
 19 18  1  0  0  0  0
 20 19  1  0  0  0  0
M  END