833
  Mrv0541 07281413492D          

 29 28  0  0  0  0            999 V2000
   -1.0461    0.3829    0.0000 C   0  0  0  0  0  0  0  0  0  0  0  0
    8.0289   -3.9039    0.0000 C   0  0  0  0  0  0  0  0  0  0  0  0
    1.3480    0.3020    0.0000 C   0  0  0  0  0  0  0  0  0  0  0  0
    0.1914   -1.7605    0.0000 C   0  0  0  0  0  0  0  0  0  0  0  0
    6.7914   -1.7605    0.0000 C   0  0  0  0  0  0  0  0  0  0  0  0
    5.6349    0.3020    0.0000 C   0  0  0  0  0  0  0  0  0  0  0  0
   -0.2211    0.3829    0.0000 C   0  0  0  0  0  0  0  0  0  0  0  0
    7.2039   -3.9039    0.0000 C   0  0  0  0  0  0  0  0  0  0  0  0
    2.0625    0.7145    0.0000 C   0  0  0  0  0  0  0  0  0  0  0  0
    1.0164   -1.7605    0.0000 C   0  0  0  0  0  0  0  0  0  0  0  0
    5.9664   -1.7605    0.0000 C   0  0  0  0  0  0  0  0  0  0  0  0
    4.9204    0.7145    0.0000 C   0  0  0  0  0  0  0  0  0  0  0  0
    0.1914   -0.3316    0.0000 C   0  0  0  0  0  0  0  0  0  0  0  0
    6.7914   -3.1895    0.0000 C   0  0  0  0  0  0  0  0  0  0  0  0
    2.7770    0.3020    0.0000 C   0  0  0  0  0  0  0  0  0  0  0  0
    1.0164   -0.3316    0.0000 C   0  0  0  0  0  0  0  0  0  0  0  0
    5.9664   -3.1895    0.0000 C   0  0  0  0  0  0  0  0  0  0  0  0
    3.4914    0.7145    0.0000 C   0  0  0  0  0  0  0  0  0  0  0  0
    2.2539   -1.0461    0.0000 C   0  0  0  0  0  0  0  0  0  0  0  0
    4.7289   -2.4750    0.0000 C   0  0  0  0  0  0  0  0  0  0  0  0
    4.2059   -0.5230    0.0000 C   0  0  0  0  0  0  0  0  0  0  0  0
    1.4289   -1.0461    0.0000 C   0  0  0  0  0  0  0  0  0  0  0  0
    5.5539   -2.4750    0.0000 C   0  0  0  0  0  0  0  0  0  0  0  0
    4.2059    0.3020    0.0000 C   0  0  0  0  0  0  0  0  0  0  0  0
    3.4914   -2.5855    0.0000 O   0  0  0  0  0  0  0  0  0  0  0  0
    2.6664   -1.7605    0.0000 O   0  0  0  0  0  0  0  0  0  0  0  0
    4.3164   -1.7605    0.0000 O   0  0  0  0  0  0  0  0  0  0  0  0
    3.4914   -0.9355    0.0000 O   0  0  0  0  0  0  0  0  0  0  0  0
    3.4914   -1.7605    0.0000 P   0  0  0  0  0  0  0  0  0  0  0  0
  7  1  1  0  0  0  0
  8  2  1  0  0  0  0
  9  3  1  0  0  0  0
 10  4  1  0  0  0  0
 11  5  1  0  0  0  0
 12  6  1  0  0  0  0
 13  7  1  0  0  0  0
 14  8  1  0  0  0  0
 15  9  1  0  0  0  0
 16 13  1  0  0  0  0
 17 14  1  0  0  0  0
 18 15  1  0  0  0  0
 22 10  1  0  0  0  0
 22 16  1  0  0  0  0
 22 19  1  0  0  0  0
 23 11  1  0  0  0  0
 23 17  1  0  0  0  0
 23 20  1  0  0  0  0
 24 12  1  0  0  0  0
 24 18  1  0  0  0  0
 24 21  1  0  0  0  0
 26 19  1  0  0  0  0
 27 20  1  0  0  0  0
 28 21  1  0  0  0  0
 29 25  2  0  0  0  0
 29 26  1  0  0  0  0
 29 27  1  0  0  0  0
 29 28  1  0  0  0  0
M  END