836
  Mrv0541 07281413492D          

 17 18  0  0  0  0            999 V2000
   -2.9684    0.4125    0.0000 C   0  0  0  0  0  0  0  0  0  0  0  0
   -1.3184    0.4125    0.0000 C   0  0  0  0  0  0  0  0  0  0  0  0
   -1.4289    1.6500    0.0000 C   0  0  0  0  0  0  0  0  0  0  0  0
   -2.8579    1.6500    0.0000 C   0  0  0  0  0  0  0  0  0  0  0  0
   -2.8579   -0.8250    0.0000 C   0  0  0  0  0  0  0  0  0  0  0  0
   -1.4289   -0.8250    0.0000 C   0  0  0  0  0  0  0  0  0  0  0  0
   -1.4289    2.4750    0.0000 C   0  0  0  0  0  0  0  0  0  0  0  0
   -2.8579    2.4750    0.0000 C   0  0  0  0  0  0  0  0  0  0  0  0
   -2.8579   -1.6500    0.0000 C   0  0  0  0  0  0  0  0  0  0  0  0
   -1.4289   -1.6500    0.0000 C   0  0  0  0  0  0  0  0  0  0  0  0
   -2.1434    1.2375    0.0000 C   0  0  0  0  0  0  0  0  0  0  0  0
   -2.1434   -0.4125    0.0000 C   0  0  0  0  0  0  0  0  0  0  0  0
   -2.1434    2.8875    0.0000 C   0  0  0  0  0  0  0  0  0  0  0  0
   -2.1434   -2.0625    0.0000 C   0  0  0  0  0  0  0  0  0  0  0  0
   -2.1434    0.4125    0.0000 C   0  0  0  0  0  0  0  0  0  0  0  0
   -2.1434    3.7125    0.0000 O   0  0  0  0  0  0  0  0  0  0  0  0
   -2.1434   -2.8875    0.0000 O   0  0  0  0  0  0  0  0  0  0  0  0
  7  3  1  0  0  0  0
  8  4  2  0  0  0  0
  9  5  1  0  0  0  0
 10  6  2  0  0  0  0
 11  3  2  0  0  0  0
 11  4  1  0  0  0  0
 12  5  2  0  0  0  0
 12  6  1  0  0  0  0
 13  7  2  0  0  0  0
 13  8  1  0  0  0  0
 14  9  2  0  0  0  0
 14 10  1  0  0  0  0
 15  1  1  0  0  0  0
 15  2  1  0  0  0  0
 15 11  1  0  0  0  0
 15 12  1  0  0  0  0
 16 13  1  0  0  0  0
 17 14  1  0  0  0  0
M  END