863
  Mrv0541 07281413492D          

 12 14  0  0  0  0            999 V2000
    2.0143   -0.9804    0.0000 C   0  0  0  0  0  0  0  0  0  0  0  0
   -0.8411   -0.9804    0.0000 C   0  0  0  0  0  0  0  0  0  0  0  0
    1.3018   -1.3929    0.0000 C   0  0  0  0  0  0  0  0  0  0  0  0
   -0.1286   -1.3929    0.0000 C   0  0  0  0  0  0  0  0  0  0  0  0
    2.0143   -0.1554    0.0000 C   0  0  0  0  0  0  0  0  0  0  0  0
   -0.8411   -0.1554    0.0000 C   0  0  0  0  0  0  0  0  0  0  0  0
    0.9964    1.1143    0.0000 C   0  0  0  0  0  0  0  0  0  0  0  0
    0.1714    1.1143    0.0000 C   0  0  0  0  0  0  0  0  0  0  0  0
    0.5839   -0.9804    0.0000 C   0  0  0  0  0  0  0  0  0  0  0  0
    1.3018    0.2571    0.0000 C   0  0  0  0  0  0  0  0  0  0  0  0
   -0.1286    0.2571    0.0000 C   0  0  0  0  0  0  0  0  0  0  0  0
    0.5839   -0.1554    0.0000 C   0  0  0  0  0  0  0  0  0  0  0  0
  3  1  2  0  0  0  0
  4  2  2  0  0  0  0
  5  1  1  0  0  0  0
  6  2  1  0  0  0  0
  8  7  2  0  0  0  0
  9  3  1  0  0  0  0
  9  4  1  0  0  0  0
 10  5  2  0  0  0  0
 10  7  1  0  0  0  0
 11  6  2  0  0  0  0
 11  8  1  0  0  0  0
 12  9  2  0  0  0  0
 12 10  1  0  0  0  0
 12 11  1  0  0  0  0
M  END