890
  Mrv0541 07281413492D          

 11 10  0  0  0  0            999 V2000
   -2.3645   -1.0164    0.0000 C   0  0  0  0  0  0  0  0  0  0  0  0
    3.3513   -1.0164    0.0000 C   0  0  0  0  0  0  0  0  0  0  0  0
    1.2079    0.2211    0.0000 C   0  0  0  0  0  0  0  0  0  0  0  0
   -1.6500   -1.4289    0.0000 C   0  0  0  0  0  0  0  0  0  0  0  0
    2.6368   -1.4289    0.0000 C   0  0  0  0  0  0  0  0  0  0  0  0
    0.4934   -0.1914    0.0000 C   0  0  0  0  0  0  0  0  0  0  0  0
   -0.9355   -1.0164    0.0000 C   0  0  0  0  0  0  0  0  0  0  0  0
    1.9224   -1.0164    0.0000 C   0  0  0  0  0  0  0  0  0  0  0  0
   -0.2211   -1.4289    0.0000 C   0  0  0  0  0  0  0  0  0  0  0  0
    1.2079   -1.4289    0.0000 C   0  0  0  0  0  0  0  0  0  0  0  0
    0.4934   -1.0164    0.0000 C   0  0  0  0  0  0  0  0  0  0  0  0
  4  1  2  0  0  0  0
  5  2  1  0  0  0  0
  6  3  1  0  0  0  0
  7  4  1  0  0  0  0
  8  5  1  0  0  0  0
  9  7  1  0  0  0  0
 10  8  1  0  0  0  0
 11  6  1  0  0  0  0
 11  9  1  0  0  0  0
 11 10  1  0  0  0  0
M  END