892
  Mrv0541 07281413492D          

 16 16  0  0  0  0            999 V2000
   -1.5395    2.2836    0.0000 C   0  0  0  0  0  0  0  0  0  0  0  0
   -0.3020    4.4270    0.0000 C   0  0  0  0  0  0  0  0  0  0  0  0
   -0.7145    2.2836    0.0000 C   0  0  0  0  0  0  0  0  0  0  0  0
   -0.7145    3.7125    0.0000 C   0  0  0  0  0  0  0  0  0  0  0  0
    2.9980    4.4270    0.0000 C   0  0  0  0  0  0  0  0  0  0  0  0
    1.7605    5.1414    0.0000 C   0  0  0  0  0  0  0  0  0  0  0  0
    3.4105    5.1414    0.0000 C   0  0  0  0  0  0  0  0  0  0  0  0
    2.1730    5.8559    0.0000 C   0  0  0  0  0  0  0  0  0  0  0  0
    1.7605    3.7125    0.0000 C   0  0  0  0  0  0  0  0  0  0  0  0
    2.1730    4.4270    0.0000 C   0  0  0  0  0  0  0  0  0  0  0  0
    2.9980    5.8559    0.0000 C   0  0  0  0  0  0  0  0  0  0  0  0
    0.5230    2.9980    0.0000 C   0  0  0  0  0  0  0  0  0  0  0  0
    3.4105    6.5704    0.0000 Cl  0  0  0  0  0  0  0  0  0  0  0  0
   -0.3020    2.9980    0.0000 N   0  0  0  0  0  0  0  0  0  0  0  0
    0.9355    2.2836    0.0000 O   0  0  0  0  0  0  0  0  0  0  0  0
    0.9355    3.7125    0.0000 S   0  0  0  0  0  0  0  0  0  0  0  0
  3  1  1  0  0  0  0
  4  2  1  0  0  0  0
  7  5  1  0  0  0  0
  8  6  2  0  0  0  0
 10  5  2  0  0  0  0
 10  6  1  0  0  0  0
 10  9  1  0  0  0  0
 11  7  2  0  0  0  0
 11  8  1  0  0  0  0
 13 11  1  0  0  0  0
 14  3  1  0  0  0  0
 14  4  1  0  0  0  0
 14 12  1  0  0  0  0
 15 12  2  0  0  0  0
 16  9  1  0  0  0  0
 16 12  1  0  0  0  0
M  END