900
  Mrv0541 07281413492D          

 13 12  0  0  0  0            999 V2000
    1.7605    1.8414    0.0000 C   0  0  0  0  0  0  0  0  0  0  0  0
    6.7618    0.6039    0.0000 C   0  0  0  0  0  0  0  0  0  0  0  0
    8.1908    2.2539    0.0000 C   0  0  0  0  0  0  0  0  0  0  0  0
    7.8888    1.1270    0.0000 C   0  0  0  0  0  0  0  0  0  0  0  0
    7.0638    2.5559    0.0000 C   0  0  0  0  0  0  0  0  0  0  0  0
    2.4750    1.4289    0.0000 C   0  0  0  0  0  0  0  0  0  0  0  0
    3.1895    1.8414    0.0000 C   0  0  0  0  0  0  0  0  0  0  0  0
    3.9039    1.4289    0.0000 C   0  0  0  0  0  0  0  0  0  0  0  0
    4.6184    1.8414    0.0000 C   0  0  0  0  0  0  0  0  0  0  0  0
    5.3329    1.4289    0.0000 C   0  0  0  0  0  0  0  0  0  0  0  0
    6.0474    1.8414    0.0000 C   0  0  0  0  0  0  0  0  0  0  0  0
    6.7618    1.4289    0.0000 C   0  0  0  0  0  0  0  0  0  0  0  0
    7.4763    1.8414    0.0000 C   0  0  0  0  0  0  0  0  0  0  0  0
  6  1  1  0  0  0  0
  7  6  1  0  0  0  0
  8  7  1  0  0  0  0
  9  8  1  0  0  0  0
 10  9  1  0  0  0  0
 11 10  1  0  0  0  0
 12  2  1  0  0  0  0
 12 11  1  0  0  0  0
 13  3  1  0  0  0  0
 13  4  1  0  0  0  0
 13  5  1  0  0  0  0
 13 12  1  0  0  0  0
M  END