905
  Mrv0541 07281413492D          

 23 25  0  0  0  0            999 V2000
   -0.9355    8.4414    0.0000 C   0  0  0  0  0  0  0  0  0  0  0  0
    0.4934    2.6664    0.0000 C   0  0  0  0  0  0  0  0  0  0  0  0
    2.6664    6.2684    0.0000 C   0  0  0  0  0  0  0  0  0  0  0  0
   -1.6500    8.0289    0.0000 C   0  0  0  0  0  0  0  0  0  0  0  0
   -0.2211    8.0289    0.0000 C   0  0  0  0  0  0  0  0  0  0  0  0
    1.2079    3.0789    0.0000 C   0  0  0  0  0  0  0  0  0  0  0  0
   -0.2211    3.0789    0.0000 C   0  0  0  0  0  0  0  0  0  0  0  0
    2.2539    6.9829    0.0000 C   0  0  0  0  0  0  0  0  0  0  0  0
    2.2539    5.5539    0.0000 C   0  0  0  0  0  0  0  0  0  0  0  0
   -1.6500    7.2039    0.0000 C   0  0  0  0  0  0  0  0  0  0  0  0
   -0.2211    7.2039    0.0000 C   0  0  0  0  0  0  0  0  0  0  0  0
    1.2079    3.9039    0.0000 C   0  0  0  0  0  0  0  0  0  0  0  0
   -0.2211    3.9039    0.0000 C   0  0  0  0  0  0  0  0  0  0  0  0
    1.4289    6.9829    0.0000 C   0  0  0  0  0  0  0  0  0  0  0  0
    1.4289    5.5539    0.0000 C   0  0  0  0  0  0  0  0  0  0  0  0
   -0.9355    6.7914    0.0000 C   0  0  0  0  0  0  0  0  0  0  0  0
    0.4934    4.3164    0.0000 C   0  0  0  0  0  0  0  0  0  0  0  0
    1.0164    6.2684    0.0000 C   0  0  0  0  0  0  0  0  0  0  0  0
   -0.6336    4.8395    0.0000 O   0  0  0  0  0  0  0  0  0  0  0  0
   -0.9355    5.9664    0.0000 O   0  0  0  0  0  0  0  0  0  0  0  0
    0.4934    5.1414    0.0000 O   0  0  0  0  0  0  0  0  0  0  0  0
    0.1914    6.2684    0.0000 O   0  0  0  0  0  0  0  0  0  0  0  0
   -0.2211    5.5539    0.0000 P   0  0  0  0  0  0  0  0  0  0  0  0
  4  1  2  0  0  0  0
  5  1  1  0  0  0  0
  6  2  2  0  0  0  0
  7  2  1  0  0  0  0
  8  3  2  0  0  0  0
  9  3  1  0  0  0  0
 10  4  1  0  0  0  0
 11  5  2  0  0  0  0
 12  6  1  0  0  0  0
 13  7  2  0  0  0  0
 14  8  1  0  0  0  0
 15  9  2  0  0  0  0
 16 10  2  0  0  0  0
 16 11  1  0  0  0  0
 17 12  2  0  0  0  0
 17 13  1  0  0  0  0
 18 14  2  0  0  0  0
 18 15  1  0  0  0  0
 20 16  1  0  0  0  0
 21 17  1  0  0  0  0
 22 18  1  0  0  0  0
 23 19  2  0  0  0  0
 23 20  1  0  0  0  0
 23 21  1  0  0  0  0
 23 22  1  0  0  0  0
M  END