908
  Mrv0541 07281413492D          

  9  8  0  0  0  0            999 V2000
    0.7145   -1.2375    0.0000 C   0  0  0  0  0  0  0  0  0  0  0  0
   -0.7145   -1.2375    0.0000 C   0  0  0  0  0  0  0  0  0  0  0  0
   -0.7145    1.2375    0.0000 C   0  0  0  0  0  0  0  0  0  0  0  0
    0.7145    1.2375    0.0000 C   0  0  0  0  0  0  0  0  0  0  0  0
   -0.8250   -0.0000    0.0000 F   0  0  0  0  0  0  0  0  0  0  0  0
    0.0000   -0.8250    0.0000 N   0  0  0  0  0  0  0  0  0  0  0  0
    0.0000    0.8250    0.0000 N   0  0  0  0  0  0  0  0  0  0  0  0
    0.8250    0.0000    0.0000 O   0  0  0  0  0  0  0  0  0  0  0  0
    0.0000    0.0000    0.0000 P   0  0  0  0  0  0  0  0  0  0  0  0
  6  1  1  0  0  0  0
  6  2  1  0  0  0  0
  7  3  1  0  0  0  0
  7  4  1  0  0  0  0
  9  5  1  0  0  0  0
  9  6  1  0  0  0  0
  9  7  1  0  0  0  0
  9  8  2  0  0  0  0
M  END