910
  Mrv0541 07281413492D          

 21 22  0  0  0  0            999 V2000
   -0.6865   -2.4373    0.0000 C   0  0  0  0  0  0  0  0  0  0  0  0
    2.1714   -0.7873    0.0000 C   0  0  0  0  0  0  0  0  0  0  0  0
    7.4735   -2.0922    0.0000 C   0  0  0  0  0  0  0  0  0  0  0  0
    6.5668   -2.8264    0.0000 C   0  0  0  0  0  0  0  0  0  0  0  0
    6.7393   -1.1855    0.0000 C   0  0  0  0  0  0  0  0  0  0  0  0
    0.0280   -2.0248    0.0000 C   0  0  0  0  0  0  0  0  0  0  0  0
    1.4569   -1.1998    0.0000 C   0  0  0  0  0  0  0  0  0  0  0  0
    5.4970   -1.1660    0.0000 C   0  0  0  0  0  0  0  0  0  0  0  0
    5.3476   -2.5872    0.0000 C   0  0  0  0  0  0  0  0  0  0  0  0
    4.6765   -1.0798    0.0000 C   0  0  0  0  0  0  0  0  0  0  0  0
    4.5271   -2.5009    0.0000 C   0  0  0  0  0  0  0  0  0  0  0  0
    0.7425   -2.4373    0.0000 C   0  0  0  0  0  0  0  0  0  0  0  0
    2.1714   -2.4373    0.0000 C   0  0  0  0  0  0  0  0  0  0  0  0
    2.9721   -1.2043    0.0000 C   0  0  0  0  0  0  0  0  0  0  0  0
    5.8325   -1.9197    0.0000 C   0  0  0  0  0  0  0  0  0  0  0  0
    2.8859   -2.0248    0.0000 C   0  0  0  0  0  0  0  0  0  0  0  0
    6.6530   -2.0059    0.0000 C   0  0  0  0  0  0  0  0  0  0  0  0
    4.1916   -1.7472    0.0000 C   0  0  0  0  0  0  0  0  0  0  0  0
    1.4569   -2.0248    0.0000 N   0  0  0  0  0  0  0  0  0  0  0  0
    3.7791   -1.0328    0.0000 O   0  0  0  0  0  0  0  0  0  0  0  0
    3.6396   -2.3603    0.0000 O   0  0  0  0  0  0  0  0  0  0  0  0
  6  1  1  0  0  0  0
  7  2  1  0  0  0  0
 10  8  1  0  0  0  0
 11  9  1  0  0  0  0
 12  6  1  0  0  0  0
 15  8  1  0  0  0  0
 15  9  1  0  0  0  0
 16 13  1  0  0  0  0
 16 14  1  0  0  0  0
 17  3  1  0  0  0  0
 17  4  1  0  0  0  0
 17  5  1  0  0  0  0
 17 15  1  0  0  0  0
 18 10  1  0  0  0  0
 18 11  1  0  0  0  0
 19  7  1  0  0  0  0
 19 12  1  0  0  0  0
 19 13  1  0  0  0  0
 20 14  1  0  0  0  0
 20 18  1  0  0  0  0
 21 16  1  0  0  0  0
 21 18  1  0  0  0  0
M  END