912
  Mrv0541 07281413492D          

 22 24  0  0  0  0            999 V2000
   -0.1624    4.0792    0.0000 C   0  0  0  0  0  0  0  0  0  0  0  0
   -1.2665    4.0792    0.0000 C   0  0  0  0  0  0  0  0  0  0  0  0
   -1.7613    0.1080    0.0000 C   0  0  0  0  0  0  0  0  0  0  0  0
   -0.4559    0.6892    0.0000 C   0  0  0  0  0  0  0  0  0  0  0  0
   -1.4257   -0.6457    0.0000 C   0  0  0  0  0  0  0  0  0  0  0  0
   -0.1203   -0.0645    0.0000 C   0  0  0  0  0  0  0  0  0  0  0  0
   -0.3020    2.1965    0.0000 C   0  0  0  0  0  0  0  0  0  0  0  0
   -0.0470    2.9812    0.0000 C   0  0  0  0  0  0  0  0  0  0  0  0
   -1.6119    1.5291    0.0000 C   0  0  0  0  0  0  0  0  0  0  0  0
   -1.7944    3.6956    0.0000 C   0  0  0  0  0  0  0  0  0  0  0  0
   -3.8890    4.1081    0.0000 C   0  0  0  0  0  0  0  0  0  0  0  0
   -3.1043    3.0282    0.0000 C   0  0  0  0  0  0  0  0  0  0  0  0
   -1.2763    0.7754    0.0000 C   0  0  0  0  0  0  0  0  0  0  0  0
   -1.1270    2.1965    0.0000 C   0  0  0  0  0  0  0  0  0  0  0  0
   -0.6052   -0.7319    0.0000 C   0  0  0  0  0  0  0  0  0  0  0  0
   -0.7145    3.4661    0.0000 C   0  0  0  0  0  0  0  0  0  0  0  0
   -1.3819    2.9812    0.0000 C   0  0  0  0  0  0  0  0  0  0  0  0
   -0.2697   -1.4856    0.0000 Cl  0  0  0  0  0  0  0  0  0  0  0  0
   -3.8890    3.2831    0.0000 N   0  0  0  0  0  0  0  0  0  0  0  0
   -3.1043    4.3631    0.0000 N   0  0  0  0  0  0  0  0  0  0  0  0
   -2.6194    3.6956    0.0000 N   0  0  0  0  0  0  0  0  0  0  0  0
   -2.1356    2.6456    0.0000 O   0  0  0  0  0  0  0  0  0  0  0  0
  5  3  1  0  0  0  0
  6  4  2  0  0  0  0
  8  7  1  0  0  0  0
 13  3  2  0  0  0  0
 13  4  1  0  0  0  0
 13  9  1  0  0  0  0
 14  7  1  0  0  0  0
 14  9  1  0  0  0  0
 15  5  2  0  0  0  0
 15  6  1  0  0  0  0
 16  1  1  0  0  0  0
 16  2  1  0  0  0  0
 16  8  1  0  0  0  0
 17 10  1  0  0  0  0
 17 14  1  0  0  0  0
 17 16  1  0  0  0  0
 18 15  1  0  0  0  0
 19 11  1  0  0  0  0
 19 12  2  0  0  0  0
 20 11  2  0  0  0  0
 21 10  1  0  0  0  0
 21 12  1  0  0  0  0
 21 20  1  0  0  0  0
 22 17  1  0  0  0  0
M  END