914
  Mrv0541 07281413492D          

 17 17  0  0  0  0            999 V2000
    2.1434    1.2375    0.0000 C   0  0  0  0  0  0  0  0  0  0  0  0
    0.7145    2.0625    0.0000 C   0  0  0  0  0  0  0  0  0  0  0  0
   -1.4289   -0.0000    0.0000 C   0  0  0  0  0  0  0  0  0  0  0  0
   -0.7145   -1.2375    0.0000 C   0  0  0  0  0  0  0  0  0  0  0  0
    4.2868    0.0000    0.0000 C   0  0  0  0  0  0  0  0  0  0  0  0
    3.5724   -1.2375    0.0000 C   0  0  0  0  0  0  0  0  0  0  0  0
    1.4289    0.8250    0.0000 C   0  0  0  0  0  0  0  0  0  0  0  0
    0.7145    1.2375    0.0000 C   0  0  0  0  0  0  0  0  0  0  0  0
    1.4289    0.0000    0.0000 C   0  0  0  0  0  0  0  0  0  0  0  0
    0.0000   -0.0000    0.0000 C   0  0  0  0  0  0  0  0  0  0  0  0
    2.8579    0.0000    0.0000 C   0  0  0  0  0  0  0  0  0  0  0  0
    0.0000    0.8250    0.0000 N   0  0  0  0  0  0  0  0  0  0  0  0
    0.7145   -0.4125    0.0000 N   0  0  0  0  0  0  0  0  0  0  0  0
   -0.7145   -0.4125    0.0000 N   0  0  0  0  0  0  0  0  0  0  0  0
    3.5724   -0.4125    0.0000 N   0  0  0  0  0  0  0  0  0  0  0  0
    2.8579    0.8250    0.0000 O   0  0  0  0  0  0  0  0  0  0  0  0
    2.1434   -0.4125    0.0000 O   0  0  0  0  0  0  0  0  0  0  0  0
  7  1  1  0  0  0  0
  8  2  1  0  0  0  0
  8  7  2  0  0  0  0
  9  7  1  0  0  0  0
 12  8  1  0  0  0  0
 12 10  2  0  0  0  0
 13  9  2  0  0  0  0
 13 10  1  0  0  0  0
 14  3  1  0  0  0  0
 14  4  1  0  0  0  0
 14 10  1  0  0  0  0
 15  5  1  0  0  0  0
 15  6  1  0  0  0  0
 15 11  1  0  0  0  0
 16 11  2  0  0  0  0
 17  9  1  0  0  0  0
 17 11  1  0  0  0  0
M  END