915
  Mrv0541 07281413492D          

 35 34  0  0  0  0            999 V2000
   -0.0000    4.9500    0.0000 C   0  0  0  0  0  0  0  0  0  0  0  0
   -0.0000    4.1250    0.0000 C   0  0  0  0  0  0  0  0  0  0  0  0
   -0.0000    5.7750    0.0000 C   0  0  0  0  0  0  0  0  0  0  0  0
   -0.0000    3.3000    0.0000 C   0  0  0  0  0  0  0  0  0  0  0  0
   -0.0000    6.6000    0.0000 C   0  0  0  0  0  0  0  0  0  0  0  0
   -0.0000    2.4750    0.0000 C   0  0  0  0  0  0  0  0  0  0  0  0
   -0.0000    7.4250    0.0000 C   0  0  0  0  0  0  0  0  0  0  0  0
    0.0000    1.6500    0.0000 C   0  0  0  0  0  0  0  0  0  0  0  0
   -0.0000    8.2500    0.0000 C   0  0  0  0  0  0  0  0  0  0  0  0
    0.0000    0.8250    0.0000 C   0  0  0  0  0  0  0  0  0  0  0  0
   -0.8250    4.9500    0.0000 F   0  0  0  0  0  0  0  0  0  0  0  0
    0.8250    4.9500    0.0000 F   0  0  0  0  0  0  0  0  0  0  0  0
   -0.8250    4.1250    0.0000 F   0  0  0  0  0  0  0  0  0  0  0  0
    0.8250    4.1250    0.0000 F   0  0  0  0  0  0  0  0  0  0  0  0
   -0.8250    5.7750    0.0000 F   0  0  0  0  0  0  0  0  0  0  0  0
    0.8250    5.7750    0.0000 F   0  0  0  0  0  0  0  0  0  0  0  0
   -0.8250    3.3000    0.0000 F   0  0  0  0  0  0  0  0  0  0  0  0
    0.8250    3.3000    0.0000 F   0  0  0  0  0  0  0  0  0  0  0  0
   -0.8250    6.6000    0.0000 F   0  0  0  0  0  0  0  0  0  0  0  0
    0.8250    6.6000    0.0000 F   0  0  0  0  0  0  0  0  0  0  0  0
   -0.8250    2.4750    0.0000 F   0  0  0  0  0  0  0  0  0  0  0  0
    0.8250    2.4750    0.0000 F   0  0  0  0  0  0  0  0  0  0  0  0
   -0.8250    7.4250    0.0000 F   0  0  0  0  0  0  0  0  0  0  0  0
    0.8250    7.4250    0.0000 F   0  0  0  0  0  0  0  0  0  0  0  0
   -0.8250    1.6500    0.0000 F   0  0  0  0  0  0  0  0  0  0  0  0
    0.8250    1.6500    0.0000 F   0  0  0  0  0  0  0  0  0  0  0  0
   -0.0000    9.0750    0.0000 F   0  0  0  0  0  0  0  0  0  0  0  0
   -0.8250    8.2500    0.0000 F   0  0  0  0  0  0  0  0  0  0  0  0
    0.8250    8.2500    0.0000 F   0  0  0  0  0  0  0  0  0  0  0  0
   -0.8250    0.8250    0.0000 F   0  0  0  0  0  0  0  0  0  0  0  0
    0.8250    0.8250    0.0000 F   0  0  0  0  0  0  0  0  0  0  0  0
   -0.0000   -0.8250    0.0000 O   0  0  0  0  0  0  0  0  0  0  0  0
   -0.8250    0.0000    0.0000 O   0  0  0  0  0  0  0  0  0  0  0  0
    0.8250    0.0000    0.0000 O   0  0  0  0  0  0  0  0  0  0  0  0
    0.0000    0.0000    0.0000 S   0  0  0  0  0  0  0  0  0  0  0  0
  2  1  1  0  0  0  0
  3  1  1  0  0  0  0
  4  2  1  0  0  0  0
  5  3  1  0  0  0  0
  6  4  1  0  0  0  0
  7  5  1  0  0  0  0
  8  6  1  0  0  0  0
  9  7  1  0  0  0  0
 10  8  1  0  0  0  0
 11  1  1  0  0  0  0
 12  1  1  0  0  0  0
 13  2  1  0  0  0  0
 14  2  1  0  0  0  0
 15  3  1  0  0  0  0
 16  3  1  0  0  0  0
 17  4  1  0  0  0  0
 18  4  1  0  0  0  0
 19  5  1  0  0  0  0
 20  5  1  0  0  0  0
 21  6  1  0  0  0  0
 22  6  1  0  0  0  0
 23  7  1  0  0  0  0
 24  7  1  0  0  0  0
 25  8  1  0  0  0  0
 26  8  1  0  0  0  0
 27  9  1  0  0  0  0
 28  9  1  0  0  0  0
 29  9  1  0  0  0  0
 30 10  1  0  0  0  0
 31 10  1  0  0  0  0
 35 10  1  0  0  0  0
 35 32  1  0  0  0  0
 35 33  2  0  0  0  0
 35 34  2  0  0  0  0
M  END