917
  Mrv0541 07281413492D          

 15 16  0  0  0  0            999 V2000
    0.6078    4.4759    0.0000 C   0  0  0  0  0  0  0  0  0  0  0  0
    0.6078    3.6509    0.0000 C   0  0  0  0  0  0  0  0  0  0  0  0
    1.3222    4.8884    0.0000 C   0  0  0  0  0  0  0  0  0  0  0  0
    1.3222    3.2384    0.0000 C   0  0  0  0  0  0  0  0  0  0  0  0
    2.0367    4.4759    0.0000 C   0  0  0  0  0  0  0  0  0  0  0  0
    4.8476    1.9285    0.0000 C   0  0  0  0  0  0  0  0  0  0  0  0
    2.0367    3.6509    0.0000 C   0  0  0  0  0  0  0  0  0  0  0  0
    4.1801    2.4134    0.0000 C   0  0  0  0  0  0  0  0  0  0  0  0
    3.4656    3.6509    0.0000 C   0  0  0  0  0  0  0  0  0  0  0  0
    4.5926    1.1438    0.0000 N   0  0  0  0  0  0  0  0  0  0  0  0
    2.7512    3.2384    0.0000 N   0  0  0  0  0  0  0  0  0  0  0  0
    4.1801    3.2384    0.0000 N   0  0  0  0  0  0  0  0  0  0  0  0
    3.7676    1.1438    0.0000 N   0  0  0  0  0  0  0  0  0  0  0  0
    3.4656    4.4759    0.0000 O   0  0  0  0  0  0  0  0  0  0  0  0
    3.5127    1.9285    0.0000 S   0  0  0  0  0  0  0  0  0  0  0  0
  2  1  2  0  0  0  0
  3  1  1  0  0  0  0
  4  2  1  0  0  0  0
  5  3  2  0  0  0  0
  7  4  2  0  0  0  0
  7  5  1  0  0  0  0
  8  6  2  0  0  0  0
 10  6  1  0  0  0  0
 11  7  1  4  0  0  0
 11  9  2  0  0  0  0
 12  8  1  0  0  0  0
 12  9  1  0  0  0  0
 13 10  2  0  0  0  0
 14  9  1  0  0  0  0
 15  8  1  0  0  0  0
 15 13  1  0  0  0  0
M  END