919
  Mrv0541 07281413492D          

 26 27  0  0  0  0            999 V2000
   -1.7605    1.6796    0.0000 C   0  0  0  0  0  0  0  0  0  0  0  0
    0.7145    5.9664    0.0000 C   0  0  0  0  0  0  0  0  0  0  0  0
    5.3915    7.1346    0.0000 C   0  0  0  0  0  0  0  0  0  0  0  0
    4.2874    7.1346    0.0000 C   0  0  0  0  0  0  0  0  0  0  0  0
    1.5395    4.5375    0.0000 C   0  0  0  0  0  0  0  0  0  0  0  0
   -0.9355    1.6796    0.0000 C   0  0  0  0  0  0  0  0  0  0  0  0
    0.3020    5.2520    0.0000 C   0  0  0  0  0  0  0  0  0  0  0  0
   -0.5230    2.3941    0.0000 C   0  0  0  0  0  0  0  0  0  0  0  0
    0.7145    4.5375    0.0000 C   0  0  0  0  0  0  0  0  0  0  0  0
    5.2520    3.8230    0.0000 C   0  0  0  0  0  0  0  0  0  0  0  0
    5.6645    4.5375    0.0000 C   0  0  0  0  0  0  0  0  0  0  0  0
    4.4270    3.8230    0.0000 C   0  0  0  0  0  0  0  0  0  0  0  0
    0.3020    2.3941    0.0000 C   0  0  0  0  0  0  0  0  0  0  0  0
    0.3020    3.8230    0.0000 C   0  0  0  0  0  0  0  0  0  0  0  0
    5.5069    6.0366    0.0000 C   0  0  0  0  0  0  0  0  0  0  0  0
    5.2520    5.2520    0.0000 C   0  0  0  0  0  0  0  0  0  0  0  0
    4.0145    4.5375    0.0000 C   0  0  0  0  0  0  0  0  0  0  0  0
    4.4270    5.2520    0.0000 C   0  0  0  0  0  0  0  0  0  0  0  0
    2.7770    3.8230    0.0000 C   0  0  0  0  0  0  0  0  0  0  0  0
    4.8395    6.5215    0.0000 C   0  0  0  0  0  0  0  0  0  0  0  0
    1.9520    3.8230    0.0000 N   0  0  0  0  0  0  0  0  0  0  0  0
    0.7145    3.1086    0.0000 N   0  0  0  0  0  0  0  0  0  0  0  0
    3.1895    3.1086    0.0000 O   0  0  0  0  0  0  0  0  0  0  0  0
    3.1895    4.5375    0.0000 O   0  0  0  0  0  0  0  0  0  0  0  0
    4.1720    6.0366    0.0000 O   0  0  0  0  0  0  0  0  0  0  0  0
    1.5395    3.1086    0.0000 S   0  0  0  0  0  0  0  0  0  0  0  0
  6  1  1  0  0  0  0
  7  2  1  0  0  0  0
  8  6  1  0  0  0  0
  9  7  1  0  0  0  0
 11 10  2  0  0  0  0
 12 10  1  0  0  0  0
 13  8  1  0  0  0  0
 14  9  1  0  0  0  0
 16 11  1  0  0  0  0
 16 15  1  0  0  0  0
 17 12  2  0  0  0  0
 18 16  2  0  0  0  0
 18 17  1  0  0  0  0
 20  3  1  0  0  0  0
 20  4  1  0  0  0  0
 20 15  1  0  0  0  0
 21  5  1  0  0  0  0
 21 19  1  0  0  0  0
 22 13  1  0  0  0  0
 22 14  1  0  0  0  0
 23 19  2  0  0  0  0
 24 17  1  0  0  0  0
 24 19  1  0  0  0  0
 25 18  1  0  0  0  0
 25 20  1  0  0  0  0
 26 21  1  0  0  0  0
 26 22  1  0  0  0  0
M  END