923
  Mrv0541 07281413492D          

 18 20  0  0  0  0            999 V2000
   -0.0628   -0.7969    0.0000 C   0  0  0  0  0  0  0  0  0  0  0  0
    0.5004   -1.3997    0.0000 C   0  0  0  0  0  0  0  0  0  0  0  0
   -0.8102   -1.1462    0.0000 C   0  0  0  0  0  0  0  0  0  0  0  0
    0.1011   -2.1216    0.0000 C   0  0  0  0  0  0  0  0  0  0  0  0
   -0.7089   -1.9650    0.0000 C   0  0  0  0  0  0  0  0  0  0  0  0
    1.9362   -1.4148    0.0000 C   0  0  0  0  0  0  0  0  0  0  0  0
    1.6411   -2.0402    0.0000 C   0  0  0  0  0  0  0  0  0  0  0  0
    1.1407   -0.9495    0.0000 C   0  0  0  0  0  0  0  0  0  0  0  0
    0.9106   -1.6699    0.0000 C   0  0  0  0  0  0  0  0  0  0  0  0
    0.9807   -0.1341    0.0000 C   0  0  0  0  0  0  0  0  0  0  0  0
   -1.5321   -0.7470    0.0000 Cl  0  0  0  0  0  0  0  0  0  0  0  0
   -1.3117   -2.5282    0.0000 Cl  0  0  0  0  0  0  0  0  0  0  0  0
    2.7243   -1.1707    0.0000 Cl  0  0  0  0  0  0  0  0  0  0  0  0
    1.9087   -2.8206    0.0000 Cl  0  0  0  0  0  0  0  0  0  0  0  0
    1.3626   -0.1549    0.0000 Cl  0  0  0  0  0  0  0  0  0  0  0  0
    0.9270   -2.4947    0.0000 Cl  0  0  0  0  0  0  0  0  0  0  0  0
    1.4674    0.5320    0.0000 Cl  0  0  0  0  0  0  0  0  0  0  0  0
    0.4010    0.4529    0.0000 Cl  0  0  0  0  0  0  0  0  0  0  0  0
  2  1  1  0  0  0  0
  3  1  1  0  0  0  0
  4  2  1  0  0  0  0
  5  3  1  0  0  0  0
  5  4  1  0  0  0  0
  7  6  2  0  0  0  0
  8  2  1  0  0  0  0
  8  6  1  0  0  0  0
  9  4  1  0  0  0  0
  9  7  1  0  0  0  0
 10  8  1  0  0  0  0
 10  9  1  0  0  0  0
 11  3  1  0  0  0  0
 12  5  1  0  0  0  0
 13  6  1  0  0  0  0
 14  7  1  0  0  0  0
 15  8  1  0  0  0  0
 16  9  1  0  0  0  0
 17 10  1  0  0  0  0
 18 10  1  0  0  0  0
M  END