933
  Mrv0541 07281413492D          

  8  7  0  0  0  0            999 V2000
    0.8250   -0.8250    0.0000 C   0  0  0  0  0  0  0  0  0  0  0  0
    0.8250    0.0000    0.0000 C   0  0  0  0  0  0  0  0  0  0  0  0
    0.8250   -1.6500    0.0000 Cl  0  0  0  0  0  0  0  0  0  0  0  0
    1.6500   -0.8250    0.0000 Cl  0  0  0  0  0  0  0  0  0  0  0  0
    0.8250    0.8250    0.0000 Cl  0  0  0  0  0  0  0  0  0  0  0  0
    1.6500   -0.0000    0.0000 Cl  0  0  0  0  0  0  0  0  0  0  0  0
    0.0000   -0.8250    0.0000 F   0  0  0  0  0  0  0  0  0  0  0  0
    0.0000    0.0000    0.0000 F   0  0  0  0  0  0  0  0  0  0  0  0
  2  1  1  0  0  0  0
  3  1  1  0  0  0  0
  4  1  1  0  0  0  0
  5  2  1  0  0  0  0
  6  2  1  0  0  0  0
  7  1  1  0  0  0  0
  8  2  1  0  0  0  0
M  END