961
  Mrv0541 07281413492D          

 18 21  0  0  0  0            999 V2000
   -0.4125   -0.1105    0.0000 C   0  0  0  0  0  0  0  0  0  0  0  0
   -0.8250   -0.8250    0.0000 C   0  0  0  0  0  0  0  0  0  0  0  0
    2.8875   -0.1105    0.0000 C   0  0  0  0  0  0  0  0  0  0  0  0
    3.3000   -0.8250    0.0000 C   0  0  0  0  0  0  0  0  0  0  0  0
    0.8250   -3.6829    0.0000 C   0  0  0  0  0  0  0  0  0  0  0  0
    1.6500   -3.6829    0.0000 C   0  0  0  0  0  0  0  0  0  0  0  0
    0.4125   -0.1105    0.0000 C   0  0  0  0  0  0  0  0  0  0  0  0
   -0.4125   -1.5395    0.0000 C   0  0  0  0  0  0  0  0  0  0  0  0
    2.0625   -0.1105    0.0000 C   0  0  0  0  0  0  0  0  0  0  0  0
    0.4125   -2.9684    0.0000 C   0  0  0  0  0  0  0  0  0  0  0  0
    2.8875   -1.5395    0.0000 C   0  0  0  0  0  0  0  0  0  0  0  0
    2.0625   -2.9684    0.0000 C   0  0  0  0  0  0  0  0  0  0  0  0
    0.8250   -0.8250    0.0000 C   0  0  0  0  0  0  0  0  0  0  0  0
    0.4125   -1.5395    0.0000 C   0  0  0  0  0  0  0  0  0  0  0  0
    1.6500   -0.8250    0.0000 C   0  0  0  0  0  0  0  0  0  0  0  0
    0.8250   -2.2539    0.0000 C   0  0  0  0  0  0  0  0  0  0  0  0
    2.0625   -1.5395    0.0000 C   0  0  0  0  0  0  0  0  0  0  0  0
    1.6500   -2.2539    0.0000 C   0  0  0  0  0  0  0  0  0  0  0  0
  2  1  2  0  0  0  0
  4  3  2  0  0  0  0
  6  5  2  0  0  0  0
  7  1  1  0  0  0  0
  8  2  1  0  0  0  0
  9  3  1  0  0  0  0
 10  5  1  0  0  0  0
 11  4  1  0  0  0  0
 12  6  1  0  0  0  0
 13  7  2  0  0  0  0
 14  8  2  0  0  0  0
 14 13  1  0  0  0  0
 15  9  2  0  0  0  0
 15 13  1  0  0  0  0
 16 10  2  0  0  0  0
 16 14  1  0  0  0  0
 17 11  2  0  0  0  0
 17 15  1  0  0  0  0
 18 12  2  0  0  0  0
 18 16  1  0  0  0  0
 18 17  1  0  0  0  0
M  END