962
  Mrv0541 07281413492D          

 18 21  0  0  0  0            999 V2000
    2.0477   -0.9809    0.0000 C   0  0  0  0  0  0  0  0  0  0  0  0
    7.4486   -0.6691    0.0000 C   0  0  0  0  0  0  0  0  0  0  0  0
    2.3178   -0.2014    0.0000 C   0  0  0  0  0  0  0  0  0  0  0  0
    7.1786   -1.4486    0.0000 C   0  0  0  0  0  0  0  0  0  0  0  0
    2.5878   -1.6046    0.0000 C   0  0  0  0  0  0  0  0  0  0  0  0
    6.9086   -0.0454    0.0000 C   0  0  0  0  0  0  0  0  0  0  0  0
    3.1279   -0.0454    0.0000 C   0  0  0  0  0  0  0  0  0  0  0  0
    6.3685   -1.6046    0.0000 C   0  0  0  0  0  0  0  0  0  0  0  0
    3.9381   -2.0723    0.0000 C   0  0  0  0  0  0  0  0  0  0  0  0
    5.5583    0.4223    0.0000 C   0  0  0  0  0  0  0  0  0  0  0  0
    4.7482   -1.9164    0.0000 C   0  0  0  0  0  0  0  0  0  0  0  0
    4.7482    0.2664    0.0000 C   0  0  0  0  0  0  0  0  0  0  0  0
    3.3980   -1.4486    0.0000 C   0  0  0  0  0  0  0  0  0  0  0  0
    6.0984   -0.2014    0.0000 C   0  0  0  0  0  0  0  0  0  0  0  0
    3.6680   -0.6691    0.0000 C   0  0  0  0  0  0  0  0  0  0  0  0
    5.8284   -0.9809    0.0000 C   0  0  0  0  0  0  0  0  0  0  0  0
    4.4782   -0.5132    0.0000 C   0  0  0  0  0  0  0  0  0  0  0  0
    5.0182   -1.1368    0.0000 C   0  0  0  0  0  0  0  0  0  0  0  0
  3  1  2  0  0  0  0
  4  2  2  0  0  0  0
  5  1  1  0  0  0  0
  6  2  1  0  0  0  0
  7  3  1  0  0  0  0
  8  4  1  0  0  0  0
 11  9  2  0  0  0  0
 12 10  2  0  0  0  0
 13  5  2  0  0  0  0
 13  9  1  0  0  0  0
 14  6  2  0  0  0  0
 14 10  1  0  0  0  0
 15  7  2  0  0  0  0
 15 13  1  0  0  0  0
 16  8  2  0  0  0  0
 16 14  1  0  0  0  0
 17 12  1  0  0  0  0
 17 15  1  0  0  0  0
 18 11  1  0  0  0  0
 18 16  1  0  0  0  0
 18 17  2  0  0  0  0
M  END