965
  Mrv0541 07281413492D          

 11 10  0  0  0  0            999 V2000
    7.0638    0.3020    0.0000 C   0  0  0  0  0  0  0  0  0  0  0  0
    6.3493    1.5395    0.0000 C   0  0  0  0  0  0  0  0  0  0  0  0
    1.3480    0.3020    0.0000 C   0  0  0  0  0  0  0  0  0  0  0  0
    2.0625    1.5395    0.0000 C   0  0  0  0  0  0  0  0  0  0  0  0
    5.6349    0.3020    0.0000 C   0  0  0  0  0  0  0  0  0  0  0  0
    2.7770    0.3020    0.0000 C   0  0  0  0  0  0  0  0  0  0  0  0
    4.9204    0.7145    0.0000 C   0  0  0  0  0  0  0  0  0  0  0  0
    3.4914    0.7145    0.0000 C   0  0  0  0  0  0  0  0  0  0  0  0
    6.3493    0.7145    0.0000 C   0  0  0  0  0  0  0  0  0  0  0  0
    2.0625    0.7145    0.0000 C   0  0  0  0  0  0  0  0  0  0  0  0
    4.2059    0.3020    0.0000 O   0  0  0  0  0  0  0  0  0  0  0  0
  7  5  1  0  0  0  0
  8  6  1  0  0  0  0
  9  1  1  0  0  0  0
  9  2  1  0  0  0  0
  9  5  1  0  0  0  0
 10  3  1  0  0  0  0
 10  4  1  0  0  0  0
 10  6  1  0  0  0  0
 11  7  1  0  0  0  0
 11  8  1  0  0  0  0
M  END