966
  Mrv0541 07281413492D          

 28 27  0  0  0  0            999 V2000
   -0.1496   -4.6581    0.0000 C   0  0  0  0  0  0  0  0  0  0  0  0
    3.6154  -10.2640    0.0000 C   0  0  0  0  0  0  0  0  0  0  0  0
    1.6338   -6.3742    0.0000 C   0  0  0  0  0  0  0  0  0  0  0  0
    6.9841   -8.5479    0.0000 C   0  0  0  0  0  0  0  0  0  0  0  0
    0.6430   -4.4293    0.0000 C   0  0  0  0  0  0  0  0  0  0  0  0
    3.8136   -9.4632    0.0000 C   0  0  0  0  0  0  0  0  0  0  0  0
    2.4265   -6.1454    0.0000 C   0  0  0  0  0  0  0  0  0  0  0  0
    6.1915   -8.7767    0.0000 C   0  0  0  0  0  0  0  0  0  0  0  0
    1.2375   -5.0013    0.0000 C   0  0  0  0  0  0  0  0  0  0  0  0
    4.6062   -9.2344    0.0000 C   0  0  0  0  0  0  0  0  0  0  0  0
    2.0301   -4.7725    0.0000 C   0  0  0  0  0  0  0  0  0  0  0  0
    4.8044   -8.4335    0.0000 C   0  0  0  0  0  0  0  0  0  0  0  0
    5.3988   -6.0310    0.0000 C   0  0  0  0  0  0  0  0  0  0  0  0
    3.4172   -5.1157    0.0000 C   0  0  0  0  0  0  0  0  0  0  0  0
    5.7951   -7.4038    0.0000 C   0  0  0  0  0  0  0  0  0  0  0  0
    2.6246   -5.3445    0.0000 C   0  0  0  0  0  0  0  0  0  0  0  0
    5.5970   -8.2047    0.0000 C   0  0  0  0  0  0  0  0  0  0  0  0
    6.1915   -5.8021    0.0000 C   0  0  0  0  0  0  0  0  0  0  0  0
    4.8044   -5.4589    0.0000 C   0  0  0  0  0  0  0  0  0  0  0  0
    6.7859   -6.3742    0.0000 C   0  0  0  0  0  0  0  0  0  0  0  0
    5.0025   -4.6581    0.0000 O   0  0  0  0  0  0  0  0  0  0  0  0
    7.5786   -6.1454    0.0000 O   0  0  0  0  0  0  0  0  0  0  0  0
    7.1905   -5.1995    0.0000 O   0  0  0  0  0  0  0  0  0  0  0  0
    5.5888   -4.8031    0.0000 O   0  0  0  0  0  0  0  0  0  0  0  0
    6.5878   -4.2004    0.0000 O   0  0  0  0  0  0  0  0  0  0  0  0
    4.0117   -5.6877    0.0000 O   0  0  0  0  0  0  0  0  0  0  0  0
    6.5878   -7.1750    0.0000 O   0  0  0  0  0  0  0  0  0  0  0  0
    6.3896   -5.0013    0.0000 S   0  0  0  0  0  0  0  0  0  0  0  0
  5  1  1  0  0  0  0
  6  2  1  0  0  0  0
  7  3  1  0  0  0  0
  8  4  1  0  0  0  0
  9  5  1  0  0  0  0
 10  6  1  0  0  0  0
 11  9  1  0  0  0  0
 12 10  1  0  0  0  0
 16  7  1  0  0  0  0
 16 11  1  0  0  0  0
 16 14  1  0  0  0  0
 17  8  1  0  0  0  0
 17 12  1  0  0  0  0
 17 15  1  0  0  0  0
 18 13  1  0  0  0  0
 19 13  1  0  0  0  0
 20 18  1  0  0  0  0
 21 19  2  0  0  0  0
 22 20  2  0  0  0  0
 26 14  1  0  0  0  0
 26 19  1  0  0  0  0
 27 15  1  0  0  0  0
 27 20  1  0  0  0  0
 28 18  1  0  0  0  0
 28 23  1  0  0  0  0
 28 24  2  0  0  0  0
 28 25  2  0  0  0  0
M  END