975
  Mrv0541 07281413492D          

 16 16  0  0  0  0            999 V2000
    1.1296   -1.5764    0.0000 C   0  0  0  0  0  0  0  0  0  0  0  0
   -1.3842    2.4623    0.0000 C   0  0  0  0  0  0  0  0  0  0  0  0
    1.0908    2.4623    0.0000 C   0  0  0  0  0  0  0  0  0  0  0  0
    0.5678    1.9393    0.0000 C   0  0  0  0  0  0  0  0  0  0  0  0
    0.9803   -0.1553    0.0000 C   0  0  0  0  0  0  0  0  0  0  0  0
   -0.0997    0.6294    0.0000 C   0  0  0  0  0  0  0  0  0  0  0  0
    1.2352    0.6294    0.0000 N   0  0  0  0  0  0  0  0  0  0  0  0
    0.5678    1.1143    0.0000 N   0  0  0  0  0  0  0  0  0  0  0  0
   -0.8843    0.8843    0.0000 O   0  0  0  0  0  0  0  0  0  0  0  0
    1.4652   -0.8227    0.0000 O   0  0  0  0  0  0  0  0  0  0  0  0
   -0.9717    3.1768    0.0000 O   0  0  0  0  0  0  0  0  0  0  0  0
    0.6783    3.1768    0.0000 O   0  0  0  0  0  0  0  0  0  0  0  0
   -0.1467    3.1768    0.0000 P   0  0  0  0  0  0  0  0  0  0  0  0
   -0.1467    4.0018    0.0000 S   0  0  0  0  0  0  0  0  0  0  0  0
   -0.1467    2.3518    0.0000 S   0  0  0  0  0  0  0  0  0  0  0  0
    0.1553   -0.1553    0.0000 S   0  0  0  0  0  0  0  0  0  0  0  0
  7  5  2  0  0  0  0
  8  4  1  0  0  0  0
  8  6  1  0  0  0  0
  8  7  1  0  0  0  0
  9  6  2  0  0  0  0
 10  1  1  0  0  0  0
 10  5  1  0  0  0  0
 11  2  1  0  0  0  0
 12  3  1  0  0  0  0
 13 11  1  0  0  0  0
 13 12  1  0  0  0  0
 14 13  2  0  0  0  0
 15  4  1  0  0  0  0
 15 13  1  0  0  0  0
 16  5  1  0  0  0  0
 16  6  1  0  0  0  0
M  END