976
  Mrv0541 07281413492D          

 25 24  0  0  0  0            999 V2000
    5.3033    4.0737    0.0000 C   0  0  0  0  0  0  0  0  0  0  0  0
   -0.4125   -5.8263    0.0000 C   0  0  0  0  0  0  0  0  0  0  0  0
    5.3033   -5.8263    0.0000 C   0  0  0  0  0  0  0  0  0  0  0  0
    4.5888    3.6612    0.0000 C   0  0  0  0  0  0  0  0  0  0  0  0
   -0.4125   -5.0013    0.0000 C   0  0  0  0  0  0  0  0  0  0  0  0
    5.3033   -5.0013    0.0000 C   0  0  0  0  0  0  0  0  0  0  0  0
    4.5888    2.8362    0.0000 C   0  0  0  0  0  0  0  0  0  0  0  0
    0.3020   -4.5888    0.0000 C   0  0  0  0  0  0  0  0  0  0  0  0
    4.5888   -4.5888    0.0000 C   0  0  0  0  0  0  0  0  0  0  0  0
    3.8743    2.4237    0.0000 C   0  0  0  0  0  0  0  0  0  0  0  0
    0.3020   -3.7638    0.0000 C   0  0  0  0  0  0  0  0  0  0  0  0
    4.5888   -3.7638    0.0000 C   0  0  0  0  0  0  0  0  0  0  0  0
    3.8743    1.5987    0.0000 C   0  0  0  0  0  0  0  0  0  0  0  0
    1.0164   -3.3513    0.0000 C   0  0  0  0  0  0  0  0  0  0  0  0
    3.8743   -3.3513    0.0000 C   0  0  0  0  0  0  0  0  0  0  0  0
    3.1599    1.1862    0.0000 C   0  0  0  0  0  0  0  0  0  0  0  0
    1.0164   -2.5263    0.0000 C   0  0  0  0  0  0  0  0  0  0  0  0
    3.8743   -2.5263    0.0000 C   0  0  0  0  0  0  0  0  0  0  0  0
    3.1599    0.3612    0.0000 C   0  0  0  0  0  0  0  0  0  0  0  0
    1.7309   -2.1138    0.0000 C   0  0  0  0  0  0  0  0  0  0  0  0
    3.1599   -2.1138    0.0000 C   0  0  0  0  0  0  0  0  0  0  0  0
    2.4454   -0.0513    0.0000 C   0  0  0  0  0  0  0  0  0  0  0  0
    1.7309   -1.2888    0.0000 C   0  0  0  0  0  0  0  0  0  0  0  0
    3.1599   -1.2888    0.0000 C   0  0  0  0  0  0  0  0  0  0  0  0
    2.4454   -0.8763    0.0000 N   0  0  0  0  0  0  0  0  0  0  0  0
  4  1  1  0  0  0  0
  5  2  1  0  0  0  0
  6  3  1  0  0  0  0
  7  4  1  0  0  0  0
  8  5  1  0  0  0  0
  9  6  1  0  0  0  0
 10  7  1  0  0  0  0
 11  8  1  0  0  0  0
 12  9  1  0  0  0  0
 13 10  1  0  0  0  0
 14 11  1  0  0  0  0
 15 12  1  0  0  0  0
 16 13  1  0  0  0  0
 17 14  1  0  0  0  0
 18 15  1  0  0  0  0
 19 16  1  0  0  0  0
 20 17  1  0  0  0  0
 21 18  1  0  0  0  0
 22 19  1  0  0  0  0
 23 20  1  0  0  0  0
 24 21  1  0  0  0  0
 25 22  1  0  0  0  0
 25 23  1  0  0  0  0
 25 24  1  0  0  0  0
M  END