981
  Mrv0541 07281413492D          

 23 25  0  0  0  0            999 V2000
   -0.8250   -0.6039    0.0000 C   0  0  0  0  0  0  0  0  0  0  0  0
   -2.2539   -0.6039    0.0000 C   0  0  0  0  0  0  0  0  0  0  0  0
   -2.2539   -3.0789    0.0000 C   0  0  0  0  0  0  0  0  0  0  0  0
   -0.8250   -3.0789    0.0000 C   0  0  0  0  0  0  0  0  0  0  0  0
   -2.7770   -1.1270    0.0000 C   0  0  0  0  0  0  0  0  0  0  0  0
   -2.7770   -2.5559    0.0000 C   0  0  0  0  0  0  0  0  0  0  0  0
   -0.8250    0.2211    0.0000 C   0  0  0  0  0  0  0  0  0  0  0  0
   -2.2539    0.2211    0.0000 C   0  0  0  0  0  0  0  0  0  0  0  0
   -2.2539   -3.9039    0.0000 C   0  0  0  0  0  0  0  0  0  0  0  0
   -0.8250   -3.9039    0.0000 C   0  0  0  0  0  0  0  0  0  0  0  0
   -3.6020   -1.1270    0.0000 C   0  0  0  0  0  0  0  0  0  0  0  0
   -3.6020   -2.5559    0.0000 C   0  0  0  0  0  0  0  0  0  0  0  0
   -1.5395   -1.0164    0.0000 C   0  0  0  0  0  0  0  0  0  0  0  0
   -1.5395   -2.6664    0.0000 C   0  0  0  0  0  0  0  0  0  0  0  0
   -2.3645   -1.8414    0.0000 C   0  0  0  0  0  0  0  0  0  0  0  0
   -1.5395    0.6336    0.0000 C   0  0  0  0  0  0  0  0  0  0  0  0
   -1.5395   -4.3164    0.0000 C   0  0  0  0  0  0  0  0  0  0  0  0
   -4.0145   -1.8414    0.0000 C   0  0  0  0  0  0  0  0  0  0  0  0
   -1.5395   -1.8414    0.0000 C   0  0  0  0  0  0  0  0  0  0  0  0
   -1.5395    1.4586    0.0000 Cl  0  0  0  0  0  0  0  0  0  0  0  0
   -1.5395   -5.1414    0.0000 Cl  0  0  0  0  0  0  0  0  0  0  0  0
   -4.8395   -1.8414    0.0000 Cl  0  0  0  0  0  0  0  0  0  0  0  0
   -0.7145   -1.8414    0.0000 O   0  0  0  0  0  0  0  0  0  0  0  0
  7  1  1  0  0  0  0
  8  2  2  0  0  0  0
  9  3  1  0  0  0  0
 10  4  2  0  0  0  0
 11  5  1  0  0  0  0
 12  6  2  0  0  0  0
 13  1  2  0  0  0  0
 13  2  1  0  0  0  0
 14  3  2  0  0  0  0
 14  4  1  0  0  0  0
 15  5  2  0  0  0  0
 15  6  1  0  0  0  0
 16  7  2  0  0  0  0
 16  8  1  0  0  0  0
 17  9  2  0  0  0  0
 17 10  1  0  0  0  0
 18 11  2  0  0  0  0
 18 12  1  0  0  0  0
 19 13  1  0  0  0  0
 19 14  1  0  0  0  0
 19 15  1  0  0  0  0
 20 16  1  0  0  0  0
 21 17  1  0  0  0  0
 22 18  1  0  0  0  0
 23 19  1  0  0  0  0
M  END