990
  Mrv0541 07281413492D          

 27 28  0  0  0  0            999 V2000
    7.2039   -0.3829    0.0000 C   0  0  0  0  0  0  0  0  0  0  0  0
    7.9184   -1.6204    0.0000 C   0  0  0  0  0  0  0  0  0  0  0  0
   10.7763   -0.7954    0.0000 C   0  0  0  0  0  0  0  0  0  0  0  0
   10.0618   -0.3829    0.0000 C   0  0  0  0  0  0  0  0  0  0  0  0
   11.4908   -0.3829    0.0000 C   0  0  0  0  0  0  0  0  0  0  0  0
   17.2065   -1.2079    0.0000 C   0  0  0  0  0  0  0  0  0  0  0  0
   15.1737    2.4750    0.0000 C   0  0  0  0  0  0  0  0  0  0  0  0
    9.3474   -0.7954    0.0000 C   0  0  0  0  0  0  0  0  0  0  0  0
   17.2065   -0.3829    0.0000 C   0  0  0  0  0  0  0  0  0  0  0  0
   16.4921   -1.6204    0.0000 C   0  0  0  0  0  0  0  0  0  0  0  0
   14.3487    2.4750    0.0000 C   0  0  0  0  0  0  0  0  0  0  0  0
   15.5862    1.7605    0.0000 C   0  0  0  0  0  0  0  0  0  0  0  0
   12.2052   -0.7954    0.0000 C   0  0  0  0  0  0  0  0  0  0  0  0
    8.6329   -0.3829    0.0000 C   0  0  0  0  0  0  0  0  0  0  0  0
   16.4921    0.0296    0.0000 C   0  0  0  0  0  0  0  0  0  0  0  0
   15.7776   -1.2079    0.0000 C   0  0  0  0  0  0  0  0  0  0  0  0
   13.9362    1.7605    0.0000 C   0  0  0  0  0  0  0  0  0  0  0  0
   15.1737    1.0461    0.0000 C   0  0  0  0  0  0  0  0  0  0  0  0
   12.9197   -0.3829    0.0000 C   0  0  0  0  0  0  0  0  0  0  0  0
    7.9184   -0.7954    0.0000 C   0  0  0  0  0  0  0  0  0  0  0  0
   15.7776   -0.3829    0.0000 C   0  0  0  0  0  0  0  0  0  0  0  0
   14.3487    1.0461    0.0000 C   0  0  0  0  0  0  0  0  0  0  0  0
   14.7612   -1.0974    0.0000 O   0  0  0  0  0  0  0  0  0  0  0  0
   13.6342   -0.7954    0.0000 O   0  0  0  0  0  0  0  0  0  0  0  0
   15.0631    0.0296    0.0000 O   0  0  0  0  0  0  0  0  0  0  0  0
   13.9362    0.3316    0.0000 O   0  0  0  0  0  0  0  0  0  0  0  0
   14.3487   -0.3829    0.0000 P   0  0  0  0  0  0  0  0  0  0  0  0
  4  3  1  0  0  0  0
  5  3  1  0  0  0  0
  8  4  1  0  0  0  0
  9  6  2  0  0  0  0
 10  6  1  0  0  0  0
 11  7  2  0  0  0  0
 12  7  1  0  0  0  0
 13  5  1  0  0  0  0
 14  8  1  0  0  0  0
 15  9  1  0  0  0  0
 16 10  2  0  0  0  0
 17 11  1  0  0  0  0
 18 12  2  0  0  0  0
 19 13  1  0  0  0  0
 20  1  1  0  0  0  0
 20  2  1  0  0  0  0
 20 14  1  0  0  0  0
 21 15  2  0  0  0  0
 21 16  1  0  0  0  0
 22 17  2  0  0  0  0
 22 18  1  0  0  0  0
 24 19  1  0  0  0  0
 25 21  1  0  0  0  0
 26 22  1  0  0  0  0
 27 23  2  0  0  0  0
 27 24  1  0  0  0  0
 27 25  1  0  0  0  0
 27 26  1  0  0  0  0
M  END