1002
  Mrv0541 07281413492D          

 25 26  0  0  1  0            999 V2000
   -5.0013    7.0125    0.0000 C   0  0  0  0  0  0  0  0  0  0  0  0
   -1.4289    7.4250    0.0000 C   0  0  0  0  0  0  0  0  0  0  0  0
   -4.2868    6.6000    0.0000 C   0  0  0  0  0  0  0  0  0  0  0  0
    0.7145    6.1875    0.0000 C   0  0  0  0  0  0  0  0  0  0  0  0
    0.0000    7.4250    0.0000 C   0  0  0  0  0  0  0  0  0  0  0  0
    1.4289    6.6000    0.0000 C   0  0  0  0  0  0  0  0  0  0  0  0
    0.7145    7.8375    0.0000 C   0  0  0  0  0  0  0  0  0  0  0  0
   -3.5724    6.1875    0.0000 C   0  0  0  0  0  0  0  0  0  0  0  0
    3.5724    6.1875    0.0000 C   0  0  0  0  0  0  0  0  0  0  0  0
    4.2868    7.4250    0.0000 C   0  0  0  0  0  0  0  0  0  0  0  0
   -1.4289    6.6000    0.0000 C   0  0  2  0  0  0  0  0  0  0  0  0
    4.2868    6.6000    0.0000 C   0  0  0  0  0  0  0  0  0  0  0  0
    0.0000    6.6000    0.0000 C   0  0  0  0  0  0  0  0  0  0  0  0
    1.4289    7.4250    0.0000 C   0  0  0  0  0  0  0  0  0  0  0  0
    2.8579    6.6000    0.0000 C   0  0  0  0  0  0  0  0  0  0  0  0
    2.8579    7.4250    0.0000 C   0  0  0  0  0  0  0  0  0  0  0  0
   -2.1434    6.1875    0.0000 C   0  0  0  0  0  0  0  0  0  0  0  0
    5.0013    6.1875    0.0000 Cl  0  0  0  0  0  0  0  0  0  0  0  0
    2.1434    6.1875    0.0000 F   0  0  0  0  0  0  0  0  0  0  0  0
    3.5724    7.8375    0.0000 N   0  0  0  0  0  0  0  0  0  0  0  0
   -2.1434    5.3625    0.0000 O   0  0  0  0  0  0  0  0  0  0  0  0
   -2.8579    6.6000    0.0000 O   0  0  0  0  0  0  0  0  0  0  0  0
   -0.7145    6.1875    0.0000 O   0  0  0  0  0  0  0  0  0  0  0  0
    2.1434    7.8375    0.0000 O   0  0  0  0  0  0  0  0  0  0  0  0
   -2.1434    7.0125    0.0000 H   0  0  0  0  0  0  0  0  0  0  0  0
  3  1  3  0  0  0  0
  6  4  1  0  0  0  0
  7  5  2  0  0  0  0
  8  3  1  0  0  0  0
 11  2  1  1  0  0  0
 12  9  2  0  0  0  0
 12 10  1  0  0  0  0
 13  4  2  0  0  0  0
 13  5  1  0  0  0  0
 14  6  2  0  0  0  0
 14  7  1  0  0  0  0
 15  9  1  0  0  0  0
 16 15  2  0  0  0  0
 17 11  1  0  0  0  0
 18 12  1  0  0  0  0
 19 15  1  0  0  0  0
 20 10  2  0  0  0  0
 20 16  1  0  0  0  0
 21 17  2  0  0  0  0
 22  8  1  0  0  0  0
 22 17  1  0  0  0  0
 23 11  1  0  0  0  0
 23 13  1  0  0  0  0
 24 14  1  0  0  0  0
 24 16  1  0  0  0  0
 11 25  1  6  0  0  0
M  END