1003
  Mrv0541 07281413492D          

 12 12  0  0  0  0            999 V2000
    2.8988    0.4125    0.0000 C   0  0  0  0  0  0  0  0  0  0  0  0
    0.9959    2.3154    0.0000 C   0  0  0  0  0  0  0  0  0  0  0  0
    0.9959   -1.4904    0.0000 C   0  0  0  0  0  0  0  0  0  0  0  0
   -0.9071    0.4125    0.0000 C   0  0  0  0  0  0  0  0  0  0  0  0
    2.0738    0.4125    0.0000 C   0  0  0  0  0  0  0  0  0  0  0  0
    0.9959    1.4904    0.0000 C   0  0  0  0  0  0  0  0  0  0  0  0
    0.9959   -0.6654    0.0000 C   0  0  0  0  0  0  0  0  0  0  0  0
   -0.0821    0.4125    0.0000 C   0  0  0  0  0  0  0  0  0  0  0  0
    1.7581    1.1747    0.0000 O   0  0  0  0  0  0  0  0  0  0  0  0
    1.7581   -0.3497    0.0000 O   0  0  0  0  0  0  0  0  0  0  0  0
    0.2337    1.1747    0.0000 O   0  0  0  0  0  0  0  0  0  0  0  0
    0.2337   -0.3497    0.0000 O   0  0  0  0  0  0  0  0  0  0  0  0
  5  1  1  0  0  0  0
  6  2  1  0  0  0  0
  7  3  1  0  0  0  0
  8  4  1  0  0  0  0
  9  5  1  0  0  0  0
  9  6  1  0  0  0  0
 10  5  1  0  0  0  0
 10  7  1  0  0  0  0
 11  6  1  0  0  0  0
 11  8  1  0  0  0  0
 12  7  1  0  0  0  0
 12  8  1  0  0  0  0
M  END