1004
  Mrv0541 07281413492D          

 26 27  0  0  0  0            999 V2000
   -1.4884    0.9479    0.0000 C   0  0  0  0  0  0  0  0  0  0  0  0
   -0.3323    0.1080    0.0000 C   0  0  0  0  0  0  0  0  0  0  0  0
    2.1665    3.2361    0.0000 C   0  0  0  0  0  0  0  0  0  0  0  0
   -1.1528    0.1942    0.0000 C   0  0  0  0  0  0  0  0  0  0  0  0
   -1.0034    1.6153    0.0000 C   0  0  0  0  0  0  0  0  0  0  0  0
    0.1526    0.7754    0.0000 C   0  0  0  0  0  0  0  0  0  0  0  0
    1.3819    2.9812    0.0000 C   0  0  0  0  0  0  0  0  0  0  0  0
   -0.1830    1.5291    0.0000 C   0  0  0  0  0  0  0  0  0  0  0  0
    0.7145    3.4661    0.0000 C   0  0  0  0  0  0  0  0  0  0  0  0
    0.0470    2.9812    0.0000 C   0  0  0  0  0  0  0  0  0  0  0  0
   -1.6377   -0.4732    0.0000 C   0  0  0  0  0  0  0  0  0  0  0  0
    0.0000    4.7036    0.0000 C   0  0  0  0  0  0  0  0  0  0  0  0
   -1.3390    2.3690    0.0000 Cl  0  0  0  0  0  0  0  0  0  0  0  0
    0.9731    0.6892    0.0000 Cl  0  0  0  0  0  0  0  0  0  0  0  0
   -2.1226   -1.1407    0.0000 F   0  0  0  0  0  0  0  0  0  0  0  0
   -0.9703   -0.9581    0.0000 F   0  0  0  0  0  0  0  0  0  0  0  0
   -2.3052    0.0117    0.0000 F   0  0  0  0  0  0  0  0  0  0  0  0
   -0.7145    5.1161    0.0000 F   0  0  0  0  0  0  0  0  0  0  0  0
    0.4125    5.4180    0.0000 F   0  0  0  0  0  0  0  0  0  0  0  0
   -0.4125    3.9891    0.0000 F   0  0  0  0  0  0  0  0  0  0  0  0
    2.9512    3.4910    0.0000 N   0  0  0  0  0  0  0  0  0  0  0  0
   -0.7376    3.2361    0.0000 N   0  0  0  0  0  0  0  0  0  0  0  0
    1.1270    2.1965    0.0000 N   0  0  0  0  0  0  0  0  0  0  0  0
    0.3020    2.1965    0.0000 N   0  0  0  0  0  0  0  0  0  0  0  0
    1.4289    4.7036    0.0000 O   0  0  0  0  0  0  0  0  0  0  0  0
    0.7145    4.2911    0.0000 S   0  0  0  0  0  0  0  0  0  0  0  0
  4  1  2  0  0  0  0
  4  2  1  0  0  0  0
  5  1  1  0  0  0  0
  6  2  2  0  0  0  0
  7  3  1  0  0  0  0
  8  5  2  0  0  0  0
  8  6  1  0  0  0  0
  9  7  1  0  0  0  0
 10  9  2  0  0  0  0
 11  4  1  0  0  0  0
 13  5  1  0  0  0  0
 14  6  1  0  0  0  0
 15 11  1  0  0  0  0
 16 11  1  0  0  0  0
 17 11  1  0  0  0  0
 18 12  1  0  0  0  0
 19 12  1  0  0  0  0
 20 12  1  0  0  0  0
 21  3  3  0  0  0  0
 22 10  1  0  0  0  0
 23  7  2  0  0  0  0
 24  8  1  0  0  0  0
 24 10  1  0  0  0  0
 24 23  1  0  0  0  0
 26  9  1  0  0  0  0
 26 12  1  0  0  0  0
 26 25  2  0  0  0  0
M  END