1007
  Mrv0541 07281413492D          

 24 26  0  0  0  0            999 V2000
   -3.3960    0.2532    0.0000 C   0  0  0  0  0  0  0  0  0  0  0  0
   -0.1741   -1.5585    0.0000 C   0  0  0  0  0  0  0  0  0  0  0  0
    0.6509   -1.5585    0.0000 C   0  0  0  0  0  0  0  0  0  0  0  0
   -0.9437   -1.9550    0.0000 C   0  0  0  0  0  0  0  0  0  0  0  0
   -0.7721   -1.1480    0.0000 C   0  0  0  0  0  0  0  0  0  0  0  0
   -2.3414   -1.6579    0.0000 C   0  0  0  0  0  0  0  0  0  0  0  0
   -0.1741    1.2506    0.0000 C   0  0  0  0  0  0  0  0  0  0  0  0
    0.2384   -0.8440    0.0000 C   0  0  0  0  0  0  0  0  0  0  0  0
   -1.7283   -2.2099    0.0000 C   0  0  0  0  0  0  0  0  0  0  0  0
   -1.3852   -0.5960    0.0000 C   0  0  0  0  0  0  0  0  0  0  0  0
   -0.4291    0.4659    0.0000 C   0  0  0  0  0  0  0  0  0  0  0  0
   -2.1699   -0.8509    0.0000 C   0  0  0  0  0  0  0  0  0  0  0  0
   -1.2137    0.2110    0.0000 C   0  0  0  0  0  0  0  0  0  0  0  0
    0.2384   -0.0190    0.0000 C   0  0  0  0  0  0  0  0  0  0  0  0
   -1.8998   -3.0169    0.0000 C   0  0  0  0  0  0  0  0  0  0  0  0
   -2.0713   -3.8239    0.0000 F   0  0  0  0  0  0  0  0  0  0  0  0
   -2.7068   -2.8454    0.0000 F   0  0  0  0  0  0  0  0  0  0  0  0
   -1.0928   -3.1884    0.0000 F   0  0  0  0  0  0  0  0  0  0  0  0
    0.6509    1.2506    0.0000 N   0  0  0  0  0  0  0  0  0  0  0  0
   -1.8268    0.7630    0.0000 O   0  0  0  0  0  0  0  0  0  0  0  0
   -2.2309    0.3142    0.0000 O   0  0  0  0  0  0  0  0  0  0  0  0
   -3.3350   -0.9120    0.0000 O   0  0  0  0  0  0  0  0  0  0  0  0
    0.9058    0.4659    0.0000 O   0  0  0  0  0  0  0  0  0  0  0  0
   -2.7830   -0.2989    0.0000 S   0  0  0  0  0  0  0  0  0  0  0  0
  3  2  1  0  0  0  0
  5  4  2  0  0  0  0
  8  2  1  0  0  0  0
  8  3  1  0  0  0  0
  9  4  1  0  0  0  0
  9  6  2  0  0  0  0
 10  5  1  0  0  0  0
 11  7  1  0  0  0  0
 12  6  1  0  0  0  0
 12 10  2  0  0  0  0
 13 10  1  0  0  0  0
 13 11  1  0  0  0  0
 14  8  1  0  0  0  0
 14 11  2  0  0  0  0
 15  9  1  0  0  0  0
 16 15  1  0  0  0  0
 17 15  1  0  0  0  0
 18 15  1  0  0  0  0
 19  7  2  0  0  0  0
 20 13  2  0  0  0  0
 23 14  1  0  0  0  0
 23 19  1  0  0  0  0
 24  1  1  0  0  0  0
 24 12  1  0  0  0  0
 24 21  2  0  0  0  0
 24 22  2  0  0  0  0
M  END