1013
  Mrv0541 07281413492D          

 16 17  0  0  0  0            999 V2000
    0.0407    0.9709    0.0000 C   0  0  0  0  0  0  0  0  0  0  0  0
    0.0407    2.0750    0.0000 C   0  0  0  0  0  0  0  0  0  0  0  0
    1.2089    4.8229    0.0000 C   0  0  0  0  0  0  0  0  0  0  0  0
    3.3523    1.1104    0.0000 C   0  0  0  0  0  0  0  0  0  0  0  0
    3.3523    1.9354    0.0000 C   0  0  0  0  0  0  0  0  0  0  0  0
    2.6378    0.6979    0.0000 C   0  0  0  0  0  0  0  0  0  0  0  0
    2.6378    2.3479    0.0000 C   0  0  0  0  0  0  0  0  0  0  0  0
    1.9233    1.1104    0.0000 C   0  0  0  0  0  0  0  0  0  0  0  0
    1.9233    1.9354    0.0000 C   0  0  0  0  0  0  0  0  0  0  0  0
    1.9233    3.5854    0.0000 C   0  0  0  0  0  0  0  0  0  0  0  0
    0.6538    1.5229    0.0000 C   0  0  0  0  0  0  0  0  0  0  0  0
    1.9233    4.4104    0.0000 N   0  0  0  0  0  0  0  0  0  0  0  0
    1.2089    3.1729    0.0000 O   0  0  0  0  0  0  0  0  0  0  0  0
    2.6378    3.1729    0.0000 O   0  0  0  0  0  0  0  0  0  0  0  0
    1.1387    0.8555    0.0000 O   0  0  0  0  0  0  0  0  0  0  0  0
    1.1387    2.1904    0.0000 O   0  0  0  0  0  0  0  0  0  0  0  0
  5  4  2  0  0  0  0
  6  4  1  0  0  0  0
  7  5  1  0  0  0  0
  8  6  2  0  0  0  0
  9  7  2  0  0  0  0
  9  8  1  0  0  0  0
 11  1  1  0  0  0  0
 11  2  1  0  0  0  0
 12  3  1  4  0  0  0
 12 10  2  0  0  0  0
 13 10  1  0  0  0  0
 14  7  1  0  0  0  0
 14 10  1  0  0  0  0
 15  8  1  0  0  0  0
 15 11  1  0  0  0  0
 16  9  1  0  0  0  0
 16 11  1  0  0  0  0
M  END