1015
  Mrv0541 07281413492D          

 15 15  0  0  0  0            999 V2000
    2.7112    2.3518    0.0000 C   0  0  0  0  0  0  0  0  0  0  0  0
   -0.1467    2.3518    0.0000 C   0  0  0  0  0  0  0  0  0  0  0  0
    0.1553   -0.1553    0.0000 C   0  0  0  0  0  0  0  0  0  0  0  0
    1.2822    2.3518    0.0000 C   0  0  0  0  0  0  0  0  0  0  0  0
    0.5678    1.1143    0.0000 C   0  0  0  0  0  0  0  0  0  0  0  0
   -0.3297   -0.8227    0.0000 C   0  0  0  0  0  0  0  0  0  0  0  0
   -0.8146   -1.4901    0.0000 F   0  0  0  0  0  0  0  0  0  0  0  0
   -0.9971   -0.3378    0.0000 F   0  0  0  0  0  0  0  0  0  0  0  0
    0.3378   -1.3076    0.0000 F   0  0  0  0  0  0  0  0  0  0  0  0
    1.9967    1.9393    0.0000 N   0  0  0  0  0  0  0  0  0  0  0  0
    0.9803   -0.1553    0.0000 N   0  0  0  0  0  0  0  0  0  0  0  0
    1.2352    0.6294    0.0000 N   0  0  0  0  0  0  0  0  0  0  0  0
    0.5678    1.9393    0.0000 N   0  0  0  0  0  0  0  0  0  0  0  0
    1.2822    3.1768    0.0000 O   0  0  0  0  0  0  0  0  0  0  0  0
   -0.0997    0.6294    0.0000 S   0  0  0  0  0  0  0  0  0  0  0  0
  6  3  1  0  0  0  0
  7  6  1  0  0  0  0
  8  6  1  0  0  0  0
  9  6  1  0  0  0  0
 10  1  1  4  0  0  0
 10  4  2  0  0  0  0
 11  3  2  0  0  0  0
 12  5  2  0  0  0  0
 12 11  1  0  0  0  0
 13  2  1  0  0  0  0
 13  4  1  0  0  0  0
 13  5  1  0  0  0  0
 14  4  1  0  0  0  0
 15  3  1  0  0  0  0
 15  5  1  0  0  0  0
M  END