1016
  Mrv0541 07281413492D          

 19 18  0  0  0  0            999 V2000
   -1.1270   -0.3020    0.0000 C   0  0  0  0  0  0  0  0  0  0  0  0
    4.1763    1.8414    0.0000 C   0  0  0  0  0  0  0  0  0  0  0  0
    5.0013   -2.4454    0.0000 C   0  0  0  0  0  0  0  0  0  0  0  0
    1.7309    0.5230    0.0000 C   0  0  0  0  0  0  0  0  0  0  0  0
   -0.4125   -0.7145    0.0000 C   0  0  0  0  0  0  0  0  0  0  0  0
    4.5888    1.1270    0.0000 C   0  0  0  0  0  0  0  0  0  0  0  0
    4.5888   -1.7309    0.0000 C   0  0  0  0  0  0  0  0  0  0  0  0
    3.1599   -0.3020    0.0000 C   0  0  0  0  0  0  0  0  0  0  0  0
    2.4454   -0.7145    0.0000 C   0  0  0  0  0  0  0  0  0  0  0  0
    1.0164   -0.7145    0.0000 C   0  0  0  0  0  0  0  0  0  0  0  0
    1.7309   -0.3020    0.0000 N   0  0  0  0  0  0  0  0  0  0  0  0
    2.4454   -1.5395    0.0000 O   0  0  0  0  0  0  0  0  0  0  0  0
    1.0164   -1.5395    0.0000 O   0  0  0  0  0  0  0  0  0  0  0  0
    0.3020   -0.3020    0.0000 O   0  0  0  0  0  0  0  0  0  0  0  0
    4.1763    0.4125    0.0000 O   0  0  0  0  0  0  0  0  0  0  0  0
    5.0013   -1.0164    0.0000 O   0  0  0  0  0  0  0  0  0  0  0  0
    4.5888   -0.3020    0.0000 P   0  0  0  0  0  0  0  0  0  0  0  0
    5.3033    0.1105    0.0000 S   0  0  0  0  0  0  0  0  0  0  0  0
    3.8743   -0.7145    0.0000 S   0  0  0  0  0  0  0  0  0  0  0  0
  5  1  1  0  0  0  0
  6  2  1  0  0  0  0
  7  3  1  0  0  0  0
  9  8  1  0  0  0  0
 11  4  1  0  0  0  0
 11  9  1  0  0  0  0
 11 10  1  0  0  0  0
 12  9  2  0  0  0  0
 13 10  2  0  0  0  0
 14  5  1  0  0  0  0
 14 10  1  0  0  0  0
 15  6  1  0  0  0  0
 16  7  1  0  0  0  0
 17 15  1  0  0  0  0
 17 16  1  0  0  0  0
 18 17  2  0  0  0  0
 19  8  1  0  0  0  0
 19 17  1  0  0  0  0
M  END