1018
  Mrv0541 07281413492D          

 38 39  0  0  0  0            999 V2000
    5.0013    2.0625    0.0000 C   0  0  0  0  0  0  0  0  0  0  0  0
    1.7309    0.5230    0.0000 C   0  0  0  0  0  0  0  0  0  0  0  0
    2.5559    1.9520    0.0000 C   0  0  0  0  0  0  0  0  0  0  0  0
    1.4289    3.3000    0.0000 C   0  0  0  0  0  0  0  0  0  0  0  0
    5.0013   -1.2375    0.0000 C   0  0  0  0  0  0  0  0  0  0  0  0
    5.0013   -0.4125    0.0000 C   0  0  0  0  0  0  0  0  0  0  0  0
    4.2868   -1.6500    0.0000 C   0  0  0  0  0  0  0  0  0  0  0  0
    2.8579    3.3000    0.0000 C   0  0  0  0  0  0  0  0  0  0  0  0
    2.8579    2.4750    0.0000 C   0  0  0  0  0  0  0  0  0  0  0  0
    4.2868    3.3000    0.0000 C   0  0  0  0  0  0  0  0  0  0  0  0
    1.4289    1.6500    0.0000 C   0  0  0  0  0  0  0  0  0  0  0  0
    4.2868    2.4750    0.0000 C   0  0  0  0  0  0  0  0  0  0  0  0
    3.5724    3.7125    0.0000 C   0  0  0  0  0  0  0  0  0  0  0  0
    4.2868   -0.0000    0.0000 C   0  0  0  0  0  0  0  0  0  0  0  0
    3.5724   -1.2375    0.0000 C   0  0  0  0  0  0  0  0  0  0  0  0
    3.5724    2.0625    0.0000 C   0  0  0  0  0  0  0  0  0  0  0  0
    3.5724   -0.4125    0.0000 C   0  0  0  0  0  0  0  0  0  0  0  0
    4.2868    0.8250    0.0000 C   0  0  0  0  0  0  0  0  0  0  0  0
    2.8579   -0.0000    0.0000 C   0  0  0  0  0  0  0  0  0  0  0  0
    2.1434    1.2375    0.0000 C   0  0  0  0  0  0  0  0  0  0  0  0
    3.5724    4.5375    0.0000 C   0  0  0  0  0  0  0  0  0  0  0  0
    4.3974    4.5375    0.0000 C   0  0  0  0  0  0  0  0  0  0  0  0
    2.7474    4.5375    0.0000 C   0  0  0  0  0  0  0  0  0  0  0  0
    3.5724    5.3625    0.0000 F   0  0  0  0  0  0  0  0  0  0  0  0
    5.2224    4.5375    0.0000 F   0  0  0  0  0  0  0  0  0  0  0  0
    4.3974    3.7125    0.0000 F   0  0  0  0  0  0  0  0  0  0  0  0
    4.3974    5.3625    0.0000 F   0  0  0  0  0  0  0  0  0  0  0  0
    1.9224    4.5375    0.0000 F   0  0  0  0  0  0  0  0  0  0  0  0
    2.7474    3.7125    0.0000 F   0  0  0  0  0  0  0  0  0  0  0  0
    2.7474    5.3625    0.0000 F   0  0  0  0  0  0  0  0  0  0  0  0
    2.8579   -1.6500    0.0000 I   0  0  0  0  0  0  0  0  0  0  0  0
    3.5724    1.2375    0.0000 N   0  0  0  0  0  0  0  0  0  0  0  0
    2.8579    0.8250    0.0000 N   0  0  0  0  0  0  0  0  0  0  0  0
    5.0013    1.2375    0.0000 O   0  0  0  0  0  0  0  0  0  0  0  0
    2.1434   -0.4125    0.0000 O   0  0  0  0  0  0  0  0  0  0  0  0
    0.6039    2.4750    0.0000 O   0  0  0  0  0  0  0  0  0  0  0  0
    2.2539    2.4750    0.0000 O   0  0  0  0  0  0  0  0  0  0  0  0
    1.4289    2.4750    0.0000 S   0  0  0  0  0  0  0  0  0  0  0  0
  6  5  2  0  0  0  0
  7  5  1  0  0  0  0
  9  8  1  0  0  0  0
 12  1  1  0  0  0  0
 12 10  2  0  0  0  0
 13  8  2  0  0  0  0
 13 10  1  0  0  0  0
 14  6  1  0  0  0  0
 15  7  2  0  0  0  0
 16  9  2  0  0  0  0
 16 12  1  0  0  0  0
 17 14  2  0  0  0  0
 17 15  1  0  0  0  0
 18 14  1  0  0  0  0
 19 17  1  0  0  0  0
 20  2  1  0  0  0  0
 20  3  1  0  0  0  0
 20 11  1  0  0  0  0
 21 13  1  0  0  0  0
 22 21  1  0  0  0  0
 23 21  1  0  0  0  0
 24 21  1  0  0  0  0
 25 22  1  0  0  0  0
 26 22  1  0  0  0  0
 27 22  1  0  0  0  0
 28 23  1  0  0  0  0
 29 23  1  0  0  0  0
 30 23  1  0  0  0  0
 31 15  1  0  0  0  0
 32 16  1  0  0  0  0
 32 18  1  0  0  0  0
 33 19  2  0  0  0  0
 33 20  1  4  0  0  0
 34 18  2  0  0  0  0
 35 19  1  0  0  0  0
 38  4  1  0  0  0  0
 38 11  1  0  0  0  0
 38 36  2  0  0  0  0
 38 37  2  0  0  0  0
M  END