1020
  Mrv0541 07281413492D          

 21 22  0  0  0  0            999 V2000
    3.4624   -1.8216    0.0000 C   0  0  0  0  0  0  0  0  0  0  0  0
    4.6184   -0.9817    0.0000 C   0  0  0  0  0  0  0  0  0  0  0  0
   -0.2701    2.5701    0.0000 C   0  0  0  0  0  0  0  0  0  0  0  0
    0.6860    1.5082    0.0000 C   0  0  0  0  0  0  0  0  0  0  0  0
    1.1276    2.8672    0.0000 C   0  0  0  0  0  0  0  0  0  0  0  0
    3.4186    1.8053    0.0000 C   0  0  0  0  0  0  0  0  0  0  0  0
    3.7980   -1.0679    0.0000 C   0  0  0  0  0  0  0  0  0  0  0  0
   -0.0986    1.7631    0.0000 C   0  0  0  0  0  0  0  0  0  0  0  0
    0.3430    3.1221    0.0000 C   0  0  0  0  0  0  0  0  0  0  0  0
    1.2991    2.0602    0.0000 C   0  0  0  0  0  0  0  0  0  0  0  0
    2.7512    2.2902    0.0000 C   0  0  0  0  0  0  0  0  0  0  0  0
    3.6486    0.3532    0.0000 C   0  0  0  0  0  0  0  0  0  0  0  0
    2.3387    1.0206    0.0000 C   0  0  0  0  0  0  0  0  0  0  0  0
   -0.7117    1.2111    0.0000 Cl  0  0  0  0  0  0  0  0  0  0  0  0
    0.1714    3.9291    0.0000 Cl  0  0  0  0  0  0  0  0  0  0  0  0
    3.3130   -0.4005    0.0000 N   0  0  0  0  0  0  0  0  0  0  0  0
    3.1637    1.0206    0.0000 N   0  0  0  0  0  0  0  0  0  0  0  0
    2.0837    1.8053    0.0000 N   0  0  0  0  0  0  0  0  0  0  0  0
    2.7512    3.1152    0.0000 O   0  0  0  0  0  0  0  0  0  0  0  0
    4.4691    0.4394    0.0000 O   0  0  0  0  0  0  0  0  0  0  0  0
    1.8538    0.3532    0.0000 O   0  0  0  0  0  0  0  0  0  0  0  0
  7  1  1  0  0  0  0
  7  2  1  0  0  0  0
  8  3  2  0  0  0  0
  8  4  1  0  0  0  0
  9  3  1  0  0  0  0
  9  5  2  0  0  0  0
 10  4  2  0  0  0  0
 10  5  1  0  0  0  0
 11  6  1  0  0  0  0
 14  8  1  0  0  0  0
 15  9  1  0  0  0  0
 16  7  1  4  0  0  0
 16 12  2  0  0  0  0
 17  6  1  0  0  0  0
 17 12  1  0  0  0  0
 17 13  1  0  0  0  0
 18 10  1  0  0  0  0
 18 11  1  0  0  0  0
 18 13  1  0  0  0  0
 19 11  2  0  0  0  0
 20 12  1  0  0  0  0
 21 13  2  0  0  0  0
M  END