1023
  Mrv0541 07281413492D          

 24 25  0  0  0  0            999 V2000
   -0.7145   -2.8875    0.0000 C   0  0  0  0  0  0  0  0  0  0  0  0
    1.4289    0.0000    0.0000 C   0  0  0  0  0  0  0  0  0  0  0  0
    1.4289    0.8250    0.0000 C   0  0  0  0  0  0  0  0  0  0  0  0
   -0.0000   -2.4750    0.0000 C   0  0  0  0  0  0  0  0  0  0  0  0
   -1.4289   -1.6500    0.0000 C   0  0  0  0  0  0  0  0  0  0  0  0
   -0.0000    0.0000    0.0000 C   0  0  0  0  0  0  0  0  0  0  0  0
   -1.4289   -2.4750    0.0000 C   0  0  0  0  0  0  0  0  0  0  0  0
    0.7145   -0.4125    0.0000 C   0  0  0  0  0  0  0  0  0  0  0  0
   -0.0000    0.8250    0.0000 C   0  0  0  0  0  0  0  0  0  0  0  0
   -0.7145   -1.2375    0.0000 C   0  0  0  0  0  0  0  0  0  0  0  0
    0.7145    1.2375    0.0000 C   0  0  0  0  0  0  0  0  0  0  0  0
   -0.0000   -1.6500    0.0000 C   0  0  0  0  0  0  0  0  0  0  0  0
   -0.7145    1.2375    0.0000 C   0  0  0  0  0  0  0  0  0  0  0  0
   -2.1434   -2.8875    0.0000 C   0  0  0  0  0  0  0  0  0  0  0  0
   -0.7145   -0.4125    0.0000 Cl  0  0  0  0  0  0  0  0  0  0  0  0
   -2.8579   -3.3000    0.0000 F   0  0  0  0  0  0  0  0  0  0  0  0
   -1.7309   -3.6020    0.0000 F   0  0  0  0  0  0  0  0  0  0  0  0
   -2.5559   -2.1730    0.0000 F   0  0  0  0  0  0  0  0  0  0  0  0
    0.7145    2.0625    0.0000 N   0  0  0  0  0  0  0  0  0  0  0  0
   -0.7145    2.0625    0.0000 O   0  0  0  0  0  0  0  0  0  0  0  0
   -1.4289    0.8250    0.0000 O   0  0  0  0  0  0  0  0  0  0  0  0
   -0.0000    2.4750    0.0000 O   0  0  0  0  0  0  0  0  0  0  0  0
    1.4289    2.4750    0.0000 O   0  0  0  0  0  0  0  0  0  0  0  0
    0.7145   -1.2375    0.0000 O   0  0  0  0  0  0  0  0  0  0  0  0
  3  2  2  0  0  0  0
  4  1  2  0  0  0  0
  7  1  1  0  0  0  0
  7  5  2  0  0  0  0
  8  2  1  0  0  0  0
  8  6  2  0  0  0  0
  9  6  1  0  0  0  0
 10  5  1  0  0  0  0
 11  3  1  0  0  0  0
 11  9  2  0  0  0  0
 12  4  1  0  0  0  0
 12 10  2  0  0  0  0
 13  9  1  0  0  0  0
 14  7  1  0  0  0  0
 15 10  1  0  0  0  0
 16 14  1  0  0  0  0
 17 14  1  0  0  0  0
 18 14  1  0  0  0  0
 19 11  1  0  0  0  0
 20 13  2  0  0  0  0
 21 13  1  0  0  0  0
 22 19  2  0  0  0  0
 23 19  2  0  0  0  0
 24  8  1  0  0  0  0
 24 12  1  0  0  0  0
M  END