1025
  Mrv0541 07281413492D          

 12 13  0  0  0  0            999 V2000
   -0.8250    2.4750    0.0000 C   0  0  0  0  0  0  0  0  0  0  0  0
    0.0000    2.4750    0.0000 C   0  0  0  0  0  0  0  0  0  0  0  0
   -0.4125    3.1895    0.0000 C   0  0  0  0  0  0  0  0  0  0  0  0
    1.7309    4.4270    0.0000 C   0  0  0  0  0  0  0  0  0  0  0  0
    1.0164    5.6645    0.0000 C   0  0  0  0  0  0  0  0  0  0  0  0
    0.3020    4.4270    0.0000 C   0  0  0  0  0  0  0  0  0  0  0  0
    2.4454    4.0145    0.0000 N   0  0  0  0  0  0  0  0  0  0  0  0
    1.0164    6.4895    0.0000 N   0  0  0  0  0  0  0  0  0  0  0  0
   -0.4125    4.0145    0.0000 N   0  0  0  0  0  0  0  0  0  0  0  0
    1.7309    5.2520    0.0000 N   0  0  0  0  0  0  0  0  0  0  0  0
    1.0164    4.0145    0.0000 N   0  0  0  0  0  0  0  0  0  0  0  0
    0.3020    5.2520    0.0000 N   0  0  0  0  0  0  0  0  0  0  0  0
  2  1  1  0  0  0  0
  3  1  1  0  0  0  0
  3  2  1  0  0  0  0
  7  4  2  0  0  0  0
  8  5  2  0  0  0  0
  9  3  1  0  0  0  0
  9  6  2  0  0  0  0
 10  4  1  0  0  0  0
 10  5  1  0  0  0  0
 11  4  1  0  0  0  0
 11  6  1  0  0  0  0
 12  5  1  0  0  0  0
 12  6  1  0  0  0  0
M  END