1026
  Mrv0541 07281413492D          

 20 21  0  0  0  0            999 V2000
   -2.8579    5.7750    0.0000 C   0  0  0  0  0  0  0  0  0  0  0  0
   -5.7158    9.0750    0.0000 C   0  0  0  0  0  0  0  0  0  0  0  0
   -5.4138    7.9480    0.0000 C   0  0  0  0  0  0  0  0  0  0  0  0
   -4.5888    9.3770    0.0000 C   0  0  0  0  0  0  0  0  0  0  0  0
   -1.4289    3.3000    0.0000 C   0  0  0  0  0  0  0  0  0  0  0  0
   -0.7145    3.7125    0.0000 C   0  0  0  0  0  0  0  0  0  0  0  0
   -2.1434    3.7125    0.0000 C   0  0  0  0  0  0  0  0  0  0  0  0
   -2.8579    8.2500    0.0000 C   0  0  0  0  0  0  0  0  0  0  0  0
   -3.5724    7.0125    0.0000 C   0  0  0  0  0  0  0  0  0  0  0  0
   -3.5724    8.6625    0.0000 C   0  0  0  0  0  0  0  0  0  0  0  0
   -4.2868    7.4250    0.0000 C   0  0  0  0  0  0  0  0  0  0  0  0
   -0.7145    4.5375    0.0000 C   0  0  0  0  0  0  0  0  0  0  0  0
   -2.1434    4.5375    0.0000 C   0  0  0  0  0  0  0  0  0  0  0  0
   -2.1434    7.0125    0.0000 C   0  0  0  0  0  0  0  0  0  0  0  0
   -1.4289    5.7750    0.0000 C   0  0  0  0  0  0  0  0  0  0  0  0
   -2.1434    6.1875    0.0000 C   0  0  0  0  0  0  0  0  0  0  0  0
   -2.8579    7.4250    0.0000 C   0  0  0  0  0  0  0  0  0  0  0  0
   -4.2868    8.2500    0.0000 C   0  0  0  0  0  0  0  0  0  0  0  0
   -5.0013    8.6625    0.0000 C   0  0  0  0  0  0  0  0  0  0  0  0
   -1.4289    4.9500    0.0000 N   0  0  0  0  0  0  0  0  0  0  0  0
  6  5  1  0  0  0  0
  7  5  1  0  0  0  0
 10  8  1  0  0  0  0
 11  9  2  0  0  0  0
 12  6  1  0  0  0  0
 13  7  1  0  0  0  0
 16  1  1  0  0  0  0
 16 14  1  0  0  0  0
 16 15  1  0  0  0  0
 17  8  2  0  0  0  0
 17  9  1  0  0  0  0
 17 14  1  0  0  0  0
 18 10  2  0  0  0  0
 18 11  1  0  0  0  0
 19  2  1  0  0  0  0
 19  3  1  0  0  0  0
 19  4  1  0  0  0  0
 19 18  1  0  0  0  0
 20 12  1  0  0  0  0
 20 13  1  0  0  0  0
 20 15  1  0  0  0  0
M  END