1035
  Mrv0541 07281413492D          

 23 23  0  0  0  0            999 V2000
    5.0013    1.2375    0.0000 C   0  0  0  0  0  0  0  0  0  0  0  0
    0.0000    3.3000    0.0000 C   0  0  0  0  0  0  0  0  0  0  0  0
    0.7145    4.5375    0.0000 C   0  0  0  0  0  0  0  0  0  0  0  0
    3.5724    2.0625    0.0000 C   0  0  0  0  0  0  0  0  0  0  0  0
    5.0013    2.0625    0.0000 C   0  0  0  0  0  0  0  0  0  0  0  0
    5.0013    3.7125    0.0000 C   0  0  0  0  0  0  0  0  0  0  0  0
    4.2868    4.9500    0.0000 C   0  0  0  0  0  0  0  0  0  0  0  0
    0.7145    3.7125    0.0000 C   0  0  0  0  0  0  0  0  0  0  0  0
    4.2868    2.4750    0.0000 C   0  0  0  0  0  0  0  0  0  0  0  0
    5.0013    4.5375    0.0000 C   0  0  0  0  0  0  0  0  0  0  0  0
    4.2868    3.3000    0.0000 C   0  0  0  0  0  0  0  0  0  0  0  0
    3.5724    4.5375    0.0000 C   0  0  0  0  0  0  0  0  0  0  0  0
    3.5724    3.7125    0.0000 C   0  0  0  0  0  0  0  0  0  0  0  0
    2.1434    3.7125    0.0000 C   0  0  0  0  0  0  0  0  0  0  0  0
    5.7158    4.9500    0.0000 N   0  0  0  0  0  0  0  0  0  0  0  0
    2.8579    4.9500    0.0000 N   0  0  0  0  0  0  0  0  0  0  0  0
    2.1434    4.5375    0.0000 O   0  0  0  0  0  0  0  0  0  0  0  0
    5.7158    5.7750    0.0000 O   0  0  0  0  0  0  0  0  0  0  0  0
    6.4302    4.5375    0.0000 O   0  0  0  0  0  0  0  0  0  0  0  0
    2.0374    5.0362    0.0000 O   0  0  0  0  0  0  0  0  0  0  0  0
    2.8579    5.7750    0.0000 O   0  0  0  0  0  0  0  0  0  0  0  0
    1.4289    3.3000    0.0000 O   0  0  0  0  0  0  0  0  0  0  0  0
    2.8579    3.3000    0.0000 O   0  0  0  0  0  0  0  0  0  0  0  0
  5  1  1  0  0  0  0
  8  2  1  0  0  0  0
  8  3  1  0  0  0  0
  9  4  1  0  0  0  0
  9  5  1  0  0  0  0
 10  6  2  0  0  0  0
 10  7  1  0  0  0  0
 11  6  1  0  0  0  0
 11  9  1  0  0  0  0
 12  7  2  0  0  0  0
 13 11  2  0  0  0  0
 13 12  1  0  0  0  0
 15 10  1  0  0  0  0
 16 12  1  0  0  0  0
 17 14  2  0  0  0  0
 18 15  2  0  0  0  0
 19 15  2  0  0  0  0
 20 16  2  0  0  0  0
 21 16  2  0  0  0  0
 22  8  1  0  0  0  0
 22 14  1  0  0  0  0
 23 13  1  0  0  0  0
 23 14  1  0  0  0  0
M  END