Ro05-3061
  Cerius2 12180215283D 1   1.00000                          
 Structure written by MMmdl.
 30 32  0  0  0  0  0  0  0  0999 V2000
   -2.1030    2.5130   -0.2084 C   0  0  0  0  0  0
   -2.3293    1.1557   -0.0378 C   0  0  0  0  0  0
   -1.2740    0.2745    0.1610 C   0  0  0  0  0  0
    0.0449    0.7568    0.2012 C   0  0  0  0  0  0
    0.2798    2.1413    0.1047 C   0  0  0  0  0  0
   -0.7988    3.0044   -0.1433 C   0  0  0  0  0  0
    1.1591   -0.2455    0.2253 C   0  0  0  0  0  0
    2.2413   -0.1457    0.9275 N   0  0  0  0  0  0
    2.4066    1.0323    1.7772 C   0  0  0  0  0  0
    2.6251    2.2675    0.9165 C   0  0  0  0  0  0
    1.5404    2.7503    0.2310 N   0  0  0  0  0  0
    1.0376   -1.4595   -0.6452 C   0  0  0  0  0  0
    3.7069    2.8632    0.8815 O   0  0  0  0  0  0
   -3.5823    0.6841   -0.0865 F   0  0  0  0  0  0
    0.5274   -1.3651   -1.9463 C   0  0  0  0  0  0
    0.4337   -2.5088   -2.7419 C   0  0  0  0  0  0
    0.8561   -3.7426   -2.2464 C   0  0  0  0  0  0
    1.3792   -3.8368   -0.9568 C   0  0  0  0  0  0
    1.4757   -2.6966   -0.1571 C   0  0  0  0  0  0
   -2.9383    3.1866   -0.3782 H   0  0  0  0  0  0
   -1.4944   -0.7846    0.2622 H   0  0  0  0  0  0
   -0.6392    4.0762   -0.2517 H   0  0  0  0  0  0
    3.2970    0.8904    2.3993 H   0  0  0  0  0  0
    1.5636    1.1765    2.4627 H   0  0  0  0  0  0
    1.6559    3.6880   -0.1441 H   0  0  0  0  0  0
    0.2114   -0.4093   -2.3584 H   0  0  0  0  0  0
    0.0352   -2.4367   -3.7525 H   0  0  0  0  0  0
    0.7826   -4.6326   -2.8695 H   0  0  0  0  0  0
    1.7140   -4.7994   -0.5740 H   0  0  0  0  0  0
    1.8862   -2.7797    0.8473 H   0  0  0  0  0  0
  1  2  2  0  0  0
  1  6  1  0  0  0
  1 20  1  0  0  0
  2  3  1  0  0  0
  2 14  1  0  0  0
  3  4  2  0  0  0
  3 21  1  0  0  0
  4  5  1  0  0  0
  4  7  1  0  0  0
  5  6  2  0  0  0
  5 11  1  0  0  0
  6 22  1  0  0  0
  7  8  2  0  0  0
  7 12  1  0  0  0
  8  9  1  0  0  0
  9 10  1  0  0  0
  9 23  1  0  0  0
  9 24  1  0  0  0
 10 11  1  0  0  0
 10 13  2  0  0  0
 11 25  1  0  0  0
 12 15  2  0  0  0
 12 19  1  0  0  0
 15 16  1  0  0  0
 15 26  1  0  0  0
 16 17  2  0  0  0
 16 27  1  0  0  0
 17 18  1  0  0  0
 17 28  1  0  0  0
 18 19  2  0  0  0
 18 29  1  0  0  0
 19 30  1  0  0  0
M  END
>  <Name>
Ro05-3061

>  <Family>
A.1

>  <IC50_uM>
0.040000

>  <set>
1

$$$$
Ro05-4865
  Cerius2 12180215283D 1   1.00000                          
 Structure written by MMmdl.
 33 35  0  0  0  0  0  0  0  0999 V2000
   -2.1346    2.5074   -0.1492 C   0  0  0  0  0  0
   -2.3479    1.1525    0.0361 C   0  0  0  0  0  0
   -1.2803    0.2836    0.1996 C   0  0  0  0  0  0
    0.0375    0.7763    0.1796 C   0  0  0  0  0  0
    0.2823    2.1618    0.0480 C   0  0  0  0  0  0
   -0.8293    3.0071   -0.1452 C   0  0  0  0  0  0
    1.1374   -0.2370    0.2355 C   0  0  0  0  0  0
    2.1811   -0.1422    0.9955 N   0  0  0  0  0  0
    2.2988    1.0701    1.8060 C   0  0  0  0  0  0
    2.6348    2.2364    0.8845 C   0  0  0  0  0  0
    1.5935    2.7413    0.1012 N   0  0  0  0  0  0
    1.0401   -1.4472   -0.6432 C   0  0  0  0  0  0
    3.7728    2.7226    0.8816 O   0  0  0  0  0  0
   -3.5989    0.6740    0.0472 F   0  0  0  0  0  0
    0.5423   -1.3532   -1.9493 C   0  0  0  0  0  0
    0.4720   -2.4936   -2.7524 C   0  0  0  0  0  0
    0.9051   -3.7246   -2.2599 C   0  0  0  0  0  0
    1.4153   -3.8192   -0.9653 C   0  0  0  0  0  0
    1.4883   -2.6822   -0.1583 C   0  0  0  0  0  0
    1.8388    3.9801   -0.6340 C   0  0  0  0  0  0
   -2.9797    3.1774   -0.2815 H   0  0  0  0  0  0
   -1.4876   -0.7751    0.3307 H   0  0  0  0  0  0
   -0.7113    4.0832   -0.2558 H   0  0  0  0  0  0
    3.1297    0.9399    2.5082 H   0  0  0  0  0  0
    1.4095    1.2750    2.4124 H   0  0  0  0  0  0
    0.2178   -0.4005   -2.3618 H   0  0  0  0  0  0
    0.0833   -2.4207   -3.7668 H   0  0  0  0  0  0
    0.8500   -4.6119   -2.8888 H   0  0  0  0  0  0
    1.7582   -4.7795   -0.5840 H   0  0  0  0  0  0
    1.8887   -2.7675    0.8500 H   0  0  0  0  0  0
    2.9073    4.1225   -0.8215 H   0  0  0  0  0  0
    1.4849    4.8255   -0.0359 H   0  0  0  0  0  0
    1.3318    3.9542   -1.6039 H   0  0  0  0  0  0
  1  2  2  0  0  0
  1  6  1  0  0  0
  1 21  1  0  0  0
  2  3  1  0  0  0
  2 14  1  0  0  0
  3  4  2  0  0  0
  3 22  1  0  0  0
  4  5  1  0  0  0
  4  7  1  0  0  0
  5  6  2  0  0  0
  5 11  1  0  0  0
  6 23  1  0  0  0
  7  8  2  0  0  0
  7 12  1  0  0  0
  8  9  1  0  0  0
  9 10  1  0  0  0
  9 24  1  0  0  0
  9 25  1  0  0  0
 10 11  1  0  0  0
 10 13  2  0  0  0
 11 20  1  0  0  0
 12 15  2  0  0  0
 12 19  1  0  0  0
 15 16  1  0  0  0
 15 26  1  0  0  0
 16 17  2  0  0  0
 16 27  1  0  0  0
 17 18  1  0  0  0
 17 28  1  0  0  0
 18 19  2  0  0  0
 18 29  1  0  0  0
 19 30  1  0  0  0
 20 31  1  0  0  0
 20 32  1  0  0  0
 20 33  1  0  0  0
M  END
>  <Name>
Ro05-4865

>  <Family>
A.1

>  <IC50_uM>
0.017000

>  <set>
1

$$$$
Ro05-6820
  Cerius2 12180215283D 1   1.00000                          
 Structure written by MMmdl.
 30 32  0  0  0  0  0  0  0  0999 V2000
   -2.1018    2.4921   -0.2270 C   0  0  0  0  0  0
   -2.3205    1.1320   -0.0711 C   0  0  0  0  0  0
   -1.2617    0.2564    0.1356 C   0  0  0  0  0  0
    0.0533    0.7473    0.2024 C   0  0  0  0  0  0
    0.2804    2.1339    0.1127 C   0  0  0  0  0  0
   -0.8019    2.9911   -0.1421 C   0  0  0  0  0  0
    1.1726   -0.2489    0.2331 C   0  0  0  0  0  0
    2.2636   -0.1398    0.9184 N   0  0  0  0  0  0
    2.4265    1.0345    1.7734 C   0  0  0  0  0  0
    2.6283    2.2763    0.9203 C   0  0  0  0  0  0
    1.5358    2.7527    0.2436 N   0  0  0  0  0  0
    1.0440   -1.4583   -0.6290 C   0  0  0  0  0  0
    3.7038    2.8833    0.8843 O   0  0  0  0  0  0
   -3.5692    0.6519   -0.1417 F   0  0  0  0  0  0
    1.4653   -2.7071   -0.1553 C   0  0  0  0  0  0
    1.3314   -3.8366   -0.9665 C   0  0  0  0  0  0
    0.7759   -3.7227   -2.2426 C   0  0  0  0  0  0
    0.3505   -2.4791   -2.7115 C   0  0  0  0  0  0
    0.4828   -1.3531   -1.9029 C   0  0  0  0  0  0
    0.0889   -0.1656   -2.3877 F   0  0  0  0  0  0
   -2.9392    3.1613   -0.4029 H   0  0  0  0  0  0
   -1.4799   -0.8039    0.2252 H   0  0  0  0  0  0
   -0.6483    4.0645   -0.2437 H   0  0  0  0  0  0
    3.3223    0.8955    2.3885 H   0  0  0  0  0  0
    1.5871    1.1680    2.4654 H   0  0  0  0  0  0
    1.6426    3.6932   -0.1271 H   0  0  0  0  0  0
    1.8869   -2.8148    0.8419 H   0  0  0  0  0  0
    1.6579   -4.8093   -0.6013 H   0  0  0  0  0  0
    0.6735   -4.6053   -2.8719 H   0  0  0  0  0  0
   -0.0803   -2.3838   -3.7046 H   0  0  0  0  0  0
  1  2  2  0  0  0
  1  6  1  0  0  0
  1 21  1  0  0  0
  2  3  1  0  0  0
  2 14  1  0  0  0
  3  4  2  0  0  0
  3 22  1  0  0  0
  4  5  1  0  0  0
  4  7  1  0  0  0
  5  6  2  0  0  0
  5 11  1  0  0  0
  6 23  1  0  0  0
  7  8  2  0  0  0
  7 12  1  0  0  0
  8  9  1  0  0  0
  9 10  1  0  0  0
  9 24  1  0  0  0
  9 25  1  0  0  0
 10 11  1  0  0  0
 10 13  2  0  0  0
 11 26  1  0  0  0
 12 15  2  0  0  0
 12 19  1  0  0  0
 15 16  1  0  0  0
 15 27  1  0  0  0
 16 17  2  0  0  0
 16 28  1  0  0  0
 17 18  1  0  0  0
 17 29  1  0  0  0
 18 19  2  0  0  0
 18 30  1  0  0  0
 19 20  1  0  0  0
M  END
>  <Name>
Ro05-6820

>  <Family>
A.1

>  <IC50_uM>
0.007400

>  <set>
2

$$$$
Ro05-6822
  Cerius2 12180215283D 1   1.00000                          
 Structure written by MMmdl.
 33 35  0  0  0  0  0  0  0  0999 V2000
   -2.1328    2.4846   -0.1708 C   0  0  0  0  0  0
   -2.3383    1.1270    0.0000 C   0  0  0  0  0  0
   -1.2664    0.2647    0.1723 C   0  0  0  0  0  0
    0.0482    0.7670    0.1791 C   0  0  0  0  0  0
    0.2852    2.1550    0.0532 C   0  0  0  0  0  0
   -0.8313    2.9930   -0.1473 C   0  0  0  0  0  0
    1.1527   -0.2406    0.2439 C   0  0  0  0  0  0
    2.2050   -0.1364    0.9887 N   0  0  0  0  0  0
    2.3177    1.0733    1.8036 C   0  0  0  0  0  0
    2.6403    2.2456    0.8869 C   0  0  0  0  0  0
    1.5920    2.7452    0.1100 N   0  0  0  0  0  0
    1.0474   -1.4472   -0.6254 C   0  0  0  0  0  0
    3.7743    2.7410    0.8824 O   0  0  0  0  0  0
   -3.5856    0.6391   -0.0105 F   0  0  0  0  0  0
    1.4244   -2.7033   -0.1324 C   0  0  0  0  0  0
    1.3133   -3.8312   -0.9494 C   0  0  0  0  0  0
    0.8249   -3.7095   -2.2517 C   0  0  0  0  0  0
    0.4442   -2.4596   -2.7411 C   0  0  0  0  0  0
    0.5537   -1.3351   -1.9267 C   0  0  0  0  0  0
    0.2048   -0.1426   -2.4334 F   0  0  0  0  0  0
    1.8269    3.9893   -0.6205 C   0  0  0  0  0  0
   -2.9808    3.1496   -0.3095 H   0  0  0  0  0  0
   -1.4714   -0.7955    0.2929 H   0  0  0  0  0  0
   -0.7203    4.0706   -0.2513 H   0  0  0  0  0  0
    3.1521    0.9461    2.5021 H   0  0  0  0  0  0
    1.4292    1.2691    2.4142 H   0  0  0  0  0  0
    1.7929   -2.8196    0.8846 H   0  0  0  0  0  0
    1.6051   -4.8087   -0.5681 H   0  0  0  0  0  0
    0.7402   -4.5907   -2.8856 H   0  0  0  0  0  0
    0.0662   -2.3577   -3.7547 H   0  0  0  0  0  0
    2.8944    4.1442   -0.8043 H   0  0  0  0  0  0
    1.4621    4.8290   -0.0211 H   0  0  0  0  0  0
    1.3237    3.9609   -1.5922 H   0  0  0  0  0  0
  1  2  2  0  0  0
  1  6  1  0  0  0
  1 22  1  0  0  0
  2  3  1  0  0  0
  2 14  1  0  0  0
  3  4  2  0  0  0
  3 23  1  0  0  0
  4  5  1  0  0  0
  4  7  1  0  0  0
  5  6  2  0  0  0
  5 11  1  0  0  0
  6 24  1  0  0  0
  7  8  2  0  0  0
  7 12  1  0  0  0
  8  9  1  0  0  0
  9 10  1  0  0  0
  9 25  1  0  0  0
  9 26  1  0  0  0
 10 11  1  0  0  0
 10 13  2  0  0  0
 11 21  1  0  0  0
 12 15  2  0  0  0
 12 19  1  0  0  0
 15 16  1  0  0  0
 15 27  1  0  0  0
 16 17  2  0  0  0
 16 28  1  0  0  0
 17 18  1  0  0  0
 17 29  1  0  0  0
 18 19  2  0  0  0
 18 30  1  0  0  0
 19 20  1  0  0  0
 21 31  1  0  0  0
 21 32  1  0  0  0
 21 33  1  0  0  0
M  END
>  <Name>
Ro05-6822

>  <Family>
A.1

>  <IC50_uM>
0.005100

>  <set>
1

$$$$
Nordazepam
  Cerius2 12180215283D 1   1.00000                          
 Structure written by MMmdl.
 30 32  0  0  0  0  0  0  0  0999 V2000
   -2.1084    2.5047   -0.1811 C   0  0  0  0  0  0
   -2.3388    1.1450   -0.0054 C   0  0  0  0  0  0
   -1.2726    0.2696    0.1872 C   0  0  0  0  0  0
    0.0468    0.7560    0.2141 C   0  0  0  0  0  0
    0.2788    2.1393    0.1133 C   0  0  0  0  0  0
   -0.8032    2.9981   -0.1274 C   0  0  0  0  0  0
    1.1634   -0.2442    0.2282 C   0  0  0  0  0  0
    2.2512   -0.1423    0.9215 N   0  0  0  0  0  0
    2.4209    1.0363    1.7696 C   0  0  0  0  0  0
    2.6301    2.2713    0.9065 C   0  0  0  0  0  0
    1.5391    2.7511    0.2287 N   0  0  0  0  0  0
    1.0373   -1.4578   -0.6425 C   0  0  0  0  0  0
    3.7102    2.8696    0.8630 O   0  0  0  0  0  0
   -3.9478    0.5364   -0.0532 Cl  0  0  0  0  0  0
    0.5243   -1.3623   -1.9425 C   0  0  0  0  0  0
    0.4257   -2.5060   -2.7377 C   0  0  0  0  0  0
    0.8456   -3.7409   -2.2428 C   0  0  0  0  0  0
    1.3712   -3.8363   -0.9544 C   0  0  0  0  0  0
    1.4729   -2.6961   -0.1552 C   0  0  0  0  0  0
   -2.9354    3.1915   -0.3469 H   0  0  0  0  0  0
   -1.4721   -0.7940    0.2964 H   0  0  0  0  0  0
   -0.6470    4.0702   -0.2395 H   0  0  0  0  0  0
    3.3168    0.8963    2.3844 H   0  0  0  0  0  0
    1.5832    1.1789    2.4618 H   0  0  0  0  0  0
    1.6496    3.6884   -0.1487 H   0  0  0  0  0  0
    0.2098   -0.4058   -2.3541 H   0  0  0  0  0  0
    0.0250   -2.4328   -3.7474 H   0  0  0  0  0  0
    0.7680   -4.6307   -2.8656 H   0  0  0  0  0  0
    1.7038   -4.7998   -0.5722 H   0  0  0  0  0  0
    1.8851   -2.7805    0.8484 H   0  0  0  0  0  0
  1  2  2  0  0  0
  1  6  1  0  0  0
  1 20  1  0  0  0
  2  3  1  0  0  0
  2 14  1  0  0  0
  3  4  2  0  0  0
  3 21  1  0  0  0
  4  5  1  0  0  0
  4  7  1  0  0  0
  5  6  2  0  0  0
  5 11  1  0  0  0
  6 22  1  0  0  0
  7  8  2  0  0  0
  7 12  1  0  0  0
  8  9  1  0  0  0
  9 10  1  0  0  0
  9 23  1  0  0  0
  9 24  1  0  0  0
 10 11  1  0  0  0
 10 13  2  0  0  0
 11 25  1  0  0  0
 12 15  2  0  0  0
 12 19  1  0  0  0
 15 16  1  0  0  0
 15 26  1  0  0  0
 16 17  2  0  0  0
 16 27  1  0  0  0
 17 18  1  0  0  0
 17 28  1  0  0  0
 18 19  2  0  0  0
 18 29  1  0  0  0
 19 30  1  0  0  0
M  END
>  <Name>
Nordazepam

>  <Family>
A.1

>  <IC50_uM>
0.009400

>  <set>
0

$$$$
Diazepam
  Cerius2 12180215283D 1   1.00000                          
 Structure written by MMmdl.
 33 35  0  0  0  0  0  0  0  0999 V2000
   -2.1342    2.5047   -0.1521 C   0  0  0  0  0  0
   -2.3555    1.1478    0.0346 C   0  0  0  0  0  0
   -1.2801    0.2830    0.2006 C   0  0  0  0  0  0
    0.0387    0.7774    0.1802 C   0  0  0  0  0  0
    0.2840    2.1614    0.0479 C   0  0  0  0  0  0
   -0.8275    3.0043   -0.1470 C   0  0  0  0  0  0
    1.1390   -0.2359    0.2352 C   0  0  0  0  0  0
    2.1830   -0.1415    0.9948 N   0  0  0  0  0  0
    2.3005    1.0703    1.8061 C   0  0  0  0  0  0
    2.6360    2.2373    0.8853 C   0  0  0  0  0  0
    1.5947    2.7418    0.1019 N   0  0  0  0  0  0
    1.0411   -1.4461   -0.6438 C   0  0  0  0  0  0
    3.7738    2.7243    0.8832 O   0  0  0  0  0  0
   -3.9622    0.5331    0.0468 Cl  0  0  0  0  0  0
    0.5422   -1.3524   -1.9495 C   0  0  0  0  0  0
    0.4698   -2.4932   -2.7519 C   0  0  0  0  0  0
    0.9019   -3.7244   -2.2590 C   0  0  0  0  0  0
    1.4132   -3.8189   -0.9650 C   0  0  0  0  0  0
    1.4882   -2.6815   -0.1587 C   0  0  0  0  0  0
    1.8393    3.9815   -0.6320 C   0  0  0  0  0  0
   -2.9685    3.1896   -0.2882 H   0  0  0  0  0  0
   -1.4692   -0.7798    0.3353 H   0  0  0  0  0  0
   -0.7103    4.0805   -0.2589 H   0  0  0  0  0  0
    3.1318    0.9399    2.5079 H   0  0  0  0  0  0
    1.4114    1.2746    2.4129 H   0  0  0  0  0  0
    0.2181   -0.3996   -2.3622 H   0  0  0  0  0  0
    0.0801   -2.4204   -3.7659 H   0  0  0  0  0  0
    0.8450   -4.6119   -2.8874 H   0  0  0  0  0  0
    1.7552   -4.7794   -0.5835 H   0  0  0  0  0  0
    1.8889   -2.7670    0.8495 H   0  0  0  0  0  0
    2.9080    4.1270   -0.8160 H   0  0  0  0  0  0
    1.4813    4.8259   -0.0348 H   0  0  0  0  0  0
    1.3354    3.9545   -1.6034 H   0  0  0  0  0  0
  1  2  2  0  0  0
  1  6  1  0  0  0
  1 21  1  0  0  0
  2  3  1  0  0  0
  2 14  1  0  0  0
  3  4  2  0  0  0
  3 22  1  0  0  0
  4  5  1  0  0  0
  4  7  1  0  0  0
  5  6  2  0  0  0
  5 11  1  0  0  0
  6 23  1  0  0  0
  7  8  2  0  0  0
  7 12  1  0  0  0
  8  9  1  0  0  0
  9 10  1  0  0  0
  9 24  1  0  0  0
  9 25  1  0  0  0
 10 11  1  0  0  0
 10 13  2  0  0  0
 11 20  1  0  0  0
 12 15  2  0  0  0
 12 19  1  0  0  0
 15 16  1  0  0  0
 15 26  1  0  0  0
 16 17  2  0  0  0
 16 27  1  0  0  0
 17 18  1  0  0  0
 17 28  1  0  0  0
 18 19  2  0  0  0
 18 29  1  0  0  0
 19 30  1  0  0  0
 20 31  1  0  0  0
 20 32  1  0  0  0
 20 33  1  0  0  0
M  END
>  <Name>
Diazepam

>  <Family>
A.1

>  <IC50_uM>
0.008100

>  <set>
0

$$$$
Ro05-3367
  Cerius2 12180215283D 1   1.00000                          
 Structure written by MMmdl.
 30 32  0  0  0  0  0  0  0  0999 V2000
   -2.1072    2.4860   -0.1886 C   0  0  0  0  0  0
   -2.3299    1.1236   -0.0272 C   0  0  0  0  0  0
   -1.2598    0.2538    0.1704 C   0  0  0  0  0  0
    0.0562    0.7485    0.2201 C   0  0  0  0  0  0
    0.2805    2.1339    0.1255 C   0  0  0  0  0  0
   -0.8058    2.9871   -0.1189 C   0  0  0  0  0  0
    1.1777   -0.2458    0.2370 C   0  0  0  0  0  0
    2.2765   -0.1347    0.9095 N   0  0  0  0  0  0
    2.4470    1.0399    1.7626 C   0  0  0  0  0  0
    2.6368    2.2818    0.9070 C   0  0  0  0  0  0
    1.5360    2.7553    0.2415 N   0  0  0  0  0  0
    1.0413   -1.4550   -0.6247 C   0  0  0  0  0  0
    3.7104    2.8913    0.8592 O   0  0  0  0  0  0
   -3.9342    0.5045   -0.0987 Cl  0  0  0  0  0  0
    1.4708   -2.7037   -0.1574 C   0  0  0  0  0  0
    1.3311   -3.8324   -0.9686 C   0  0  0  0  0  0
    0.7613   -3.7183   -2.2383 C   0  0  0  0  0  0
    0.3279   -2.4753   -2.7011 C   0  0  0  0  0  0
    0.4663   -1.3499   -1.8925 C   0  0  0  0  0  0
    0.0647   -0.1628   -2.3722 F   0  0  0  0  0  0
   -2.9368    3.1686   -0.3582 H   0  0  0  0  0  0
   -1.4569   -0.8112    0.2688 H   0  0  0  0  0  0
   -0.6557    4.0606   -0.2248 H   0  0  0  0  0  0
    3.3501    0.9026    2.3673 H   0  0  0  0  0  0
    1.6153    1.1719    2.4642 H   0  0  0  0  0  0
    1.6368    3.6956   -0.1312 H   0  0  0  0  0  0
    1.9036   -2.8118    0.8348 H   0  0  0  0  0  0
    1.6639   -4.8046   -0.6083 H   0  0  0  0  0  0
    0.6544   -4.6004   -2.8677 H   0  0  0  0  0  0
   -0.1136   -2.3797   -3.6893 H   0  0  0  0  0  0
  1  2  2  0  0  0
  1  6  1  0  0  0
  1 21  1  0  0  0
  2  3  1  0  0  0
  2 14  1  0  0  0
  3  4  2  0  0  0
  3 22  1  0  0  0
  4  5  1  0  0  0
  4  7  1  0  0  0
  5  6  2  0  0  0
  5 11  1  0  0  0
  6 23  1  0  0  0
  7  8  2  0  0  0
  7 12  1  0  0  0
  8  9  1  0  0  0
  9 10  1  0  0  0
  9 24  1  0  0  0
  9 25  1  0  0  0
 10 11  1  0  0  0
 10 13  2  0  0  0
 11 26  1  0  0  0
 12 15  2  0  0  0
 12 19  1  0  0  0
 15 16  1  0  0  0
 15 27  1  0  0  0
 16 17  2  0  0  0
 16 28  1  0  0  0
 17 18  1  0  0  0
 17 29  1  0  0  0
 18 19  2  0  0  0
 18 30  1  0  0  0
 19 20  1  0  0  0
M  END
>  <Name>
Ro05-3367

>  <Family>
A.1

>  <IC50_uM>
0.002000

>  <set>
0

$$$$
Ro07-3953
  Cerius2 12180215283D 1   1.00000                          
 Structure written by MMmdl.
 30 32  0  0  0  0  0  0  0  0999 V2000
   -2.1074    2.4875   -0.1890 C   0  0  0  0  0  0
   -2.3309    1.1255   -0.0260 C   0  0  0  0  0  0
   -1.2615    0.2548    0.1732 C   0  0  0  0  0  0
    0.0549    0.7491    0.2213 C   0  0  0  0  0  0
    0.2799    2.1346    0.1259 C   0  0  0  0  0  0
   -0.8059    2.9880   -0.1191 C   0  0  0  0  0  0
    1.1767   -0.2450    0.2345 C   0  0  0  0  0  0
    2.2753   -0.1349    0.9077 N   0  0  0  0  0  0
    2.4471    1.0392    1.7619 C   0  0  0  0  0  0
    2.6367    2.2818    0.9071 C   0  0  0  0  0  0
    1.5359    2.7553    0.2421 N   0  0  0  0  0  0
    1.0412   -1.4530   -0.6228 C   0  0  0  0  0  0
    3.7104    2.8910    0.8594 O   0  0  0  0  0  0
   -3.9355    0.5071   -0.0976 Cl  0  0  0  0  0  0
    0.5200   -1.3523   -1.9132 C   0  0  0  0  0  0
    0.4009   -2.4802   -2.7229 C   0  0  0  0  0  0
    0.8115   -3.7248   -2.2430 C   0  0  0  0  0  0
    1.3409   -3.8334   -0.9560 C   0  0  0  0  0  0
    1.4563   -2.6988   -0.1542 C   0  0  0  0  0  0
    1.9463   -2.8395    1.0871 F   0  0  0  0  0  0
    0.1350   -0.1651   -2.4058 F   0  0  0  0  0  0
   -2.9366    3.1704   -0.3595 H   0  0  0  0  0  0
   -1.4608   -0.8093    0.2755 H   0  0  0  0  0  0
   -0.6552    4.0615   -0.2257 H   0  0  0  0  0  0
    3.3506    0.9007    2.3657 H   0  0  0  0  0  0
    1.6160    1.1708    2.4642 H   0  0  0  0  0  0
    1.6369    3.6957   -0.1305 H   0  0  0  0  0  0
   -0.0075   -2.3850   -3.7256 H   0  0  0  0  0  0
    0.7203   -4.6088   -2.8717 H   0  0  0  0  0  0
    1.6612   -4.7992   -0.5735 H   0  0  0  0  0  0
  1  2  2  0  0  0
  1  6  1  0  0  0
  1 22  1  0  0  0
  2  3  1  0  0  0
  2 14  1  0  0  0
  3  4  2  0  0  0
  3 23  1  0  0  0
  4  5  1  0  0  0
  4  7  1  0  0  0
  5  6  2  0  0  0
  5 11  1  0  0  0
  6 24  1  0  0  0
  7  8  2  0  0  0
  7 12  1  0  0  0
  8  9  1  0  0  0
  9 10  1  0  0  0
  9 25  1  0  0  0
  9 26  1  0  0  0
 10 11  1  0  0  0
 10 13  2  0  0  0
 11 27  1  0  0  0
 12 15  2  0  0  0
 12 19  1  0  0  0
 15 16  1  0  0  0
 15 21  1  0  0  0
 16 17  2  0  0  0
 16 28  1  0  0  0
 17 18  1  0  0  0
 17 29  1  0  0  0
 18 19  2  0  0  0
 18 30  1  0  0  0
 19 20  1  0  0  0
M  END
>  <Name>
Ro07-3953

>  <Family>
A.1

>  <IC50_uM>
0.001600

>  <set>
0

$$$$
Ro07-4065
  Cerius2 12180215283D 1   1.00000                          
 Structure written by MMmdl.
 33 35  0  0  0  0  0  0  0  0999 V2000
   -2.1323    2.4859   -0.1632 C   0  0  0  0  0  0
   -2.3467    1.1267    0.0124 C   0  0  0  0  0  0
   -1.2678    0.2673    0.1859 C   0  0  0  0  0  0
    0.0483    0.7703    0.1866 C   0  0  0  0  0  0
    0.2871    2.1564    0.0570 C   0  0  0  0  0  0
   -0.8288    2.9931   -0.1431 C   0  0  0  0  0  0
    1.1534   -0.2374    0.2444 C   0  0  0  0  0  0
    2.2077   -0.1351    0.9869 N   0  0  0  0  0  0
    2.3241    1.0745    1.8021 C   0  0  0  0  0  0
    2.6446    2.2467    0.8844 C   0  0  0  0  0  0
    1.5945    2.7457    0.1094 N   0  0  0  0  0  0
    1.0459   -1.4418   -0.6213 C   0  0  0  0  0  0
    3.7788    2.7416    0.8766 O   0  0  0  0  0  0
   -3.9495    0.5018    0.0027 Cl  0  0  0  0  0  0
    0.5367   -1.3400   -1.9167 C   0  0  0  0  0  0
    0.4419   -2.4636   -2.7355 C   0  0  0  0  0  0
    0.8645   -3.7057   -2.2603 C   0  0  0  0  0  0
    1.3819   -3.8159   -0.9686 C   0  0  0  0  0  0
    1.4732   -2.6855   -0.1576 C   0  0  0  0  0  0
    1.9513   -2.8301    1.0879 F   0  0  0  0  0  0
    0.1430   -0.1546   -2.4070 F   0  0  0  0  0  0
    1.8285    3.9880   -0.6245 C   0  0  0  0  0  0
   -2.9693    3.1665   -0.3043 H   0  0  0  0  0  0
   -1.4567   -0.7960    0.3157 H   0  0  0  0  0  0
   -0.7177    4.0703   -0.2507 H   0  0  0  0  0  0
    3.1610    0.9463    2.4976 H   0  0  0  0  0  0
    1.4378    1.2708    2.4157 H   0  0  0  0  0  0
    0.0431   -2.3667   -3.7420 H   0  0  0  0  0  0
    0.7924   -4.5864   -2.8960 H   0  0  0  0  0  0
    1.7113   -4.7799   -0.5894 H   0  0  0  0  0  0
    2.8956    4.1426   -0.8102 H   0  0  0  0  0  0
    1.4644    4.8292   -0.0264 H   0  0  0  0  0  0
    1.3238    3.9571   -1.5953 H   0  0  0  0  0  0
  1  2  2  0  0  0
  1  6  1  0  0  0
  1 23  1  0  0  0
  2  3  1  0  0  0
  2 14  1  0  0  0
  3  4  2  0  0  0
  3 24  1  0  0  0
  4  5  1  0  0  0
  4  7  1  0  0  0
  5  6  2  0  0  0
  5 11  1  0  0  0
  6 25  1  0  0  0
  7  8  2  0  0  0
  7 12  1  0  0  0
  8  9  1  0  0  0
  9 10  1  0  0  0
  9 26  1  0  0  0
  9 27  1  0  0  0
 10 11  1  0  0  0
 10 13  2  0  0  0
 11 22  1  0  0  0
 12 15  2  0  0  0
 12 19  1  0  0  0
 15 16  1  0  0  0
 15 21  1  0  0  0
 16 17  2  0  0  0
 16 28  1  0  0  0
 17 18  1  0  0  0
 17 29  1  0  0  0
 18 19  2  0  0  0
 18 30  1  0  0  0
 19 20  1  0  0  0
 22 31  1  0  0  0
 22 32  1  0  0  0
 22 33  1  0  0  0
M  END
>  <Name>
Ro07-4065

>  <Family>
A.1

>  <IC50_uM>
0.004100

>  <set>
0

$$$$
Delorazepam
  Cerius2 12180215283D 1   1.00000                          
 Structure written by MMmdl.
 30 32  0  0  0  0  0  0  0  0999 V2000
   -2.1058    2.4655   -0.2047 C   0  0  0  0  0  0
   -2.3219    1.1020   -0.0473 C   0  0  0  0  0  0
   -1.2488    0.2381    0.1604 C   0  0  0  0  0  0
    0.0642    0.7390    0.2282 C   0  0  0  0  0  0
    0.2816    2.1258    0.1297 C   0  0  0  0  0  0
   -0.8079    2.9728   -0.1238 C   0  0  0  0  0  0
    1.1911   -0.2482    0.2572 C   0  0  0  0  0  0
    2.3000   -0.1252    0.9096 N   0  0  0  0  0  0
    2.4695    1.0518    1.7585 C   0  0  0  0  0  0
    2.6420    2.2934    0.9010 C   0  0  0  0  0  0
    1.5330    2.7568    0.2432 N   0  0  0  0  0  0
    1.0507   -1.4673   -0.5877 C   0  0  0  0  0  0
    3.7094    2.9132    0.8459 O   0  0  0  0  0  0
   -3.9217    0.4733   -0.1355 Cl  0  0  0  0  0  0
    1.5129   -2.6835   -0.0650 C   0  0  0  0  0  0
    1.3928   -3.8529   -0.8164 C   0  0  0  0  0  0
    0.8118   -3.8113   -2.0835 C   0  0  0  0  0  0
    0.3502   -2.6001   -2.6049 C   0  0  0  0  0  0
    0.4662   -1.4232   -1.8596 C   0  0  0  0  0  0
   -0.0759    0.0499   -2.5821 Cl  0  0  0  0  0  0
   -2.9375    3.1436   -0.3819 H   0  0  0  0  0  0
   -1.4446   -0.8270    0.2555 H   0  0  0  0  0  0
   -0.6625    4.0470   -0.2309 H   0  0  0  0  0  0
    3.3783    0.9220    2.3562 H   0  0  0  0  0  0
    1.6426    1.1789    2.4668 H   0  0  0  0  0  0
    1.6251    3.6969   -0.1320 H   0  0  0  0  0  0
    1.9580   -2.7292    0.9269 H   0  0  0  0  0  0
    1.7499   -4.7987   -0.4123 H   0  0  0  0  0  0
    0.7190   -4.7246   -2.6693 H   0  0  0  0  0  0
   -0.0940   -2.5836   -3.5981 H   0  0  0  0  0  0
  1  2  2  0  0  0
  1  6  1  0  0  0
  1 21  1  0  0  0
  2  3  1  0  0  0
  2 14  1  0  0  0
  3  4  2  0  0  0
  3 22  1  0  0  0
  4  5  1  0  0  0
  4  7  1  0  0  0
  5  6  2  0  0  0
  5 11  1  0  0  0
  6 23  1  0  0  0
  7  8  2  0  0  0
  7 12  1  0  0  0
  8  9  1  0  0  0
  9 10  1  0  0  0
  9 24  1  0  0  0
  9 25  1  0  0  0
 10 11  1  0  0  0
 10 13  2  0  0  0
 11 26  1  0  0  0
 12 15  2  0  0  0
 12 19  1  0  0  0
 15 16  1  0  0  0
 15 27  1  0  0  0
 16 17  2  0  0  0
 16 28  1  0  0  0
 17 18  1  0  0  0
 17 29  1  0  0  0
 18 19  2  0  0  0
 18 30  1  0  0  0
 19 20  1  0  0  0
M  END
>  <Name>
Delorazepam

>  <Family>
A.1

>  <IC50_uM>
0.001800

>  <set>
0

$$$$
Ro07-5193
  Cerius2 12180215283D 1   1.00000                          
 Structure written by MMmdl.
 30 32  0  0  0  0  0  0  0  0999 V2000
   -2.1056    2.4670   -0.2077 C   0  0  0  0  0  0
   -2.3231    1.1043   -0.0444 C   0  0  0  0  0  0
   -1.2510    0.2397    0.1662 C   0  0  0  0  0  0
    0.0625    0.7398    0.2298 C   0  0  0  0  0  0
    0.2815    2.1262    0.1274 C   0  0  0  0  0  0
   -0.8071    2.9733   -0.1287 C   0  0  0  0  0  0
    1.1890   -0.2481    0.2576 C   0  0  0  0  0  0
    2.2963   -0.1257    0.9131 N   0  0  0  0  0  0
    2.4668    1.0528    1.7601 C   0  0  0  0  0  0
    2.6415    2.2927    0.9002 C   0  0  0  0  0  0
    1.5336    2.7559    0.2404 N   0  0  0  0  0  0
    1.0499   -1.4663   -0.5837 C   0  0  0  0  0  0
    3.7100    2.9106    0.8444 O   0  0  0  0  0  0
   -3.9238    0.4772   -0.1287 Cl  0  0  0  0  0  0
    1.5046   -2.6818   -0.0667 C   0  0  0  0  0  0
    1.3885   -3.8584   -0.8011 C   0  0  0  0  0  0
    0.8085   -3.8256   -2.0679 C   0  0  0  0  0  0
    0.3498   -2.6149   -2.5943 C   0  0  0  0  0  0
    0.4672   -1.4325   -1.8549 C   0  0  0  0  0  0
   -0.0723    0.0361   -2.5888 Cl  0  0  0  0  0  0
    2.0573   -2.7386    1.1549 F   0  0  0  0  0  0
   -2.9365    3.1454   -0.3873 H   0  0  0  0  0  0
   -1.4490   -0.8244    0.2686 H   0  0  0  0  0  0
   -0.6607    4.0471   -0.2394 H   0  0  0  0  0  0
    3.3752    0.9229    2.3585 H   0  0  0  0  0  0
    1.6396    1.1822    2.4676 H   0  0  0  0  0  0
    1.6271    3.6951   -0.1368 H   0  0  0  0  0  0
    1.7473   -4.7953   -0.3833 H   0  0  0  0  0  0
    0.7145   -4.7417   -2.6485 H   0  0  0  0  0  0
   -0.0945   -2.6025   -3.5879 H   0  0  0  0  0  0
  1  2  2  0  0  0
  1  6  1  0  0  0
  1 22  1  0  0  0
  2  3  1  0  0  0
  2 14  1  0  0  0
  3  4  2  0  0  0
  3 23  1  0  0  0
  4  5  1  0  0  0
  4  7  1  0  0  0
  5  6  2  0  0  0
  5 11  1  0  0  0
  6 24  1  0  0  0
  7  8  2  0  0  0
  7 12  1  0  0  0
  8  9  1  0  0  0
  9 10  1  0  0  0
  9 25  1  0  0  0
  9 26  1  0  0  0
 10 11  1  0  0  0
 10 13  2  0  0  0
 11 27  1  0  0  0
 12 15  2  0  0  0
 12 19  1  0  0  0
 15 16  1  0  0  0
 15 21  1  0  0  0
 16 17  2  0  0  0
 16 28  1  0  0  0
 17 18  1  0  0  0
 17 29  1  0  0  0
 18 19  2  0  0  0
 18 30  1  0  0  0
 19 20  1  0  0  0
M  END
>  <Name>
Ro07-5193

>  <Family>
A.1

>  <IC50_uM>
0.003000

>  <set>
0

$$$$
Ro22-3294
  Cerius2 12180215283D 1   1.00000                          
 Structure written by MMmdl.
 30 32  0  0  0  0  0  0  0  0999 V2000
   -2.1132    2.4875   -0.1669 C   0  0  0  0  0  0
   -2.3275    1.1202   -0.0496 C   0  0  0  0  0  0
   -1.2537    0.2514    0.1360 C   0  0  0  0  0  0
    0.0592    0.7498    0.2221 C   0  0  0  0  0  0
    0.2746    2.1400    0.1602 C   0  0  0  0  0  0
   -0.8160    2.9928   -0.0697 C   0  0  0  0  0  0
    1.1897   -0.2362    0.2216 C   0  0  0  0  0  0
    2.3047   -0.1248    0.8661 N   0  0  0  0  0  0
    2.4829    1.0318    1.7395 C   0  0  0  0  0  0
    2.6430    2.2941    0.9119 C   0  0  0  0  0  0
    1.5250    2.7714    0.2813 N   0  0  0  0  0  0
    1.0426   -1.4537   -0.6261 C   0  0  0  0  0  0
    3.7082    2.9177    0.8611 O   0  0  0  0  0  0
   -3.9260    0.4918   -0.1604 Cl  0  0  0  0  0  0
    0.5099   -1.3544   -1.9201 C   0  0  0  0  0  0
    0.3809   -2.4991   -2.7125 C   0  0  0  0  0  0
    0.7856   -3.7409   -2.2237 C   0  0  0  0  0  0
    1.3221   -3.8433   -0.9406 C   0  0  0  0  0  0
    1.4547   -2.7043   -0.1407 C   0  0  0  0  0  0
    2.0908   -2.9176    1.4544 Cl  0  0  0  0  0  0
    0.0106    0.1523   -2.6077 Cl  0  0  0  0  0  0
   -2.9451    3.1696   -0.3265 H   0  0  0  0  0  0
   -1.4542   -0.8146    0.2011 H   0  0  0  0  0  0
   -0.6714    4.0696   -0.1480 H   0  0  0  0  0  0
    3.3987    0.8893    2.3235 H   0  0  0  0  0  0
    1.6642    1.1402    2.4604 H   0  0  0  0  0  0
    1.6114    3.7210   -0.0707 H   0  0  0  0  0  0
   -0.0314   -2.4322   -3.7176 H   0  0  0  0  0  0
    0.6836   -4.6299   -2.8439 H   0  0  0  0  0  0
    1.6312   -4.8188   -0.5697 H   0  0  0  0  0  0
  1  2  2  0  0  0
  1  6  1  0  0  0
  1 22  1  0  0  0
  2  3  1  0  0  0
  2 14  1  0  0  0
  3  4  2  0  0  0
  3 23  1  0  0  0
  4  5  1  0  0  0
  4  7  1  0  0  0
  5  6  2  0  0  0
  5 11  1  0  0  0
  6 24  1  0  0  0
  7  8  2  0  0  0
  7 12  1  0  0  0
  8  9  1  0  0  0
  9 10  1  0  0  0
  9 25  1  0  0  0
  9 26  1  0  0  0
 10 11  1  0  0  0
 10 13  2  0  0  0
 11 27  1  0  0  0
 12 15  2  0  0  0
 12 19  1  0  0  0
 15 16  1  0  0  0
 15 21  1  0  0  0
 16 17  2  0  0  0
 16 28  1  0  0  0
 17 18  1  0  0  0
 17 29  1  0  0  0
 18 19  2  0  0  0
 18 30  1  0  0  0
 19 20  1  0  0  0
M  END
>  <Name>
Ro22-3294

>  <Family>
A.1

>  <IC50_uM>
0.007000

>  <set>
0

$$$$
Ro07-5220
  Cerius2 12180215283D 1   1.00000                          
 Structure written by MMmdl.
 33 35  0  0  0  0  0  0  0  0999 V2000
   -2.1358    2.4879   -0.1463 C   0  0  0  0  0  0
   -2.3446    1.1241   -0.0103 C   0  0  0  0  0  0
   -1.2630    0.2652    0.1516 C   0  0  0  0  0  0
    0.0516    0.7708    0.1857 C   0  0  0  0  0  0
    0.2842    2.1618    0.0825 C   0  0  0  0  0  0
   -0.8349    2.9982   -0.1037 C   0  0  0  0  0  0
    1.1638   -0.2314    0.2343 C   0  0  0  0  0  0
    2.2349   -0.1291    0.9515 N   0  0  0  0  0  0
    2.3552    1.0671    1.7829 C   0  0  0  0  0  0
    2.6539    2.2546    0.8814 C   0  0  0  0  0  0
    1.5890    2.7594    0.1325 N   0  0  0  0  0  0
    1.0458   -1.4448   -0.6223 C   0  0  0  0  0  0
    3.7843    2.7579    0.8666 O   0  0  0  0  0  0
   -3.9441    0.4917   -0.0527 Cl  0  0  0  0  0  0
    0.5277   -1.3438   -1.9223 C   0  0  0  0  0  0
    0.4259   -2.4839   -2.7253 C   0  0  0  0  0  0
    0.8439   -3.7231   -2.2417 C   0  0  0  0  0  0
    1.3670   -3.8273   -0.9534 C   0  0  0  0  0  0
    1.4723   -2.6929   -0.1427 C   0  0  0  0  0  0
    2.0937   -2.9113    1.4577 Cl  0  0  0  0  0  0
    0.0184    0.1609   -2.6079 Cl  0  0  0  0  0  0
    1.8087    4.0107   -0.5906 C   0  0  0  0  0  0
   -2.9743    3.1683   -0.2769 H   0  0  0  0  0  0
   -1.4560   -0.7998    0.2499 H   0  0  0  0  0  0
   -0.7277    4.0781   -0.1867 H   0  0  0  0  0  0
    3.2019    0.9336    2.4653 H   0  0  0  0  0  0
    1.4761    1.2478    2.4114 H   0  0  0  0  0  0
    0.0254   -2.4151   -3.7352 H   0  0  0  0  0  0
    0.7633   -4.6085   -2.8702 H   0  0  0  0  0  0
    1.6873   -4.8008   -0.5867 H   0  0  0  0  0  0
    2.8728    4.1740   -0.7856 H   0  0  0  0  0  0
    1.4457    4.8436    0.0195 H   0  0  0  0  0  0
    1.2952    3.9869   -1.5572 H   0  0  0  0  0  0
  1  2  2  0  0  0
  1  6  1  0  0  0
  1 23  1  0  0  0
  2  3  1  0  0  0
  2 14  1  0  0  0
  3  4  2  0  0  0
  3 24  1  0  0  0
  4  5  1  0  0  0
  4  7  1  0  0  0
  5  6  2  0  0  0
  5 11  1  0  0  0
  6 25  1  0  0  0
  7  8  2  0  0  0
  7 12  1  0  0  0
  8  9  1  0  0  0
  9 10  1  0  0  0
  9 26  1  0  0  0
  9 27  1  0  0  0
 10 11  1  0  0  0
 10 13  2  0  0  0
 11 22  1  0  0  0
 12 15  2  0  0  0
 12 19  1  0  0  0
 15 16  1  0  0  0
 15 21  1  0  0  0
 16 17  2  0  0  0
 16 28  1  0  0  0
 17 18  1  0  0  0
 17 29  1  0  0  0
 18 19  2  0  0  0
 18 30  1  0  0  0
 19 20  1  0  0  0
 22 31  1  0  0  0
 22 32  1  0  0  0
 22 33  1  0  0  0
M  END
>  <Name>
Ro07-5220

>  <Family>
A.1

>  <IC50_uM>
0.005500

>  <set>
0

$$$$
Ro13-3780
  Cerius2 12180215283D 1   1.00000                          
 Structure written by MMmdl.
 33 35  0  0  0  0  0  0  0  0999 V2000
   -2.1329    2.4832   -0.1750 C   0  0  0  0  0  0
   -2.3469    1.1238    0.0011 C   0  0  0  0  0  0
   -1.2682    0.2643    0.1781 C   0  0  0  0  0  0
    0.0478    0.7679    0.1822 C   0  0  0  0  0  0
    0.2863    2.1540    0.0529 C   0  0  0  0  0  0
   -0.8294    2.9899   -0.1512 C   0  0  0  0  0  0
    1.1532   -0.2391    0.2436 C   0  0  0  0  0  0
    2.2052   -0.1365    0.9894 N   0  0  0  0  0  0
    2.3182    1.0734    1.8047 C   0  0  0  0  0  0
    2.6411    2.2455    0.8876 C   0  0  0  0  0  0
    1.5933    2.7439    0.1093 N   0  0  0  0  0  0
    1.0488   -1.4430   -0.6227 C   0  0  0  0  0  0
    3.7751    2.7408    0.8833 O   0  0  0  0  0  0
   -4.1077    0.4373   -0.0136 Br  0  0  0  0  0  0
    0.5408   -1.3412   -1.9185 C   0  0  0  0  0  0
    0.4483   -2.4646   -2.7379 C   0  0  0  0  0  0
    0.8724   -3.7062   -2.2628 C   0  0  0  0  0  0
    1.3885   -3.8164   -0.9706 C   0  0  0  0  0  0
    1.4775   -2.6862   -0.1590 C   0  0  0  0  0  0
    1.9546   -2.8305    1.0868 F   0  0  0  0  0  0
    0.1460   -0.1561   -2.4086 F   0  0  0  0  0  0
    1.8290    3.9864   -0.6238 C   0  0  0  0  0  0
   -2.9674    3.1664   -0.3192 H   0  0  0  0  0  0
   -1.4536   -0.7998    0.3084 H   0  0  0  0  0  0
   -0.7180    4.0672   -0.2589 H   0  0  0  0  0  0
    3.1528    0.9459    2.5030 H   0  0  0  0  0  0
    1.4298    1.2694    2.4153 H   0  0  0  0  0  0
    0.0505   -2.3677   -3.7448 H   0  0  0  0  0  0
    0.8021   -4.5868   -2.8989 H   0  0  0  0  0  0
    1.7190   -4.7800   -0.5915 H   0  0  0  0  0  0
    2.8966    4.1409   -0.8069 H   0  0  0  0  0  0
    1.4637    4.8275   -0.0263 H   0  0  0  0  0  0
    1.3265    3.9560   -1.5959 H   0  0  0  0  0  0
  1  2  2  0  0  0
  1  6  1  0  0  0
  1 23  1  0  0  0
  2  3  1  0  0  0
  2 14  1  0  0  0
  3  4  2  0  0  0
  3 24  1  0  0  0
  4  5  1  0  0  0
  4  7  1  0  0  0
  5  6  2  0  0  0
  5 11  1  0  0  0
  6 25  1  0  0  0
  7  8  2  0  0  0
  7 12  1  0  0  0
  8  9  1  0  0  0
  9 10  1  0  0  0
  9 26  1  0  0  0
  9 27  1  0  0  0
 10 11  1  0  0  0
 10 13  2  0  0  0
 11 22  1  0  0  0
 12 15  2  0  0  0
 12 19  1  0  0  0
 15 16  1  0  0  0
 15 21  1  0  0  0
 16 17  2  0  0  0
 16 28  1  0  0  0
 17 18  1  0  0  0
 17 29  1  0  0  0
 18 19  2  0  0  0
 18 30  1  0  0  0
 19 20  1  0  0  0
 22 31  1  0  0  0
 22 32  1  0  0  0
 22 33  1  0  0  0
M  END
>  <Name>
Ro13-3780

>  <Family>
A.1

>  <IC50_uM>
0.002400

>  <set>
0

$$$$
Ro07-9957
  Cerius2 12180215283D 1   1.00000                          
 Structure written by MMmdl.
 33 35  0  0  0  0  0  0  0  0999 V2000
   -2.1327    2.4835   -0.1744 C   0  0  0  0  0  0
   -2.3490    1.1239    0.0026 C   0  0  0  0  0  0
   -1.2686    0.2649    0.1790 C   0  0  0  0  0  0
    0.0482    0.7680    0.1821 C   0  0  0  0  0  0
    0.2871    2.1534    0.0518 C   0  0  0  0  0  0
   -0.8284    2.9891   -0.1519 C   0  0  0  0  0  0
    1.1530   -0.2401    0.2459 C   0  0  0  0  0  0
    2.2055   -0.1359    0.9907 N   0  0  0  0  0  0
    2.3179    1.0741    1.8050 C   0  0  0  0  0  0
    2.6412    2.2456    0.8873 C   0  0  0  0  0  0
    1.5941    2.7436    0.1080 N   0  0  0  0  0  0
    1.0478   -1.4459   -0.6249 C   0  0  0  0  0  0
    3.7749    2.7417    0.8841 O   0  0  0  0  0  0
   -4.2848    0.3706   -0.0116 I   0  0  0  0  0  0
    1.4252   -2.7028   -0.1341 C   0  0  0  0  0  0
    1.3144   -3.8296   -0.9526 C   0  0  0  0  0  0
    0.8256   -3.7065   -2.2546 C   0  0  0  0  0  0
    0.4447   -2.4561   -2.7421 C   0  0  0  0  0  0
    0.5540   -1.3324   -1.9263 C   0  0  0  0  0  0
    0.2050   -0.1397   -2.4320 F   0  0  0  0  0  0
    1.8295    3.9863   -0.6244 C   0  0  0  0  0  0
   -2.9632    3.1719   -0.3187 H   0  0  0  0  0  0
   -1.4471   -0.8007    0.3082 H   0  0  0  0  0  0
   -0.7166    4.0663   -0.2602 H   0  0  0  0  0  0
    3.1523    0.9472    2.5037 H   0  0  0  0  0  0
    1.4294    1.2706    2.4152 H   0  0  0  0  0  0
    1.7944   -2.8205    0.8824 H   0  0  0  0  0  0
    1.6069   -4.8075   -0.5728 H   0  0  0  0  0  0
    0.7412   -4.5869   -2.8896 H   0  0  0  0  0  0
    0.0666   -2.3529   -3.7556 H   0  0  0  0  0  0
    2.8972    4.1407   -0.8079 H   0  0  0  0  0  0
    1.4646    4.8272   -0.0265 H   0  0  0  0  0  0
    1.3268    3.9564   -1.5964 H   0  0  0  0  0  0
  1  2  2  0  0  0
  1  6  1  0  0  0
  1 22  1  0  0  0
  2  3  1  0  0  0
  2 14  1  0  0  0
  3  4  2  0  0  0
  3 23  1  0  0  0
  4  5  1  0  0  0
  4  7  1  0  0  0
  5  6  2  0  0  0
  5 11  1  0  0  0
  6 24  1  0  0  0
  7  8  2  0  0  0
  7 12  1  0  0  0
  8  9  1  0  0  0
  9 10  1  0  0  0
  9 25  1  0  0  0
  9 26  1  0  0  0
 10 11  1  0  0  0
 10 13  2  0  0  0
 11 21  1  0  0  0
 12 15  2  0  0  0
 12 19  1  0  0  0
 15 16  1  0  0  0
 15 27  1  0  0  0
 16 17  2  0  0  0
 16 28  1  0  0  0
 17 18  1  0  0  0
 17 29  1  0  0  0
 18 19  2  0  0  0
 18 30  1  0  0  0
 19 20  1  0  0  0
 21 31  1  0  0  0
 21 32  1  0  0  0
 21 33  1  0  0  0
M  END
>  <Name>
Ro07-9957

>  <Family>
A.1

>  <IC50_uM>
0.002900

>  <set>
0

$$$$
Ro05-2904
  Cerius2 12180215283D 1   1.00000                          
 Structure written by MMmdl.
 33 35  0  0  0  0  0  0  0  0999 V2000
   -2.1010    2.5081   -0.2181 C   0  0  0  0  0  0
   -2.3608    1.1460   -0.0334 C   0  0  0  0  0  0
   -1.2757    0.2775    0.1661 C   0  0  0  0  0  0
    0.0480    0.7587    0.2049 C   0  0  0  0  0  0
    0.2847    2.1393    0.1035 C   0  0  0  0  0  0
   -0.7930    2.9975   -0.1523 C   0  0  0  0  0  0
    1.1628   -0.2444    0.2275 C   0  0  0  0  0  0
    2.2454   -0.1453    0.9295 N   0  0  0  0  0  0
    2.4102    1.0330    1.7790 C   0  0  0  0  0  0
    2.6287    2.2680    0.9180 C   0  0  0  0  0  0
    1.5450    2.7492    0.2299 N   0  0  0  0  0  0
    1.0402   -1.4574   -0.6450 C   0  0  0  0  0  0
    3.7100    2.8650    0.8847 O   0  0  0  0  0  0
    0.5285   -1.3615   -1.9455 C   0  0  0  0  0  0
    0.4312   -2.5046   -2.7416 C   0  0  0  0  0  0
    0.8518   -3.7395   -2.2474 C   0  0  0  0  0  0
    1.3765   -3.8354   -0.9586 C   0  0  0  0  0  0
    1.4764   -2.6958   -0.1584 C   0  0  0  0  0  0
   -3.7675    0.6063   -0.1060 C   0  0  0  0  0  0
   -4.0074   -0.3982    0.7908 F   0  0  0  0  0  0
   -4.0675    0.0809   -1.3320 F   0  0  0  0  0  0
   -4.7331    1.5435    0.1369 F   0  0  0  0  0  0
   -2.9185    3.2053   -0.4018 H   0  0  0  0  0  0
   -1.4722   -0.7895    0.2740 H   0  0  0  0  0  0
   -0.6326    4.0687   -0.2696 H   0  0  0  0  0  0
    3.3008    0.8913    2.4011 H   0  0  0  0  0  0
    1.5673    1.1772    2.4644 H   0  0  0  0  0  0
    1.6602    3.6858   -0.1475 H   0  0  0  0  0  0
    0.2138   -0.4049   -2.3569 H   0  0  0  0  0  0
    0.0314   -2.4311   -3.7517 H   0  0  0  0  0  0
    0.7755   -4.6290   -2.8709 H   0  0  0  0  0  0
    1.7096   -4.7989   -0.5767 H   0  0  0  0  0  0
    1.8877   -2.7806    0.8456 H   0  0  0  0  0  0
  1  2  2  0  0  0
  1  6  1  0  0  0
  1 23  1  0  0  0
  2  3  1  0  0  0
  2 19  1  0  0  0
  3  4  2  0  0  0
  3 24  1  0  0  0
  4  5  1  0  0  0
  4  7  1  0  0  0
  5  6  2  0  0  0
  5 11  1  0  0  0
  6 25  1  0  0  0
  7  8  2  0  0  0
  7 12  1  0  0  0
  8  9  1  0  0  0
  9 10  1  0  0  0
  9 26  1  0  0  0
  9 27  1  0  0  0
 10 11  1  0  0  0
 10 13  2  0  0  0
 11 28  1  0  0  0
 12 14  2  0  0  0
 12 18  1  0  0  0
 14 15  1  0  0  0
 14 29  1  0  0  0
 15 16  2  0  0  0
 15 30  1  0  0  0
 16 17  1  0  0  0
 16 31  1  0  0  0
 17 18  2  0  0  0
 17 32  1  0  0  0
 18 33  1  0  0  0
 19 20  1  0  0  0
 19 21  1  0  0  0
 19 22  1  0  0  0
M  END
>  <Name>
Ro05-2904

>  <Family>
A.1

>  <IC50_uM>
0.013000

>  <set>
1

$$$$
Ro14-3074
  Cerius2 12180215283D 1   1.00000                          
 Structure written by MMmdl.
 32 34  0  0  0  0  0  0  0  0999 V2000
   -2.0853    2.5208   -0.1904 C   0  0  0  0  0  0
   -2.3659    1.1646   -0.0023 C   0  0  0  0  0  0
   -1.2856    0.2913    0.1878 C   0  0  0  0  0  0
    0.0427    0.7636    0.1967 C   0  0  0  0  0  0
    0.2958    2.1375    0.0852 C   0  0  0  0  0  0
   -0.7742    3.0046   -0.1541 C   0  0  0  0  0  0
    1.1477   -0.2433    0.2089 C   0  0  0  0  0  0
    2.2229   -0.1505    0.9158 N   0  0  0  0  0  0
    2.4281    1.0172    1.7641 C   0  0  0  0  0  0
    2.6294    2.2646    0.9209 C   0  0  0  0  0  0
    1.5639    2.7257    0.1926 N   0  0  0  0  0  0
    1.0282   -1.4573   -0.6574 C   0  0  0  0  0  0
    3.6701    2.9233    0.9482 O   0  0  0  0  0  0
    1.4729   -2.6903   -0.1619 C   0  0  0  0  0  0
    1.3867   -3.8377   -0.9544 C   0  0  0  0  0  0
    0.8664   -3.7585   -2.2469 C   0  0  0  0  0  0
    0.4385   -2.5303   -2.7510 C   0  0  0  0  0  0
    0.5265   -1.3872   -1.9591 C   0  0  0  0  0  0
    0.1306   -0.2197   -2.4869 F   0  0  0  0  0  0
   -3.7237    0.7934   -0.0355 N   0  0  0  0  0  0
   -3.9774   -0.4154    0.1071 N   0  3  0  0  0  0
   -4.2199   -1.5223    0.2382 N   0  5  0  0  0  0
   -2.9050    3.2184   -0.3554 H   0  0  0  0  0  0
   -1.4605   -0.7743    0.3132 H   0  0  0  0  0  0
   -0.6100    4.0728   -0.2774 H   0  0  0  0  0  0
    3.3372    0.8592    2.3549 H   0  0  0  0  0  0
    1.6106    1.1642    2.4791 H   0  0  0  0  0  0
    1.7044    3.6672   -0.1524 H   0  0  0  0  0  0
    1.8923   -2.7589    0.8398 H   0  0  0  0  0  0
    1.7346   -4.7921   -0.5648 H   0  0  0  0  0  0
    0.8060   -4.6517   -2.8644 H   0  0  0  0  0  0
    0.0463   -2.4545   -3.7607 H   0  0  0  0  0  0
  1  2  2  0  0  0
  1  6  1  0  0  0
  1 23  1  0  0  0
  2  3  1  0  0  0
  2 20  1  0  0  0
  3  4  2  0  0  0
  3 24  1  0  0  0
  4  5  1  0  0  0
  4  7  1  0  0  0
  5  6  2  0  0  0
  5 11  1  0  0  0
  6 25  1  0  0  0
  7  8  2  0  0  0
  7 12  1  0  0  0
  8  9  1  0  0  0
  9 10  1  0  0  0
  9 26  1  0  0  0
  9 27  1  0  0  0
 10 11  1  0  0  0
 10 13  2  0  0  0
 11 28  1  0  0  0
 12 14  2  0  0  0
 12 18  1  0  0  0
 14 15  1  0  0  0
 14 29  1  0  0  0
 15 16  2  0  0  0
 15 30  1  0  0  0
 16 17  1  0  0  0
 16 31  1  0  0  0
 17 18  2  0  0  0
 17 32  1  0  0  0
 18 19  1  0  0  0
 20 21  2  0  0  0
 21 22  2  0  0  0
M  CHG  2  21   1  22  -1
M  END
>  <Name>
Ro14-3074

>  <Family>
A.1

>  <IC50_uM>
0.005300

>  <set>
1

$$$$
Nitrazepam
  Cerius2 12180215283D 1   1.00000                          
 Structure written by MMmdl.
 32 34  0  0  0  0  0  0  0  0999 V2000
   -2.1048    2.5213   -0.2110 C   0  0  0  0  0  0
   -2.3451    1.1566   -0.0319 C   0  0  0  0  0  0
   -1.2785    0.2714    0.1702 C   0  0  0  0  0  0
    0.0430    0.7560    0.2040 C   0  0  0  0  0  0
    0.2814    2.1390    0.1014 C   0  0  0  0  0  0
   -0.7945    3.0039   -0.1494 C   0  0  0  0  0  0
    1.1587   -0.2463    0.2281 C   0  0  0  0  0  0
    2.2402   -0.1464    0.9310 N   0  0  0  0  0  0
    2.4059    1.0328    1.7789 C   0  0  0  0  0  0
    2.6265    2.2652    0.9148 C   0  0  0  0  0  0
    1.5431    2.7460    0.2254 N   0  0  0  0  0  0
    1.0388   -1.4592   -0.6445 C   0  0  0  0  0  0
    3.7086    2.8605    0.8799 O   0  0  0  0  0  0
    0.5293   -1.3633   -1.9456 C   0  0  0  0  0  0
    0.4370   -2.5061   -2.7429 C   0  0  0  0  0  0
    0.8597   -3.7403   -2.2488 C   0  0  0  0  0  0
    1.3820   -3.8360   -0.9590 C   0  0  0  0  0  0
    1.4773   -2.6968   -0.1577 C   0  0  0  0  0  0
   -3.7215    0.6456   -0.0772 N   0  3  0  0  0  0
   -3.9043   -0.5745    0.0937 O   0  0  0  0  0  0
   -4.6463    1.4543   -0.2830 O   0  5  0  0  0  0
   -2.9168    3.2240   -0.3845 H   0  0  0  0  0  0
   -1.4682   -0.7937    0.2836 H   0  0  0  0  0  0
   -0.6295    4.0748   -0.2631 H   0  0  0  0  0  0
    3.2959    0.8912    2.4018 H   0  0  0  0  0  0
    1.5625    1.1795    2.4632 H   0  0  0  0  0  0
    1.6606    3.6819   -0.1534 H   0  0  0  0  0  0
    0.2135   -0.4071   -2.3571 H   0  0  0  0  0  0
    0.0392   -2.4328   -3.7538 H   0  0  0  0  0  0
    0.7872   -4.6295   -2.8733 H   0  0  0  0  0  0
    1.7170   -4.7988   -0.5773 H   0  0  0  0  0  0
    1.8872   -2.7811    0.8469 H   0  0  0  0  0  0
  1  2  2  0  0  0
  1  6  1  0  0  0
  1 22  1  0  0  0
  2  3  1  0  0  0
  2 19  1  0  0  0
  3  4  2  0  0  0
  3 23  1  0  0  0
  4  5  1  0  0  0
  4  7  1  0  0  0
  5  6  2  0  0  0
  5 11  1  0  0  0
  6 24  1  0  0  0
  7  8  2  0  0  0
  7 12  1  0  0  0
  8  9  1  0  0  0
  9 10  1  0  0  0
  9 25  1  0  0  0
  9 26  1  0  0  0
 10 11  1  0  0  0
 10 13  2  0  0  0
 11 27  1  0  0  0
 12 14  2  0  0  0
 12 18  1  0  0  0
 14 15  1  0  0  0
 14 28  1  0  0  0
 15 16  2  0  0  0
 15 29  1  0  0  0
 16 17  1  0  0  0
 16 30  1  0  0  0
 17 18  2  0  0  0
 17 31  1  0  0  0
 18 32  1  0  0  0
 19 20  2  0  0  0
 19 21  1  0  0  0
M  CHG  2  19   1  21  -1
M  END
>  <Name>
Nitrazepam

>  <Family>
A.1

>  <IC50_uM>
0.010000

>  <set>
2

$$$$
Ro05-4435
  Cerius2 12180215283D 1   1.00000                          
 Structure written by MMmdl.
 32 34  0  0  0  0  0  0  0  0999 V2000
   -2.1035    2.5016   -0.2292 C   0  0  0  0  0  0
   -2.3372    1.1345   -0.0630 C   0  0  0  0  0  0
   -1.2675    0.2545    0.1475 C   0  0  0  0  0  0
    0.0506    0.7468    0.2062 C   0  0  0  0  0  0
    0.2820    2.1318    0.1085 C   0  0  0  0  0  0
   -0.7970    2.9912   -0.1496 C   0  0  0  0  0  0
    1.1712   -0.2501    0.2367 C   0  0  0  0  0  0
    2.2613   -0.1404    0.9233 N   0  0  0  0  0  0
    2.4245    1.0355    1.7756 C   0  0  0  0  0  0
    2.6296    2.2738    0.9180 C   0  0  0  0  0  0
    1.5391    2.7479    0.2363 N   0  0  0  0  0  0
    1.0448   -1.4587   -0.6277 C   0  0  0  0  0  0
    3.7058    2.8795    0.8818 O   0  0  0  0  0  0
    1.4674   -2.7080   -0.1556 C   0  0  0  0  0  0
    1.3356   -3.8366   -0.9682 C   0  0  0  0  0  0
    0.7806   -3.7221   -2.2445 C   0  0  0  0  0  0
    0.3538   -2.4786   -2.7120 C   0  0  0  0  0  0
    0.4842   -1.3532   -1.9020 C   0  0  0  0  0  0
   -3.7100    0.6154   -0.1301 N   0  3  0  0  0  0
   -3.8877   -0.6059    0.0369 O   0  0  0  0  0  0
   -4.6362    1.4186   -0.3501 O   0  5  0  0  0  0
    0.0889   -0.1660   -2.3864 F   0  0  0  0  0  0
   -2.9176    3.2005   -0.4086 H   0  0  0  0  0  0
   -1.4553   -0.8118    0.2513 H   0  0  0  0  0  0
   -0.6373    4.0635   -0.2577 H   0  0  0  0  0  0
    3.3192    0.8971    2.3924 H   0  0  0  0  0  0
    1.5842    1.1726    2.4658 H   0  0  0  0  0  0
    1.6484    3.6862   -0.1391 H   0  0  0  0  0  0
    1.8876   -2.8173    0.8419 H   0  0  0  0  0  0
    1.6629   -4.8093   -0.6039 H   0  0  0  0  0  0
    0.6798   -4.6040   -2.8749 H   0  0  0  0  0  0
   -0.0766   -2.3826   -3.7052 H   0  0  0  0  0  0
  1  2  2  0  0  0
  1  6  1  0  0  0
  1 23  1  0  0  0
  2  3  1  0  0  0
  2 19  1  0  0  0
  3  4  2  0  0  0
  3 24  1  0  0  0
  4  5  1  0  0  0
  4  7  1  0  0  0
  5  6  2  0  0  0
  5 11  1  0  0  0
  6 25  1  0  0  0
  7  8  2  0  0  0
  7 12  1  0  0  0
  8  9  1  0  0  0
  9 10  1  0  0  0
  9 26  1  0  0  0
  9 27  1  0  0  0
 10 11  1  0  0  0
 10 13  2  0  0  0
 11 28  1  0  0  0
 12 14  2  0  0  0
 12 18  1  0  0  0
 14 15  1  0  0  0
 14 29  1  0  0  0
 15 16  2  0  0  0
 15 30  1  0  0  0
 16 17  1  0  0  0
 16 31  1  0  0  0
 17 18  2  0  0  0
 17 32  1  0  0  0
 18 22  1  0  0  0
 19 20  2  0  0  0
 19 21  1  0  0  0
M  CHG  2  19   1  21  -1
M  END
>  <Name>
Ro05-4435

>  <Family>
A.1

>  <IC50_uM>
0.001500

>  <set>
2

$$$$
Flunitrazepam
  Cerius2 12180215283D 1   1.00000                          
 Structure written by MMmdl.
 35 37  0  0  0  0  0  0  0  0999 V2000
   -2.1357    2.4944   -0.1711 C   0  0  0  0  0  0
   -2.3558    1.1298    0.0096 C   0  0  0  0  0  0
   -1.2730    0.2632    0.1852 C   0  0  0  0  0  0
    0.0445    0.7668    0.1839 C   0  0  0  0  0  0
    0.2858    2.1530    0.0506 C   0  0  0  0  0  0
   -0.8275    2.9934   -0.1522 C   0  0  0  0  0  0
    1.1505   -0.2414    0.2480 C   0  0  0  0  0  0
    2.2017   -0.1366    0.9942 N   0  0  0  0  0  0
    2.3149    1.0745    1.8067 C   0  0  0  0  0  0
    2.6405    2.2432    0.8863 C   0  0  0  0  0  0
    1.5944    2.7398    0.1040 N   0  0  0  0  0  0
    1.0479   -1.4468   -0.6242 C   0  0  0  0  0  0
    3.7749    2.7380    0.8824 O   0  0  0  0  0  0
    1.4264   -2.7034   -0.1337 C   0  0  0  0  0  0
    1.3171   -3.8301   -0.9527 C   0  0  0  0  0  0
    0.8283   -3.7073   -2.2546 C   0  0  0  0  0  0
    0.4457   -2.4572   -2.7417 C   0  0  0  0  0  0
    0.5537   -1.3337   -1.9255 C   0  0  0  0  0  0
   -3.7265    0.6018    0.0055 N   0  3  0  0  0  0
   -3.8889   -0.6192    0.1896 O   0  0  0  0  0  0
   -4.6662    1.3976   -0.1811 O   0  5  0  0  0  0
    0.2029   -0.1413   -2.4309 F   0  0  0  0  0  0
    1.8335    3.9789   -0.6336 C   0  0  0  0  0  0
   -2.9606    3.1893   -0.3142 H   0  0  0  0  0  0
   -1.4471   -0.8024    0.3176 H   0  0  0  0  0  0
   -0.7107    4.0702   -0.2621 H   0  0  0  0  0  0
    3.1484    0.9481    2.5065 H   0  0  0  0  0  0
    1.4259    1.2736    2.4154 H   0  0  0  0  0  0
    1.7942   -2.8219    0.8832 H   0  0  0  0  0  0
    1.6102   -4.8079   -0.5730 H   0  0  0  0  0  0
    0.7449   -4.5876   -2.8899 H   0  0  0  0  0  0
    0.0673   -2.3542   -3.7552 H   0  0  0  0  0  0
    2.9013    4.1276   -0.8203 H   0  0  0  0  0  0
    1.4739    4.8235   -0.0376 H   0  0  0  0  0  0
    1.3282    3.9477   -1.6040 H   0  0  0  0  0  0
  1  2  2  0  0  0
  1  6  1  0  0  0
  1 24  1  0  0  0
  2  3  1  0  0  0
  2 19  1  0  0  0
  3  4  2  0  0  0
  3 25  1  0  0  0
  4  5  1  0  0  0
  4  7  1  0  0  0
  5  6  2  0  0  0
  5 11  1  0  0  0
  6 26  1  0  0  0
  7  8  2  0  0  0
  7 12  1  0  0  0
  8  9  1  0  0  0
  9 10  1  0  0  0
  9 27  1  0  0  0
  9 28  1  0  0  0
 10 11  1  0  0  0
 10 13  2  0  0  0
 11 23  1  0  0  0
 12 14  2  0  0  0
 12 18  1  0  0  0
 14 15  1  0  0  0
 14 29  1  0  0  0
 15 16  2  0  0  0
 15 30  1  0  0  0
 16 17  1  0  0  0
 16 31  1  0  0  0
 17 18  2  0  0  0
 17 32  1  0  0  0
 18 22  1  0  0  0
 19 20  2  0  0  0
 19 21  1  0  0  0
 23 33  1  0  0  0
 23 34  1  0  0  0
 23 35  1  0  0  0
M  CHG  2  19   1  21  -1
M  END
>  <Name>
Flunitrazepam

>  <Family>
A.1

>  <IC50_uM>
0.003800

>  <set>
1

$$$$
Clonazepam
  Cerius2 12180215283D 1   1.00000                          
 Structure written by MMmdl.
 32 34  0  0  0  0  0  0  0  0999 V2000
   -2.1020    2.4768   -0.2564 C   0  0  0  0  0  0
   -2.3286    1.1084   -0.0945 C   0  0  0  0  0  0
   -1.2559    0.2353    0.1306 C   0  0  0  0  0  0
    0.0585    0.7351    0.2112 C   0  0  0  0  0  0
    0.2824    2.1215    0.1101 C   0  0  0  0  0  0
   -0.7997    2.9739   -0.1608 C   0  0  0  0  0  0
    1.1848   -0.2538    0.2565 C   0  0  0  0  0  0
    2.2835   -0.1315    0.9260 N   0  0  0  0  0  0
    2.4430    1.0468    1.7746 C   0  0  0  0  0  0
    2.6319    2.2850    0.9156 C   0  0  0  0  0  0
    1.5344    2.7482    0.2386 N   0  0  0  0  0  0
    1.0571   -1.4724   -0.5920 C   0  0  0  0  0  0
    3.7016    2.9019    0.8749 O   0  0  0  0  0  0
    1.5111   -2.6892   -0.0630 C   0  0  0  0  0  0
    1.4017   -3.8583   -0.8163 C   0  0  0  0  0  0
    0.8395   -3.8164   -2.0917 C   0  0  0  0  0  0
    0.3856   -2.6048   -2.6193 C   0  0  0  0  0  0
    0.4906   -1.4282   -1.8720 C   0  0  0  0  0  0
   -3.6968    0.5801   -0.1816 N   0  3  0  0  0  0
   -3.8705   -0.6399   -0.0018 O   0  0  0  0  0  0
   -4.6231    1.3747   -0.4302 O   0  5  0  0  0  0
   -0.0416    0.0446   -2.6025 Cl  0  0  0  0  0  0
   -2.9180    3.1707   -0.4462 H   0  0  0  0  0  0
   -1.4415   -0.8314    0.2307 H   0  0  0  0  0  0
   -0.6453    4.0469   -0.2699 H   0  0  0  0  0  0
    3.3423    0.9163    2.3864 H   0  0  0  0  0  0
    1.6057    1.1782    2.4697 H   0  0  0  0  0  0
    1.6355    3.6866   -0.1389 H   0  0  0  0  0  0
    1.9410   -2.7359    0.9357 H   0  0  0  0  0  0
    1.7525   -4.8045   -0.4071 H   0  0  0  0  0  0
    0.7551   -4.7295   -2.6790 H   0  0  0  0  0  0
   -0.0443   -2.5882   -3.6188 H   0  0  0  0  0  0
  1  2  2  0  0  0
  1  6  1  0  0  0
  1 23  1  0  0  0
  2  3  1  0  0  0
  2 19  1  0  0  0
  3  4  2  0  0  0
  3 24  1  0  0  0
  4  5  1  0  0  0
  4  7  1  0  0  0
  5  6  2  0  0  0
  5 11  1  0  0  0
  6 25  1  0  0  0
  7  8  2  0  0  0
  7 12  1  0  0  0
  8  9  1  0  0  0
  9 10  1  0  0  0
  9 26  1  0  0  0
  9 27  1  0  0  0
 10 11  1  0  0  0
 10 13  2  0  0  0
 11 28  1  0  0  0
 12 14  2  0  0  0
 12 18  1  0  0  0
 14 15  1  0  0  0
 14 29  1  0  0  0
 15 16  2  0  0  0
 15 30  1  0  0  0
 16 17  1  0  0  0
 16 31  1  0  0  0
 17 18  2  0  0  0
 17 32  1  0  0  0
 18 22  1  0  0  0
 19 20  2  0  0  0
 19 21  1  0  0  0
M  CHG  2  19   1  21  -1
M  END
>  <Name>
Clonazepam

>  <Family>
A.1

>  <IC50_uM>
0.001800

>  <set>
0

$$$$
Ro05-4082
  Cerius2 12180215283D 1   1.00000                          
 Structure written by MMmdl.
 35 37  0  0  0  0  0  0  0  0999 V2000
   -2.1337    2.4701   -0.1989 C   0  0  0  0  0  0
   -2.3479    1.1045   -0.0207 C   0  0  0  0  0  0
   -1.2624    0.2444    0.1699 C   0  0  0  0  0  0
    0.0525    0.7549    0.1891 C   0  0  0  0  0  0
    0.2880    2.1421    0.0499 C   0  0  0  0  0  0
   -0.8286    2.9756   -0.1662 C   0  0  0  0  0  0
    1.1632   -0.2457    0.2705 C   0  0  0  0  0  0
    2.2229   -0.1286    1.0016 N   0  0  0  0  0  0
    2.3303    1.0854    1.8091 C   0  0  0  0  0  0
    2.6443    2.2525    0.8847 C   0  0  0  0  0  0
    1.5931    2.7382    0.1028 N   0  0  0  0  0  0
    1.0596   -1.4599   -0.5865 C   0  0  0  0  0  0
    3.7745    2.7567    0.8779 O   0  0  0  0  0  0
    1.4669   -2.6845   -0.0371 C   0  0  0  0  0  0
    1.3765   -3.8522   -0.7957 C   0  0  0  0  0  0
    0.8800   -3.8015   -2.0975 C   0  0  0  0  0  0
    0.4737   -2.5827   -2.6464 C   0  0  0  0  0  0
    0.5603   -1.4074   -1.8942 C   0  0  0  0  0  0
   -3.7154    0.5685   -0.0425 N   0  3  0  0  0  0
   -3.8724   -0.6546    0.1319 O   0  0  0  0  0  0
   -4.6579    1.3599   -0.2341 O   0  5  0  0  0  0
    0.0931    0.0727   -2.6541 Cl  0  0  0  0  0  0
    1.8248    3.9751   -0.6414 C   0  0  0  0  0  0
   -2.9606    3.1602   -0.3529 H   0  0  0  0  0  0
   -1.4352   -0.8213    0.3013 H   0  0  0  0  0  0
   -0.7169    4.0528   -0.2784 H   0  0  0  0  0  0
    3.1661    0.9670    2.5074 H   0  0  0  0  0  0
    1.4413    1.2807    2.4192 H   0  0  0  0  0  0
    1.8443   -2.7402    0.9820 H   0  0  0  0  0  0
    1.6906   -4.8037   -0.3696 H   0  0  0  0  0  0
    0.8104   -4.7132   -2.6888 H   0  0  0  0  0  0
    0.0958   -2.5592   -3.6665 H   0  0  0  0  0  0
    2.8917    4.1306   -0.8277 H   0  0  0  0  0  0
    1.4584    4.8204   -0.0507 H   0  0  0  0  0  0
    1.3215    3.9350   -1.6128 H   0  0  0  0  0  0
  1  2  2  0  0  0
  1  6  1  0  0  0
  1 24  1  0  0  0
  2  3  1  0  0  0
  2 19  1  0  0  0
  3  4  2  0  0  0
  3 25  1  0  0  0
  4  5  1  0  0  0
  4  7  1  0  0  0
  5  6  2  0  0  0
  5 11  1  0  0  0
  6 26  1  0  0  0
  7  8  2  0  0  0
  7 12  1  0  0  0
  8  9  1  0  0  0
  9 10  1  0  0  0
  9 27  1  0  0  0
  9 28  1  0  0  0
 10 11  1  0  0  0
 10 13  2  0  0  0
 11 23  1  0  0  0
 12 14  2  0  0  0
 12 18  1  0  0  0
 14 15  1  0  0  0
 14 29  1  0  0  0
 15 16  2  0  0  0
 15 30  1  0  0  0
 16 17  1  0  0  0
 16 31  1  0  0  0
 17 18  2  0  0  0
 17 32  1  0  0  0
 18 22  1  0  0  0
 19 20  2  0  0  0
 19 21  1  0  0  0
 23 33  1  0  0  0
 23 34  1  0  0  0
 23 35  1  0  0  0
M  CHG  2  19   1  21  -1
M  END
>  <Name>
Ro05-4082

>  <Family>
A.1

>  <IC50_uM>
0.002200

>  <set>
0

$$$$
Ro05-3590
  Cerius2 12180215283D 1   1.00000                          
 Structure written by MMmdl.
 35 37  0  0  0  0  0  0  0  0999 V2000
   -2.1037    2.5017   -0.2397 C   0  0  0  0  0  0
   -2.3408    1.1368   -0.0611 C   0  0  0  0  0  0
   -1.2737    0.2558    0.1585 C   0  0  0  0  0  0
    0.0454    0.7458    0.2141 C   0  0  0  0  0  0
    0.2807    2.1290    0.1022 C   0  0  0  0  0  0
   -0.7960    2.9887   -0.1642 C   0  0  0  0  0  0
    1.1629   -0.2531    0.2567 C   0  0  0  0  0  0
    2.2531   -0.1412    0.9395 N   0  0  0  0  0  0
    2.4261    1.0456    1.7758 C   0  0  0  0  0  0
    2.6318    2.2726    0.9029 C   0  0  0  0  0  0
    1.5400    2.7425    0.2205 N   0  0  0  0  0  0
    1.0408   -1.4819   -0.5894 C   0  0  0  0  0  0
    3.7096    2.8747    0.8557 O   0  0  0  0  0  0
    1.4782   -2.7014   -0.0461 C   0  0  0  0  0  0
    1.3546   -3.8810   -0.7787 C   0  0  0  0  0  0
    0.7849   -3.8525   -2.0480 C   0  0  0  0  0  0
    0.3391   -2.6440   -2.5879 C   0  0  0  0  0  0
    0.4636   -1.4380   -1.8716 C   0  0  0  0  0  0
   -3.7147    0.6206   -0.1245 N   0  3  0  0  0  0
   -3.9033   -0.5857    0.1213 O   0  0  0  0  0  0
   -4.6307    1.4112   -0.4198 O   0  5  0  0  0  0
   -0.0202   -0.1542   -2.4931 C   0  0  0  0  0  0
   -1.2551    0.2370   -2.0599 F   0  0  0  0  0  0
   -0.1428   -0.2345   -3.8576 F   0  0  0  0  0  0
    0.8131    0.9114   -2.2939 F   0  0  0  0  0  0
   -2.9161    3.2010   -0.4251 H   0  0  0  0  0  0
   -1.4642   -0.8092    0.2696 H   0  0  0  0  0  0
   -0.6334    4.0594   -0.2828 H   0  0  0  0  0  0
    3.3233    0.9104    2.3897 H   0  0  0  0  0  0
    1.5897    1.1940    2.4684 H   0  0  0  0  0  0
    1.6510    3.6762   -0.1657 H   0  0  0  0  0  0
    1.9027   -2.7474    0.9552 H   0  0  0  0  0  0
    1.6945   -4.8242   -0.3546 H   0  0  0  0  0  0
    0.6827   -4.7740   -2.6193 H   0  0  0  0  0  0
   -0.1076   -2.6486   -3.5828 H   0  0  0  0  0  0
  1  2  2  0  0  0
  1  6  1  0  0  0
  1 26  1  0  0  0
  2  3  1  0  0  0
  2 19  1  0  0  0
  3  4  2  0  0  0
  3 27  1  0  0  0
  4  5  1  0  0  0
  4  7  1  0  0  0
  5  6  2  0  0  0
  5 11  1  0  0  0
  6 28  1  0  0  0
  7  8  2  0  0  0
  7 12  1  0  0  0
  8  9  1  0  0  0
  9 10  1  0  0  0
  9 29  1  0  0  0
  9 30  1  0  0  0
 10 11  1  0  0  0
 10 13  2  0  0  0
 11 31  1  0  0  0
 12 14  2  0  0  0
 12 18  1  0  0  0
 14 15  1  0  0  0
 14 32  1  0  0  0
 15 16  2  0  0  0
 15 33  1  0  0  0
 16 17  1  0  0  0
 16 34  1  0  0  0
 17 18  2  0  0  0
 17 35  1  0  0  0
 18 22  1  0  0  0
 19 20  2  0  0  0
 19 21  1  0  0  0
 22 23  1  0  0  0
 22 24  1  0  0  0
 22 25  1  0  0  0
M  CHG  2  19   1  21  -1
M  END
>  <Name>
Ro05-3590

>  <Family>
A.1

>  <IC50_uM>
0.003500

>  <set>
1

$$$$
Ro20-7736
  Cerius2 12180215283D 1   1.00000                          
 Structure written by MMmdl.
 36 38  0  0  0  0  0  0  0  0999 V2000
   -2.1288    2.4754   -0.1744 C   0  0  0  0  0  0
   -2.3712    1.1159    0.0072 C   0  0  0  0  0  0
   -1.2718    0.2724    0.1798 C   0  0  0  0  0  0
    0.0486    0.7718    0.1820 C   0  0  0  0  0  0
    0.2904    2.1540    0.0505 C   0  0  0  0  0  0
   -0.8240    2.9857   -0.1552 C   0  0  0  0  0  0
    1.1511   -0.2388    0.2471 C   0  0  0  0  0  0
    2.2038   -0.1363    0.9920 N   0  0  0  0  0  0
    2.3187    1.0743    1.8053 C   0  0  0  0  0  0
    2.6438    2.2447    0.8868 C   0  0  0  0  0  0
    1.5975    2.7433    0.1068 N   0  0  0  0  0  0
    1.0452   -1.4447   -0.6237 C   0  0  0  0  0  0
    3.7782    2.7395    0.8836 O   0  0  0  0  0  0
    1.4212   -2.7018   -0.1329 C   0  0  0  0  0  0
    1.3061   -3.8293   -0.9501 C   0  0  0  0  0  0
    0.8142   -3.7064   -2.2508 C   0  0  0  0  0  0
    0.4345   -2.4556   -2.7385 C   0  0  0  0  0  0
    0.5482   -1.3315   -1.9239 C   0  0  0  0  0  0
    1.8335    3.9859   -0.6256 C   0  0  0  0  0  0
   -3.6644    0.5878    0.0019 N   0  0  0  0  0  0
   -3.9257   -0.7577    0.2125 O   0  0  0  0  0  0
    0.1996   -0.1386   -2.4296 F   0  0  0  0  0  0
   -2.9578    3.1655   -0.3229 H   0  0  0  0  0  0
   -1.4480   -0.7943    0.3098 H   0  0  0  0  0  0
   -0.7157    4.0627   -0.2680 H   0  0  0  0  0  0
    3.1529    0.9464    2.5040 H   0  0  0  0  0  0
    1.4306    1.2729    2.4155 H   0  0  0  0  0  0
    1.7928   -2.8193    0.8829 H   0  0  0  0  0  0
    1.5976   -4.8074   -0.5700 H   0  0  0  0  0  0
    0.7264   -4.5872   -2.8849 H   0  0  0  0  0  0
    0.0538   -2.3526   -3.7510 H   0  0  0  0  0  0
    2.9014    4.1420   -0.8057 H   0  0  0  0  0  0
    1.4652    4.8266   -0.0297 H   0  0  0  0  0  0
    1.3340    3.9544   -1.5992 H   0  0  0  0  0  0
   -4.4591    1.1981   -0.2109 H   0  0  0  0  0  0
   -4.0608   -1.1129   -0.6944 H   0  0  0  0  0  0
  1  2  2  0  0  0
  1  6  1  0  0  0
  1 23  1  0  0  0
  2  3  1  0  0  0
  2 20  1  0  0  0
  3  4  2  0  0  0
  3 24  1  0  0  0
  4  5  1  0  0  0
  4  7  1  0  0  0
  5  6  2  0  0  0
  5 11  1  0  0  0
  6 25  1  0  0  0
  7  8  2  0  0  0
  7 12  1  0  0  0
  8  9  1  0  0  0
  9 10  1  0  0  0
  9 26  1  0  0  0
  9 27  1  0  0  0
 10 11  1  0  0  0
 10 13  2  0  0  0
 11 19  1  0  0  0
 12 14  2  0  0  0
 12 18  1  0  0  0
 14 15  1  0  0  0
 14 28  1  0  0  0
 15 16  2  0  0  0
 15 29  1  0  0  0
 16 17  1  0  0  0
 16 30  1  0  0  0
 17 18  2  0  0  0
 17 31  1  0  0  0
 18 22  1  0  0  0
 19 32  1  0  0  0
 19 33  1  0  0  0
 19 34  1  0  0  0
 20 21  1  0  0  0
 20 35  1  0  0  0
 21 36  1  0  0  0
M  END
>  <Name>
Ro20-7736

>  <Family>
A.1

>  <IC50_uM>
0.096000

>  <set>
1

$$$$
Ro05-3072
  Cerius2 12180215283D 1   1.00000                          
 Structure written by MMmdl.
 32 34  0  0  0  0  0  0  0  0999 V2000
   -2.0972    2.5040   -0.2200 C   0  0  0  0  0  0
   -2.3595    1.1519   -0.0107 C   0  0  0  0  0  0
   -1.2803    0.2845    0.1684 C   0  0  0  0  0  0
    0.0445    0.7619    0.2043 C   0  0  0  0  0  0
    0.2854    2.1406    0.1007 C   0  0  0  0  0  0
   -0.7901    2.9969   -0.1602 C   0  0  0  0  0  0
    1.1557   -0.2442    0.2278 C   0  0  0  0  0  0
    2.2383   -0.1466    0.9306 N   0  0  0  0  0  0
    2.4056    1.0322    1.7791 C   0  0  0  0  0  0
    2.6285    2.2654    0.9166 C   0  0  0  0  0  0
    1.5469    2.7482    0.2261 N   0  0  0  0  0  0
    1.0341   -1.4578   -0.6444 C   0  0  0  0  0  0
    3.7113    2.8597    0.8840 O   0  0  0  0  0  0
    0.5266   -1.3633   -1.9465 C   0  0  0  0  0  0
    0.4382   -2.5060   -2.7445 C   0  0  0  0  0  0
    0.8631   -3.7394   -2.2505 C   0  0  0  0  0  0
    1.3832   -3.8344   -0.9599 C   0  0  0  0  0  0
    1.4745   -2.6951   -0.1580 C   0  0  0  0  0  0
   -3.6473    0.6615   -0.1178 N   0  0  0  0  0  0
   -2.9133    3.1978   -0.4153 H   0  0  0  0  0  0
   -1.4761   -0.7818    0.2682 H   0  0  0  0  0  0
   -0.6314    4.0666   -0.2884 H   0  0  0  0  0  0
    3.2952    0.8886    2.4021 H   0  0  0  0  0  0
    1.5624    1.1795    2.4635 H   0  0  0  0  0  0
    1.6647    3.6838   -0.1529 H   0  0  0  0  0  0
    0.2072   -0.4080   -2.3572 H   0  0  0  0  0  0
    0.0413   -2.4331   -3.7557 H   0  0  0  0  0  0
    0.7936   -4.6285   -2.8754 H   0  0  0  0  0  0
    1.7199   -4.7966   -0.5779 H   0  0  0  0  0  0
    1.8834   -2.7793    0.8470 H   0  0  0  0  0  0
   -3.8600   -0.2920    0.1664 H   0  0  0  0  0  0
   -4.4397    1.3000   -0.1138 H   0  0  0  0  0  0
  1  2  2  0  0  0
  1  6  1  0  0  0
  1 20  1  0  0  0
  2  3  1  0  0  0
  2 19  1  0  0  0
  3  4  2  0  0  0
  3 21  1  0  0  0
  4  5  1  0  0  0
  4  7  1  0  0  0
  5  6  2  0  0  0
  5 11  1  0  0  0
  6 22  1  0  0  0
  7  8  2  0  0  0
  7 12  1  0  0  0
  8  9  1  0  0  0
  9 10  1  0  0  0
  9 23  1  0  0  0
  9 24  1  0  0  0
 10 11  1  0  0  0
 10 13  2  0  0  0
 11 25  1  0  0  0
 12 14  2  0  0  0
 12 18  1  0  0  0
 14 15  1  0  0  0
 14 26  1  0  0  0
 15 16  2  0  0  0
 15 27  1  0  0  0
 16 17  1  0  0  0
 16 28  1  0  0  0
 17 18  2  0  0  0
 17 29  1  0  0  0
 18 30  1  0  0  0
 19 31  1  0  0  0
 19 32  1  0  0  0
M  END
>  <Name>
Ro05-3072

>  <Family>
A.1

>  <IC50_uM>
0.386000

>  <set>
1

$$$$
Ro05-4318
  Cerius2 12180215283D 1   1.00000                          
 Structure written by MMmdl.
 35 37  0  0  0  0  0  0  0  0999 V2000
   -2.1301    2.4962   -0.1616 C   0  0  0  0  0  0
   -2.3771    1.1468    0.0637 C   0  0  0  0  0  0
   -1.2861    0.2928    0.2075 C   0  0  0  0  0  0
    0.0372    0.7812    0.1830 C   0  0  0  0  0  0
    0.2872    2.1608    0.0445 C   0  0  0  0  0  0
   -0.8223    2.9983   -0.1632 C   0  0  0  0  0  0
    1.1345   -0.2352    0.2381 C   0  0  0  0  0  0
    2.1788   -0.1427    0.9982 N   0  0  0  0  0  0
    2.2983    1.0702    1.8079 C   0  0  0  0  0  0
    2.6374    2.2350    0.8853 C   0  0  0  0  0  0
    1.5986    2.7396    0.0985 N   0  0  0  0  0  0
    1.0371   -1.4448   -0.6424 C   0  0  0  0  0  0
    3.7759    2.7202    0.8846 O   0  0  0  0  0  0
    0.5415   -1.3502   -1.9493 C   0  0  0  0  0  0
    0.4756   -2.4894   -2.7549 C   0  0  0  0  0  0
    0.9107   -3.7202   -2.2640 C   0  0  0  0  0  0
    1.4182   -3.8160   -0.9686 C   0  0  0  0  0  0
    1.4869   -2.6803   -0.1594 C   0  0  0  0  0  0
   -3.6642    0.6484    0.0183 N   0  0  0  0  0  0
    1.8457    3.9776   -0.6371 C   0  0  0  0  0  0
   -2.9576    3.1861   -0.3209 H   0  0  0  0  0  0
   -1.4681   -0.7732    0.3359 H   0  0  0  0  0  0
   -0.7073    4.0723   -0.2944 H   0  0  0  0  0  0
    3.1287    0.9389    2.5105 H   0  0  0  0  0  0
    1.4092    1.2776    2.4136 H   0  0  0  0  0  0
    0.2141   -0.3977   -2.3600 H   0  0  0  0  0  0
    0.0883   -2.4153   -3.7697 H   0  0  0  0  0  0
    0.8588   -4.6063   -2.8947 H   0  0  0  0  0  0
    1.7626   -4.7762   -0.5884 H   0  0  0  0  0  0
    1.8858   -2.7669    0.8494 H   0  0  0  0  0  0
   -3.8596   -0.3060    0.3110 H   0  0  0  0  0  0
   -4.4611    1.2808    0.0428 H   0  0  0  0  0  0
    2.9153    4.1258   -0.8135 H   0  0  0  0  0  0
    1.4806    4.8229   -0.0455 H   0  0  0  0  0  0
    1.3493    3.9458   -1.6122 H   0  0  0  0  0  0
  1  2  2  0  0  0
  1  6  1  0  0  0
  1 21  1  0  0  0
  2  3  1  0  0  0
  2 19  1  0  0  0
  3  4  2  0  0  0
  3 22  1  0  0  0
  4  5  1  0  0  0
  4  7  1  0  0  0
  5  6  2  0  0  0
  5 11  1  0  0  0
  6 23  1  0  0  0
  7  8  2  0  0  0
  7 12  1  0  0  0
  8  9  1  0  0  0
  9 10  1  0  0  0
  9 24  1  0  0  0
  9 25  1  0  0  0
 10 11  1  0  0  0
 10 13  2  0  0  0
 11 20  1  0  0  0
 12 14  2  0  0  0
 12 18  1  0  0  0
 14 15  1  0  0  0
 14 26  1  0  0  0
 15 16  2  0  0  0
 15 27  1  0  0  0
 16 17  1  0  0  0
 16 28  1  0  0  0
 17 18  2  0  0  0
 17 29  1  0  0  0
 18 30  1  0  0  0
 19 31  1  0  0  0
 19 32  1  0  0  0
 20 33  1  0  0  0
 20 34  1  0  0  0
 20 35  1  0  0  0
M  END
>  <Name>
Ro05-4318

>  <Family>
A.1

>  <IC50_uM>
0.460000

>  <set>
2

$$$$
Ro20-1815
  Cerius2 12180215283D 1   1.00000                          
 Structure written by MMmdl.
 35 37  0  0  0  0  0  0  0  0999 V2000
   -2.1279    2.4716   -0.1849 C   0  0  0  0  0  0
   -2.3672    1.1189    0.0267 C   0  0  0  0  0  0
   -1.2717    0.2726    0.1811 C   0  0  0  0  0  0
    0.0484    0.7715    0.1833 C   0  0  0  0  0  0
    0.2902    2.1535    0.0492 C   0  0  0  0  0  0
   -0.8240    2.9831   -0.1665 C   0  0  0  0  0  0
    1.1504   -0.2390    0.2474 C   0  0  0  0  0  0
    2.2034   -0.1369    0.9922 N   0  0  0  0  0  0
    2.3174    1.0736    1.8058 C   0  0  0  0  0  0
    2.6428    2.2443    0.8879 C   0  0  0  0  0  0
    1.5974    2.7431    0.1069 N   0  0  0  0  0  0
    1.0442   -1.4443   -0.6236 C   0  0  0  0  0  0
    3.7772    2.7393    0.8859 O   0  0  0  0  0  0
    1.4205   -2.7016   -0.1332 C   0  0  0  0  0  0
    1.3038   -3.8289   -0.9504 C   0  0  0  0  0  0
    0.8106   -3.7056   -2.2507 C   0  0  0  0  0  0
    0.4312   -2.4545   -2.7379 C   0  0  0  0  0  0
    0.5462   -1.3306   -1.9233 C   0  0  0  0  0  0
   -3.6494    0.6106   -0.0415 N   0  0  0  0  0  0
    1.8342    3.9857   -0.6251 C   0  0  0  0  0  0
    0.1975   -0.1372   -2.4281 F   0  0  0  0  0  0
   -2.9584    3.1562   -0.3513 H   0  0  0  0  0  0
   -1.4504   -0.7947    0.3003 H   0  0  0  0  0  0
   -0.7162    4.0586   -0.2922 H   0  0  0  0  0  0
    3.1514    0.9457    2.5050 H   0  0  0  0  0  0
    1.4291    1.2717    2.4157 H   0  0  0  0  0  0
    1.7935   -2.8188    0.8819 H   0  0  0  0  0  0
    1.5954   -4.8072   -0.5709 H   0  0  0  0  0  0
    0.7215   -4.5863   -2.8847 H   0  0  0  0  0  0
    0.0496   -2.3511   -3.7501 H   0  0  0  0  0  0
   -3.8420   -0.3474    0.2415 H   0  0  0  0  0  0
   -4.4515    1.2365   -0.0255 H   0  0  0  0  0  0
    2.9026    4.1450   -0.7995 H   0  0  0  0  0  0
    1.4601    4.8259   -0.0319 H   0  0  0  0  0  0
    1.3402    3.9518   -1.6015 H   0  0  0  0  0  0
  1  2  2  0  0  0
  1  6  1  0  0  0
  1 22  1  0  0  0
  2  3  1  0  0  0
  2 19  1  0  0  0
  3  4  2  0  0  0
  3 23  1  0  0  0
  4  5  1  0  0  0
  4  7  1  0  0  0
  5  6  2  0  0  0
  5 11  1  0  0  0
  6 24  1  0  0  0
  7  8  2  0  0  0
  7 12  1  0  0  0
  8  9  1  0  0  0
  9 10  1  0  0  0
  9 25  1  0  0  0
  9 26  1  0  0  0
 10 11  1  0  0  0
 10 13  2  0  0  0
 11 20  1  0  0  0
 12 14  2  0  0  0
 12 18  1  0  0  0
 14 15  1  0  0  0
 14 27  1  0  0  0
 15 16  2  0  0  0
 15 28  1  0  0  0
 16 17  1  0  0  0
 16 29  1  0  0  0
 17 18  2  0  0  0
 17 30  1  0  0  0
 18 21  1  0  0  0
 19 31  1  0  0  0
 19 32  1  0  0  0
 20 33  1  0  0  0
 20 34  1  0  0  0
 20 35  1  0  0  0
M  END
>  <Name>
Ro20-1815

>  <Family>
A.1

>  <IC50_uM>
0.065000

>  <set>
1

$$$$
Ro05-4619
  Cerius2 12180215283D 1   1.00000                          
 Structure written by MMmdl.
 32 34  0  0  0  0  0  0  0  0999 V2000
   -2.0940    2.4569   -0.2665 C   0  0  0  0  0  0
   -2.3423    1.1002   -0.0763 C   0  0  0  0  0  0
   -1.2562    0.2463    0.1261 C   0  0  0  0  0  0
    0.0610    0.7403    0.2107 C   0  0  0  0  0  0
    0.2864    2.1226    0.1099 C   0  0  0  0  0  0
   -0.7955    2.9656   -0.1713 C   0  0  0  0  0  0
    1.1832   -0.2514    0.2560 C   0  0  0  0  0  0
    2.2835   -0.1319    0.9245 N   0  0  0  0  0  0
    2.4444    1.0456    1.7744 C   0  0  0  0  0  0
    2.6341    2.2856    0.9178 C   0  0  0  0  0  0
    1.5378    2.7508    0.2408 N   0  0  0  0  0  0
    1.0525   -1.4701   -0.5913 C   0  0  0  0  0  0
    3.7040    2.9024    0.8796 O   0  0  0  0  0  0
    1.5043   -2.6877   -0.0623 C   0  0  0  0  0  0
    1.3870   -3.8578   -0.8130 C   0  0  0  0  0  0
    0.8192   -3.8159   -2.0860 C   0  0  0  0  0  0
    0.3677   -2.6035   -2.6136 C   0  0  0  0  0  0
    0.4806   -1.4259   -1.8689 C   0  0  0  0  0  0
   -3.6194    0.5927   -0.2238 N   0  0  0  0  0  0
   -0.0525    0.0472   -2.5984 Cl  0  0  0  0  0  0
   -2.9138    3.1414   -0.4788 H   0  0  0  0  0  0
   -1.4467   -0.8216    0.2114 H   0  0  0  0  0  0
   -0.6480    4.0376   -0.2945 H   0  0  0  0  0  0
    3.3437    0.9133    2.3857 H   0  0  0  0  0  0
    1.6076    1.1766    2.4702 H   0  0  0  0  0  0
    1.6384    3.6893   -0.1362 H   0  0  0  0  0  0
    1.9392   -2.7334    0.9342 H   0  0  0  0  0  0
    1.7363   -4.8044   -0.4037 H   0  0  0  0  0  0
    0.7286   -4.7296   -2.6712 H   0  0  0  0  0  0
   -0.0670   -2.5869   -3.6111 H   0  0  0  0  0  0
   -3.8276   -0.3655    0.0475 H   0  0  0  0  0  0
   -4.4203    1.2204   -0.2381 H   0  0  0  0  0  0
  1  2  2  0  0  0
  1  6  1  0  0  0
  1 21  1  0  0  0
  2  3  1  0  0  0
  2 19  1  0  0  0
  3  4  2  0  0  0
  3 22  1  0  0  0
  4  5  1  0  0  0
  4  7  1  0  0  0
  5  6  2  0  0  0
  5 11  1  0  0  0
  6 23  1  0  0  0
  7  8  2  0  0  0
  7 12  1  0  0  0
  8  9  1  0  0  0
  9 10  1  0  0  0
  9 24  1  0  0  0
  9 25  1  0  0  0
 10 11  1  0  0  0
 10 13  2  0  0  0
 11 26  1  0  0  0
 12 14  2  0  0  0
 12 18  1  0  0  0
 14 15  1  0  0  0
 14 27  1  0  0  0
 15 16  2  0  0  0
 15 28  1  0  0  0
 16 17  1  0  0  0
 16 29  1  0  0  0
 17 18  2  0  0  0
 17 30  1  0  0  0
 18 20  1  0  0  0
 19 31  1  0  0  0
 19 32  1  0  0  0
M  END
>  <Name>
Ro05-4619

>  <Family>
A.1

>  <IC50_uM>
0.075000

>  <set>
1

$$$$
Ro05-3308
  Cerius2 12180215283D 1   1.00000                          
 Structure written by MMmdl.
 37 39  0  0  0  0  0  0  0  0999 V2000
   -2.0896    2.5121   -0.1940 C   0  0  0  0  0  0
   -2.3519    1.1505   -0.0219 C   0  0  0  0  0  0
   -1.2775    0.2801    0.1692 C   0  0  0  0  0  0
    0.0483    0.7580    0.1952 C   0  0  0  0  0  0
    0.2945    2.1343    0.0934 C   0  0  0  0  0  0
   -0.7799    2.9984   -0.1432 C   0  0  0  0  0  0
    1.1587   -0.2452    0.2111 C   0  0  0  0  0  0
    2.2405   -0.1445    0.9069 N   0  0  0  0  0  0
    2.4396    1.0187    1.7606 C   0  0  0  0  0  0
    2.6297    2.2710    0.9234 C   0  0  0  0  0  0
    1.5588    2.7301    0.2024 N   0  0  0  0  0  0
    1.0342   -1.4602   -0.6567 C   0  0  0  0  0  0
    3.6647    2.9391    0.9491 O   0  0  0  0  0  0
    0.5350   -1.3715   -1.9621 C   0  0  0  0  0  0
    0.4379   -2.5210   -2.7491 C   0  0  0  0  0  0
    0.8447   -3.7542   -2.2391 C   0  0  0  0  0  0
    1.3600   -3.8416   -0.9460 C   0  0  0  0  0  0
    1.4610   -2.6956   -0.1565 C   0  0  0  0  0  0
   -3.7018    0.7452   -0.0729 N   0  0  0  0  0  0
   -4.2021   -0.5378    0.0656 C   0  0  0  0  0  0
   -3.5583   -1.5625    0.2540 O   0  0  0  0  0  0
   -5.7036   -0.5773   -0.0654 C   0  0  0  0  0  0
   -2.8985    3.2210   -0.3554 H   0  0  0  0  0  0
   -1.4454   -0.7869    0.2846 H   0  0  0  0  0  0
   -0.6164    4.0686   -0.2519 H   0  0  0  0  0  0
    3.3515    0.8660    2.3486 H   0  0  0  0  0  0
    1.6231    1.1556    2.4785 H   0  0  0  0  0  0
    1.6953    3.6746   -0.1352 H   0  0  0  0  0  0
    0.2325   -0.4167   -2.3819 H   0  0  0  0  0  0
    0.0505   -2.4549   -3.7623 H   0  0  0  0  0  0
    0.7661   -4.6484   -2.8524 H   0  0  0  0  0  0
    1.6872   -4.8006   -0.5527 H   0  0  0  0  0  0
    1.8695   -2.7667    0.8486 H   0  0  0  0  0  0
   -4.3831    1.4786   -0.2267 H   0  0  0  0  0  0
   -5.9830   -0.4244   -1.1115 H   0  0  0  0  0  0
   -6.1618    0.1950    0.5591 H   0  0  0  0  0  0
   -6.0739   -1.5516    0.2662 H   0  0  0  0  0  0
  1  2  2  0  0  0
  1  6  1  0  0  0
  1 23  1  0  0  0
  2  3  1  0  0  0
  2 19  1  0  0  0
  3  4  2  0  0  0
  3 24  1  0  0  0
  4  5  1  0  0  0
  4  7  1  0  0  0
  5  6  2  0  0  0
  5 11  1  0  0  0
  6 25  1  0  0  0
  7  8  2  0  0  0
  7 12  1  0  0  0
  8  9  1  0  0  0
  9 10  1  0  0  0
  9 26  1  0  0  0
  9 27  1  0  0  0
 10 11  1  0  0  0
 10 13  2  0  0  0
 11 28  1  0  0  0
 12 14  2  0  0  0
 12 18  1  0  0  0
 14 15  1  0  0  0
 14 29  1  0  0  0
 15 16  2  0  0  0
 15 30  1  0  0  0
 16 17  1  0  0  0
 16 31  1  0  0  0
 17 18  2  0  0  0
 17 32  1  0  0  0
 18 33  1  0  0  0
 19 20  1  0  0  0
 19 34  1  0  0  0
 20 21  2  0  0  0
 20 22  1  0  0  0
 22 35  1  0  0  0
 22 36  1  0  0  0
 22 37  1  0  0  0
M  END
>  <Name>
Ro05-3308

>  <Family>
A.1

>  <IC50_uM>
>1

>  <set>
2

$$$$
Ro12-6377
  Cerius2 12180215283D 1   1.00000                          
 Structure written by MMmdl.
 42 44  0  0  0  0  0  0  0  0999 V2000
   -2.1329    2.4769   -0.1748 C   0  0  0  0  0  0
   -2.3687    1.1191    0.0040 C   0  0  0  0  0  0
   -1.2706    0.2726    0.1800 C   0  0  0  0  0  0
    0.0496    0.7714    0.1823 C   0  0  0  0  0  0
    0.2907    2.1526    0.0508 C   0  0  0  0  0  0
   -0.8251    2.9830   -0.1542 C   0  0  0  0  0  0
    1.1524   -0.2391    0.2472 C   0  0  0  0  0  0
    2.2050   -0.1361    0.9922 N   0  0  0  0  0  0
    2.3196    1.0744    1.8055 C   0  0  0  0  0  0
    2.6439    2.2450    0.8870 C   0  0  0  0  0  0
    1.5971    2.7431    0.1071 N   0  0  0  0  0  0
    1.0464   -1.4449   -0.6238 C   0  0  0  0  0  0
    3.7779    2.7405    0.8837 O   0  0  0  0  0  0
    1.4228   -2.7022   -0.1331 C   0  0  0  0  0  0
    1.3093   -3.8292   -0.9510 C   0  0  0  0  0  0
    0.8185   -3.7061   -2.2521 C   0  0  0  0  0  0
    0.4385   -2.4554   -2.7396 C   0  0  0  0  0  0
    0.5507   -1.3315   -1.9244 C   0  0  0  0  0  0
    1.8323    3.9858   -0.6251 C   0  0  0  0  0  0
    0.2024   -0.1385   -2.4303 F   0  0  0  0  0  0
   -3.6480    0.5263    0.0129 N   0  0  0  0  0  0
   -4.1385   -0.7421    0.1640 C   0  0  0  0  0  0
   -3.4754   -1.7617    0.3464 O   0  0  0  0  0  0
   -5.5017   -0.7615    0.0880 N   0  0  0  0  0  0
   -6.3977   -1.8931    0.1964 C   0  0  0  0  0  0
   -2.9417    3.1864   -0.3222 H   0  0  0  0  0  0
   -1.4409   -0.7947    0.3132 H   0  0  0  0  0  0
   -0.7154    4.0603   -0.2653 H   0  0  0  0  0  0
    3.1540    0.9468    2.5040 H   0  0  0  0  0  0
    1.4314    1.2726    2.4159 H   0  0  0  0  0  0
    1.7933   -2.8200    0.8829 H   0  0  0  0  0  0
    1.6010   -4.8074   -0.5711 H   0  0  0  0  0  0
    0.7317   -4.5868   -2.8865 H   0  0  0  0  0  0
    0.0589   -2.3521   -3.7526 H   0  0  0  0  0  0
    2.9000    4.1421   -0.8060 H   0  0  0  0  0  0
    1.4643    4.8262   -0.0283 H   0  0  0  0  0  0
    1.3318    3.9547   -1.5982 H   0  0  0  0  0  0
   -4.4260    1.1594   -0.1243 H   0  0  0  0  0  0
   -5.9291    0.1474   -0.0654 H   0  0  0  0  0  0
   -7.4243   -1.5359    0.0869 H   0  0  0  0  0  0
   -6.2707   -2.3624    1.1755 H   0  0  0  0  0  0
   -6.1689   -2.6124   -0.5942 H   0  0  0  0  0  0
  1  2  2  0  0  0
  1  6  1  0  0  0
  1 26  1  0  0  0
  2  3  1  0  0  0
  2 21  1  0  0  0
  3  4  2  0  0  0
  3 27  1  0  0  0
  4  5  1  0  0  0
  4  7  1  0  0  0
  5  6  2  0  0  0
  5 11  1  0  0  0
  6 28  1  0  0  0
  7  8  2  0  0  0
  7 12  1  0  0  0
  8  9  1  0  0  0
  9 10  1  0  0  0
  9 29  1  0  0  0
  9 30  1  0  0  0
 10 11  1  0  0  0
 10 13  2  0  0  0
 11 19  1  0  0  0
 12 14  2  0  0  0
 12 18  1  0  0  0
 14 15  1  0  0  0
 14 31  1  0  0  0
 15 16  2  0  0  0
 15 32  1  0  0  0
 16 17  1  0  0  0
 16 33  1  0  0  0
 17 18  2  0  0  0
 17 34  1  0  0  0
 18 20  1  0  0  0
 19 35  1  0  0  0
 19 36  1  0  0  0
 19 37  1  0  0  0
 21 22  1  0  0  0
 21 38  1  0  0  0
 22 23  2  0  0  0
 22 24  1  0  0  0
 24 25  1  0  0  0
 24 39  1  0  0  0
 25 40  1  0  0  0
 25 41  1  0  0  0
 25 42  1  0  0  0
M  END
>  <Name>
Ro12-6377

>  <Family>
A.1

>  <IC50_uM>
0.455000

>  <set>
2

$$$$
Ro05-9090
  Cerius2 12180215283D 1   1.00000                          
 Structure written by MMmdl.
 38 40  0  0  0  0  0  0  0  0999 V2000
   -2.1326    2.5051   -0.1557 C   0  0  0  0  0  0
   -2.3777    1.1458    0.0440 C   0  0  0  0  0  0
   -1.2828    0.2888    0.2052 C   0  0  0  0  0  0
    0.0387    0.7797    0.1825 C   0  0  0  0  0  0
    0.2856    2.1613    0.0475 C   0  0  0  0  0  0
   -0.8245    3.0027   -0.1518 C   0  0  0  0  0  0
    1.1379   -0.2356    0.2368 C   0  0  0  0  0  0
    2.1827   -0.1423    0.9964 N   0  0  0  0  0  0
    2.3005    1.0702    1.8067 C   0  0  0  0  0  0
    2.6373    2.2360    0.8849 C   0  0  0  0  0  0
    1.5972    2.7409    0.1006 N   0  0  0  0  0  0
    1.0398   -1.4459   -0.6432 C   0  0  0  0  0  0
    3.7757    2.7218    0.8828 O   0  0  0  0  0  0
    0.5425   -1.3523   -1.9496 C   0  0  0  0  0  0
    0.4734   -2.4924   -2.7536 C   0  0  0  0  0  0
    0.9072   -3.7233   -2.2616 C   0  0  0  0  0  0
    1.4164   -3.8183   -0.9669 C   0  0  0  0  0  0
    1.4881   -2.6815   -0.1593 C   0  0  0  0  0  0
    1.8427    3.9790   -0.6352 C   0  0  0  0  0  0
   -3.7854    0.6063    0.0400 C   0  0  0  0  0  0
   -4.2173    0.2751   -1.3164 N   0  0  0  0  0  0
   -2.9633    3.1944   -0.3056 H   0  0  0  0  0  0
   -1.4666   -0.7772    0.3380 H   0  0  0  0  0  0
   -0.7064    4.0780   -0.2716 H   0  0  0  0  0  0
    3.1312    0.9399    2.5091 H   0  0  0  0  0  0
    1.4112    1.2757    2.4132 H   0  0  0  0  0  0
    0.2156   -0.3999   -2.3611 H   0  0  0  0  0  0
    0.0846   -2.4189   -3.7678 H   0  0  0  0  0  0
    0.8527   -4.6102   -2.8910 H   0  0  0  0  0  0
    1.7596   -4.7785   -0.5859 H   0  0  0  0  0  0
    1.8878   -2.7678    0.8493 H   0  0  0  0  0  0
    2.9117    4.1246   -0.8175 H   0  0  0  0  0  0
    1.4833    4.8245   -0.0405 H   0  0  0  0  0  0
    1.3406    3.9497   -1.6076 H   0  0  0  0  0  0
   -4.4672    1.3494    0.4694 H   0  0  0  0  0  0
   -3.8501   -0.2818    0.6797 H   0  0  0  0  0  0
   -5.1500   -0.1461   -1.2476 H   0  0  0  0  0  0
   -3.6322   -0.4981   -1.6496 H   0  0  0  0  0  0
  1  2  2  0  0  0
  1  6  1  0  0  0
  1 22  1  0  0  0
  2  3  1  0  0  0
  2 20  1  0  0  0
  3  4  2  0  0  0
  3 23  1  0  0  0
  4  5  1  0  0  0
  4  7  1  0  0  0
  5  6  2  0  0  0
  5 11  1  0  0  0
  6 24  1  0  0  0
  7  8  2  0  0  0
  7 12  1  0  0  0
  8  9  1  0  0  0
  9 10  1  0  0  0
  9 25  1  0  0  0
  9 26  1  0  0  0
 10 11  1  0  0  0
 10 13  2  0  0  0
 11 19  1  0  0  0
 12 14  2  0  0  0
 12 18  1  0  0  0
 14 15  1  0  0  0
 14 27  1  0  0  0
 15 16  2  0  0  0
 15 28  1  0  0  0
 16 17  1  0  0  0
 16 29  1  0  0  0
 17 18  2  0  0  0
 17 30  1  0  0  0
 18 31  1  0  0  0
 19 32  1  0  0  0
 19 33  1  0  0  0
 19 34  1  0  0  0
 20 21  1  0  0  0
 20 35  1  0  0  0
 20 36  1  0  0  0
 21 37  1  0  0  0
 21 38  1  0  0  0
M  END
>  <Name>
Ro05-9090

>  <Family>
A.1

>  <IC50_uM>
>1

>  <set>
1

$$$$
Ro05-4528
  Cerius2 12180215283D 1   1.00000                          
 Structure written by MMmdl.
 34 36  0  0  0  0  0  0  0  0999 V2000
   -2.1342    2.5054   -0.1517 C   0  0  0  0  0  0
   -2.3682    1.1456    0.0363 C   0  0  0  0  0  0
   -1.2824    0.2844    0.2016 C   0  0  0  0  0  0
    0.0388    0.7778    0.1806 C   0  0  0  0  0  0
    0.2853    2.1607    0.0473 C   0  0  0  0  0  0
   -0.8257    3.0033   -0.1480 C   0  0  0  0  0  0
    1.1392   -0.2360    0.2362 C   0  0  0  0  0  0
    2.1828   -0.1418    0.9965 N   0  0  0  0  0  0
    2.3009    1.0706    1.8068 C   0  0  0  0  0  0
    2.6371    2.2366    0.8850 C   0  0  0  0  0  0
    1.5961    2.7405    0.1006 N   0  0  0  0  0  0
    1.0416   -1.4456   -0.6430 C   0  0  0  0  0  0
    3.7749    2.7235    0.8829 O   0  0  0  0  0  0
    0.5429   -1.3509   -1.9487 C   0  0  0  0  0  0
    0.4711   -2.4912   -2.7521 C   0  0  0  0  0  0
    0.9033   -3.7226   -2.2599 C   0  0  0  0  0  0
    1.4143   -3.8181   -0.9658 C   0  0  0  0  0  0
    1.4888   -2.6813   -0.1587 C   0  0  0  0  0  0
    1.8416    3.9790   -0.6350 C   0  0  0  0  0  0
   -3.7094    0.6350    0.0495 C   0  0  0  0  0  0
   -4.7966    0.2200    0.0609 N   0  0  0  0  0  0
   -2.9648    3.1971   -0.2883 H   0  0  0  0  0  0
   -1.4667   -0.7805    0.3387 H   0  0  0  0  0  0
   -0.7075    4.0795   -0.2609 H   0  0  0  0  0  0
    3.1320    0.9403    2.5088 H   0  0  0  0  0  0
    1.4118    1.2759    2.4133 H   0  0  0  0  0  0
    0.2192   -0.3978   -2.3609 H   0  0  0  0  0  0
    0.0819   -2.4176   -3.7663 H   0  0  0  0  0  0
    0.8469   -4.6097   -2.8890 H   0  0  0  0  0  0
    1.7565   -4.7787   -0.5850 H   0  0  0  0  0  0
    1.8895   -2.7673    0.8495 H   0  0  0  0  0  0
    2.9103    4.1228   -0.8204 H   0  0  0  0  0  0
    1.4854    4.8245   -0.0384 H   0  0  0  0  0  0
    1.3365    3.9517   -1.6058 H   0  0  0  0  0  0
  1  2  2  0  0  0
  1  6  1  0  0  0
  1 22  1  0  0  0
  2  3  1  0  0  0
  2 20  1  0  0  0
  3  4  2  0  0  0
  3 23  1  0  0  0
  4  5  1  0  0  0
  4  7  1  0  0  0
  5  6  2  0  0  0
  5 11  1  0  0  0
  6 24  1  0  0  0
  7  8  2  0  0  0
  7 12  1  0  0  0
  8  9  1  0  0  0
  9 10  1  0  0  0
  9 25  1  0  0  0
  9 26  1  0  0  0
 10 11  1  0  0  0
 10 13  2  0  0  0
 11 19  1  0  0  0
 12 14  2  0  0  0
 12 18  1  0  0  0
 14 15  1  0  0  0
 14 27  1  0  0  0
 15 16  2  0  0  0
 15 28  1  0  0  0
 16 17  1  0  0  0
 16 29  1  0  0  0
 17 18  2  0  0  0
 17 30  1  0  0  0
 18 31  1  0  0  0
 19 32  1  0  0  0
 19 33  1  0  0  0
 19 34  1  0  0  0
 20 21  3  0  0  0
M  END
>  <Name>
Ro05-4528

>  <Family>
A.1

>  <IC50_uM>
0.380000

>  <set>
1

$$$$
Ro20-2541
  Cerius2 12180215283D 1   1.00000                          
 Structure written by MMmdl.
 34 36  0  0  0  0  0  0  0  0999 V2000
   -2.1323    2.4847   -0.1723 C   0  0  0  0  0  0
   -2.3603    1.1230    0.0061 C   0  0  0  0  0  0
   -1.2712    0.2674    0.1813 C   0  0  0  0  0  0
    0.0474    0.7687    0.1827 C   0  0  0  0  0  0
    0.2878    2.1533    0.0509 C   0  0  0  0  0  0
   -0.8267    2.9898   -0.1526 C   0  0  0  0  0  0
    1.1519   -0.2403    0.2473 C   0  0  0  0  0  0
    2.2035   -0.1361    0.9933 N   0  0  0  0  0  0
    2.3167    1.0749    1.8063 C   0  0  0  0  0  0
    2.6417    2.2446    0.8869 C   0  0  0  0  0  0
    1.5953    2.7419    0.1059 N   0  0  0  0  0  0
    1.0476   -1.4459   -0.6242 C   0  0  0  0  0  0
    3.7758    2.7399    0.8836 O   0  0  0  0  0  0
    1.4246   -2.7029   -0.1332 C   0  0  0  0  0  0
    1.3140   -3.8298   -0.9516 C   0  0  0  0  0  0
    0.8254   -3.7070   -2.2536 C   0  0  0  0  0  0
    0.4443   -2.4565   -2.7412 C   0  0  0  0  0  0
    0.5536   -1.3328   -1.9255 C   0  0  0  0  0  0
    1.8327    3.9825   -0.6296 C   0  0  0  0  0  0
   -3.6986    0.6047    0.0003 C   0  0  0  0  0  0
   -4.7834    0.1829   -0.0038 N   0  0  0  0  0  0
    0.2045   -0.1402   -2.4316 F   0  0  0  0  0  0
   -2.9651    3.1723   -0.3157 H   0  0  0  0  0  0
   -1.4540   -0.7985    0.3120 H   0  0  0  0  0  0
   -0.7141    4.0669   -0.2623 H   0  0  0  0  0  0
    3.1506    0.9480    2.5056 H   0  0  0  0  0  0
    1.4280    1.2731    2.4156 H   0  0  0  0  0  0
    1.7925   -2.8212    0.8838 H   0  0  0  0  0  0
    1.6060   -4.8078   -0.5714 H   0  0  0  0  0  0
    0.7410   -4.5874   -2.8885 H   0  0  0  0  0  0
    0.0661   -2.3535   -3.7547 H   0  0  0  0  0  0
    2.9005    4.1344   -0.8139 H   0  0  0  0  0  0
    1.4695    4.8254   -0.0335 H   0  0  0  0  0  0
    1.3295    3.9512   -1.6013 H   0  0  0  0  0  0
  1  2  2  0  0  0
  1  6  1  0  0  0
  1 23  1  0  0  0
  2  3  1  0  0  0
  2 20  1  0  0  0
  3  4  2  0  0  0
  3 24  1  0  0  0
  4  5  1  0  0  0
  4  7  1  0  0  0
  5  6  2  0  0  0
  5 11  1  0  0  0
  6 25  1  0  0  0
  7  8  2  0  0  0
  7 12  1  0  0  0
  8  9  1  0  0  0
  9 10  1  0  0  0
  9 26  1  0  0  0
  9 27  1  0  0  0
 10 11  1  0  0  0
 10 13  2  0  0  0
 11 19  1  0  0  0
 12 14  2  0  0  0
 12 18  1  0  0  0
 14 15  1  0  0  0
 14 28  1  0  0  0
 15 16  2  0  0  0
 15 29  1  0  0  0
 16 17  1  0  0  0
 16 30  1  0  0  0
 17 18  2  0  0  0
 17 31  1  0  0  0
 18 22  1  0  0  0
 19 32  1  0  0  0
 19 33  1  0  0  0
 19 34  1  0  0  0
 20 21  3  0  0  0
M  END
>  <Name>
Ro20-2541

>  <Family>
A.1

>  <IC50_uM>
0.030000

>  <set>
1

$$$$
Ro20-2533
  Cerius2 12180215283D 1   1.00000                          
 Structure written by MMmdl.
 36 38  0  0  0  0  0  0  0  0999 V2000
   -2.1017    2.5125   -0.2076 C   0  0  0  0  0  0
   -2.3557    1.1494   -0.0403 C   0  0  0  0  0  0
   -1.2762    0.2798    0.1660 C   0  0  0  0  0  0
    0.0467    0.7599    0.2029 C   0  0  0  0  0  0
    0.2834    2.1405    0.1029 C   0  0  0  0  0  0
   -0.7944    3.0007   -0.1447 C   0  0  0  0  0  0
    1.1596   -0.2446    0.2274 C   0  0  0  0  0  0
    2.2421   -0.1460    0.9304 N   0  0  0  0  0  0
    2.4068    1.0333    1.7784 C   0  0  0  0  0  0
    2.6278    2.2666    0.9156 C   0  0  0  0  0  0
    1.5448    2.7493    0.2277 N   0  0  0  0  0  0
    1.0377   -1.4585   -0.6446 C   0  0  0  0  0  0
    3.7105    2.8608    0.8806 O   0  0  0  0  0  0
    0.5282   -1.3643   -1.9461 C   0  0  0  0  0  0
    0.4350   -2.5076   -2.7424 C   0  0  0  0  0  0
    0.8578   -3.7415   -2.2477 C   0  0  0  0  0  0
    1.3805   -3.8361   -0.9581 C   0  0  0  0  0  0
    1.4760   -2.6961   -0.1576 C   0  0  0  0  0  0
   -4.1952    0.2393   -1.4813 C   0  0  0  0  0  0
   -3.7685    0.6228   -0.0728 C   0  0  0  0  0  0
   -2.9214    3.2107   -0.3744 H   0  0  0  0  0  0
   -1.4732   -0.7857    0.2803 H   0  0  0  0  0  0
   -0.6344    4.0727   -0.2538 H   0  0  0  0  0  0
    3.2963    0.8918    2.4020 H   0  0  0  0  0  0
    1.5631    1.1793    2.4628 H   0  0  0  0  0  0
    1.6603    3.6857   -0.1501 H   0  0  0  0  0  0
    0.2109   -0.4085   -2.3575 H   0  0  0  0  0  0
    0.0363   -2.4348   -3.7530 H   0  0  0  0  0  0
    0.7848   -4.6311   -2.8714 H   0  0  0  0  0  0
    1.7158   -4.7985   -0.5757 H   0  0  0  0  0  0
    1.8860   -2.7803    0.8470 H   0  0  0  0  0  0
   -5.2226   -0.1381   -1.4757 H   0  0  0  0  0  0
   -3.5485   -0.5429   -1.8932 H   0  0  0  0  0  0
   -4.1534    1.1000   -2.1575 H   0  0  0  0  0  0
   -4.4535    1.3790    0.3298 H   0  0  0  0  0  0
   -3.8539   -0.2468    0.5902 H   0  0  0  0  0  0
  1  2  2  0  0  0
  1  6  1  0  0  0
  1 21  1  0  0  0
  2  3  1  0  0  0
  2 20  1  0  0  0
  3  4  2  0  0  0
  3 22  1  0  0  0
  4  5  1  0  0  0
  4  7  1  0  0  0
  5  6  2  0  0  0
  5 11  1  0  0  0
  6 23  1  0  0  0
  7  8  2  0  0  0
  7 12  1  0  0  0
  8  9  1  0  0  0
  9 10  1  0  0  0
  9 24  1  0  0  0
  9 25  1  0  0  0
 10 11  1  0  0  0
 10 13  2  0  0  0
 11 26  1  0  0  0
 12 14  2  0  0  0
 12 18  1  0  0  0
 14 15  1  0  0  0
 14 27  1  0  0  0
 15 16  2  0  0  0
 15 28  1  0  0  0
 16 17  1  0  0  0
 16 29  1  0  0  0
 17 18  2  0  0  0
 17 30  1  0  0  0
 18 31  1  0  0  0
 19 20  1  0  0  0
 19 32  1  0  0  0
 19 33  1  0  0  0
 19 34  1  0  0  0
 20 35  1  0  0  0
 20 36  1  0  0  0
M  END
>  <Name>
Ro20-2533

>  <Family>
A.1

>  <IC50_uM>
0.036000

>  <set>
1

$$$$
Ro20-5747
  Cerius2 12180215283D 1   1.00000                          
 Structure written by MMmdl.
 34 36  0  0  0  0  0  0  0  0999 V2000
   -2.0866    2.4950   -0.2135 C   0  0  0  0  0  0
   -2.3526    1.1333   -0.0293 C   0  0  0  0  0  0
   -1.2667    0.2730    0.1738 C   0  0  0  0  0  0
    0.0572    0.7565    0.1996 C   0  0  0  0  0  0
    0.2983    2.1319    0.0907 C   0  0  0  0  0  0
   -0.7785    2.9883   -0.1602 C   0  0  0  0  0  0
    1.1687   -0.2436    0.2139 C   0  0  0  0  0  0
    2.2500   -0.1430    0.9097 N   0  0  0  0  0  0
    2.4472    1.0216    1.7634 C   0  0  0  0  0  0
    2.6303    2.2778    0.9307 C   0  0  0  0  0  0
    1.5602    2.7325    0.2053 N   0  0  0  0  0  0
    1.0404   -1.4573   -0.6557 C   0  0  0  0  0  0
    3.6609    2.9526    0.9654 O   0  0  0  0  0  0
    0.5275   -1.3647   -1.9558 C   0  0  0  0  0  0
    0.4152   -2.5121   -2.7433 C   0  0  0  0  0  0
    0.8218   -3.7480   -2.2395 C   0  0  0  0  0  0
    1.3500   -3.8399   -0.9516 C   0  0  0  0  0  0
    1.4655   -2.6955   -0.1611 C   0  0  0  0  0  0
   -3.7537    0.6805   -0.0737 C   0  0  0  0  0  0
   -4.1911   -0.5806    0.0419 C   0  0  0  0  0  0
   -2.8995    3.1978   -0.3887 H   0  0  0  0  0  0
   -1.4366   -0.7934    0.2979 H   0  0  0  0  0  0
   -0.6216    4.0582   -0.2800 H   0  0  0  0  0  0
    3.3616    0.8704    2.3475 H   0  0  0  0  0  0
    1.6320    1.1554    2.4836 H   0  0  0  0  0  0
    1.6909    3.6790   -0.1294 H   0  0  0  0  0  0
    0.2280   -0.4069   -2.3723 H   0  0  0  0  0  0
    0.0189   -2.4413   -3.7533 H   0  0  0  0  0  0
    0.7390   -4.6397   -2.8566 H   0  0  0  0  0  0
    1.6788   -4.8011   -0.5649 H   0  0  0  0  0  0
    1.8874   -2.7696    0.8386 H   0  0  0  0  0  0
   -4.5009    1.4607   -0.2144 H   0  0  0  0  0  0
   -5.2557   -0.7924   -0.0055 H   0  0  0  0  0  0
   -3.5381   -1.4335    0.1836 H   0  0  0  0  0  0
  1  2  2  0  0  0
  1  6  1  0  0  0
  1 21  1  0  0  0
  2  3  1  0  0  0
  2 19  1  0  0  0
  3  4  2  0  0  0
  3 22  1  0  0  0
  4  5  1  0  0  0
  4  7  1  0  0  0
  5  6  2  0  0  0
  5 11  1  0  0  0
  6 23  1  0  0  0
  7  8  2  0  0  0
  7 12  1  0  0  0
  8  9  1  0  0  0
  9 10  1  0  0  0
  9 24  1  0  0  0
  9 25  1  0  0  0
 10 11  1  0  0  0
 10 13  2  0  0  0
 11 26  1  0  0  0
 12 14  2  0  0  0
 12 18  1  0  0  0
 14 15  1  0  0  0
 14 27  1  0  0  0
 15 16  2  0  0  0
 15 28  1  0  0  0
 16 17  1  0  0  0
 16 29  1  0  0  0
 17 18  2  0  0  0
 17 30  1  0  0  0
 18 31  1  0  0  0
 19 20  2  0  0  0
 19 32  1  0  0  0
 20 33  1  0  0  0
 20 34  1  0  0  0
M  END
>  <Name>
Ro20-5747

>  <Family>
A.1

>  <IC50_uM>
0.024000

>  <set>
1

$$$$
Ro20-5397
  Cerius2 12180215283D 1   1.00000                          
 Structure written by MMmdl.
 32 34  0  0  0  0  0  0  0  0999 V2000
   -2.1030    2.5150   -0.2113 C   0  0  0  0  0  0
   -2.3424    1.1527   -0.0360 C   0  0  0  0  0  0
   -1.2762    0.2728    0.1660 C   0  0  0  0  0  0
    0.0450    0.7569    0.2030 C   0  0  0  0  0  0
    0.2816    2.1399    0.1029 C   0  0  0  0  0  0
   -0.7957    3.0025   -0.1474 C   0  0  0  0  0  0
    1.1602   -0.2454    0.2268 C   0  0  0  0  0  0
    2.2422   -0.1457    0.9296 N   0  0  0  0  0  0
    2.4070    1.0329    1.7785 C   0  0  0  0  0  0
    2.6264    2.2668    0.9163 C   0  0  0  0  0  0
    1.5427    2.7484    0.2283 N   0  0  0  0  0  0
    1.0393   -1.4586   -0.6450 C   0  0  0  0  0  0
    3.7083    2.8628    0.8818 O   0  0  0  0  0  0
    0.5286   -1.3631   -1.9458 C   0  0  0  0  0  0
    0.4338   -2.5064   -2.7420 C   0  0  0  0  0  0
    0.8554   -3.7408   -2.2473 C   0  0  0  0  0  0
    1.3790   -3.8361   -0.9579 C   0  0  0  0  0  0
    1.4767   -2.6963   -0.1577 C   0  0  0  0  0  0
   -3.7211    0.6185   -0.0836 C   0  0  0  0  0  0
   -3.9714   -0.5755    0.0663 O   0  0  0  0  0  0
   -2.9248    3.2067   -0.3845 H   0  0  0  0  0  0
   -1.4737   -0.7917    0.2764 H   0  0  0  0  0  0
   -0.6340    4.0739   -0.2590 H   0  0  0  0  0  0
    3.2971    0.8915    2.4013 H   0  0  0  0  0  0
    1.5635    1.1780    2.4632 H   0  0  0  0  0  0
    1.6588    3.6849   -0.1490 H   0  0  0  0  0  0
    0.2132   -0.4069   -2.3574 H   0  0  0  0  0  0
    0.0350   -2.4335   -3.7524 H   0  0  0  0  0  0
    0.7810   -4.6304   -2.8708 H   0  0  0  0  0  0
    1.7131   -4.7991   -0.5758 H   0  0  0  0  0  0
    1.8873   -2.7804    0.8466 H   0  0  0  0  0  0
   -4.5246    1.3534   -0.2634 H   0  0  0  0  0  0
  1  2  2  0  0  0
  1  6  1  0  0  0
  1 21  1  0  0  0
  2  3  1  0  0  0
  2 19  1  0  0  0
  3  4  2  0  0  0
  3 22  1  0  0  0
  4  5  1  0  0  0
  4  7  1  0  0  0
  5  6  2  0  0  0
  5 11  1  0  0  0
  6 23  1  0  0  0
  7  8  2  0  0  0
  7 12  1  0  0  0
  8  9  1  0  0  0
  9 10  1  0  0  0
  9 24  1  0  0  0
  9 25  1  0  0  0
 10 11  1  0  0  0
 10 13  2  0  0  0
 11 26  1  0  0  0
 12 14  2  0  0  0
 12 18  1  0  0  0
 14 15  1  0  0  0
 14 27  1  0  0  0
 15 16  2  0  0  0
 15 28  1  0  0  0
 16 17  1  0  0  0
 16 29  1  0  0  0
 17 18  2  0  0  0
 17 30  1  0  0  0
 18 31  1  0  0  0
 19 20  2  0  0  0
 19 32  1  0  0  0
M  END
>  <Name>
Ro20-5397

>  <Family>
A.1

>  <IC50_uM>
0.043000

>  <set>
2

$$$$
Ro20-3053
  Cerius2 12180215283D 1   1.00000                          
 Structure written by MMmdl.
 35 37  0  0  0  0  0  0  0  0999 V2000
   -2.1021    2.4912   -0.2304 C   0  0  0  0  0  0
   -2.3473    1.1267   -0.0668 C   0  0  0  0  0  0
   -1.2647    0.2608    0.1429 C   0  0  0  0  0  0
    0.0545    0.7497    0.2047 C   0  0  0  0  0  0
    0.2849    2.1317    0.1094 C   0  0  0  0  0  0
   -0.7960    2.9851   -0.1489 C   0  0  0  0  0  0
    1.1727   -0.2485    0.2359 C   0  0  0  0  0  0
    2.2635   -0.1402    0.9220 N   0  0  0  0  0  0
    2.4274    1.0352    1.7752 C   0  0  0  0  0  0
    2.6315    2.2751    0.9195 C   0  0  0  0  0  0
    1.5407    2.7499    0.2389 N   0  0  0  0  0  0
    1.0441   -1.4571   -0.6277 C   0  0  0  0  0  0
    3.7073    2.8817    0.8845 O   0  0  0  0  0  0
    0.5224   -1.3434   -1.9227 C   0  0  0  0  0  0
    0.4160   -2.4795   -2.7287 C   0  0  0  0  0  0
    0.8319   -3.7229   -2.2481 C   0  0  0  0  0  0
    1.3573   -3.8346   -0.9603 C   0  0  0  0  0  0
    1.4644   -2.7023   -0.1566 C   0  0  0  0  0  0
    1.9499   -2.8421    1.0864 F   0  0  0  0  0  0
   -3.7279    0.5545   -0.1280 C   0  0  0  0  0  0
   -3.9008   -0.6580    0.0182 O   0  0  0  0  0  0
   -4.8917    1.4812   -0.3679 C   0  0  0  0  0  0
   -2.9067    3.1998   -0.4110 H   0  0  0  0  0  0
   -1.4540   -0.8064    0.2452 H   0  0  0  0  0  0
   -0.6404    4.0581   -0.2567 H   0  0  0  0  0  0
    3.3225    0.8961    2.3911 H   0  0  0  0  0  0
    1.5875    1.1712    2.4664 H   0  0  0  0  0  0
    1.6486    3.6889   -0.1349 H   0  0  0  0  0  0
    0.2076   -0.3797   -2.3171 H   0  0  0  0  0  0
    0.0111   -2.3946   -3.7361 H   0  0  0  0  0  0
    0.7470   -4.6061   -2.8794 H   0  0  0  0  0  0
    1.6802   -4.7998   -0.5797 H   0  0  0  0  0  0
   -5.8183    0.8986   -0.3765 H   0  0  0  0  0  0
   -4.7916    1.9716   -1.3396 H   0  0  0  0  0  0
   -4.9629    2.2171    0.4371 H   0  0  0  0  0  0
  1  2  2  0  0  0
  1  6  1  0  0  0
  1 23  1  0  0  0
  2  3  1  0  0  0
  2 20  1  0  0  0
  3  4  2  0  0  0
  3 24  1  0  0  0
  4  5  1  0  0  0
  4  7  1  0  0  0
  5  6  2  0  0  0
  5 11  1  0  0  0
  6 25  1  0  0  0
  7  8  2  0  0  0
  7 12  1  0  0  0
  8  9  1  0  0  0
  9 10  1  0  0  0
  9 26  1  0  0  0
  9 27  1  0  0  0
 10 11  1  0  0  0
 10 13  2  0  0  0
 11 28  1  0  0  0
 12 14  2  0  0  0
 12 18  1  0  0  0
 14 15  1  0  0  0
 14 29  1  0  0  0
 15 16  2  0  0  0
 15 30  1  0  0  0
 16 17  1  0  0  0
 16 31  1  0  0  0
 17 18  2  0  0  0
 17 32  1  0  0  0
 18 19  1  0  0  0
 20 21  2  0  0  0
 20 22  1  0  0  0
 22 33  1  0  0  0
 22 34  1  0  0  0
 22 35  1  0  0  0
M  END
>  <Name>
Ro20-3053

>  <Family>
A.1

>  <IC50_uM>
0.018000

>  <set>
1

$$$$
Ro05-3343
  Cerius2 12180215283D 1   1.00000                          
 Structure written by MMmdl.
 41 43  0  0  0  0  0  0  0  0999 V2000
   -2.0998    2.4918   -0.2252 C   0  0  0  0  0  0
   -2.3357    1.1230   -0.0659 C   0  0  0  0  0  0
   -1.2622    0.2591    0.1458 C   0  0  0  0  0  0
    0.0557    0.7572    0.2007 C   0  0  0  0  0  0
    0.2836    2.1412    0.1132 C   0  0  0  0  0  0
   -0.7988    2.9940   -0.1400 C   0  0  0  0  0  0
    1.1770   -0.2398    0.2204 C   0  0  0  0  0  0
    2.2602   -0.1393    0.9201 N   0  0  0  0  0  0
    2.4203    1.0338    1.7777 C   0  0  0  0  0  0
    2.6282    2.2775    0.9274 C   0  0  0  0  0  0
    1.5392    2.7583    0.2476 N   0  0  0  0  0  0
    1.0514   -1.4528   -0.6501 C   0  0  0  0  0  0
    3.7054    2.8819    0.8966 O   0  0  0  0  0  0
    0.5277   -1.3568   -1.9458 C   0  0  0  0  0  0
    0.4079   -2.5030   -2.7338 C   0  0  0  0  0  0
    0.8172   -3.7402   -2.2354 C   0  0  0  0  0  0
    1.3542   -3.8351   -0.9513 C   0  0  0  0  0  0
    1.4771   -2.6924   -0.1590 C   0  0  0  0  0  0
   -4.0217    0.5724   -0.1985 S   0  0  0  0  0  0
   -4.4582    0.8720   -1.5534 O   0  0  0  0  0  0
   -4.7442    1.1415    0.9280 O   0  0  0  0  0  0
   -4.0645   -1.1111   -0.0269 N   0  0  0  0  0  0
   -4.2251   -1.9432   -1.2356 C   0  0  0  0  0  0
   -4.6587   -1.6956    1.1934 C   0  0  0  0  0  0
   -2.9251    3.1787   -0.4075 H   0  0  0  0  0  0
   -1.4234   -0.8065    0.2486 H   0  0  0  0  0  0
   -0.6473    4.0678   -0.2428 H   0  0  0  0  0  0
    3.3132    0.8926    2.3965 H   0  0  0  0  0  0
    1.5781    1.1668    2.4664 H   0  0  0  0  0  0
    1.6482    3.6994   -0.1207 H   0  0  0  0  0  0
    0.2188   -0.3984   -2.3574 H   0  0  0  0  0  0
   -0.0010   -2.4308   -3.7402 H   0  0  0  0  0  0
    0.7233   -4.6325   -2.8524 H   0  0  0  0  0  0
    1.6784   -4.8006   -0.5671 H   0  0  0  0  0  0
    1.8949   -2.7758    0.8422 H   0  0  0  0  0  0
   -4.0217   -2.9918   -0.9936 H   0  0  0  0  0  0
   -3.5035   -1.6501   -2.0032 H   0  0  0  0  0  0
   -5.2351   -1.8734   -1.6438 H   0  0  0  0  0  0
   -3.9387   -2.3878    1.6405 H   0  0  0  0  0  0
   -5.5767   -2.2451    0.9656 H   0  0  0  0  0  0
   -4.8950   -0.9330    1.9402 H   0  0  0  0  0  0
  1  2  2  0  0  0
  1  6  1  0  0  0
  1 25  1  0  0  0
  2  3  1  0  0  0
  2 19  1  0  0  0
  3  4  2  0  0  0
  3 26  1  0  0  0
  4  5  1  0  0  0
  4  7  1  0  0  0
  5  6  2  0  0  0
  5 11  1  0  0  0
  6 27  1  0  0  0
  7  8  2  0  0  0
  7 12  1  0  0  0
  8  9  1  0  0  0
  9 10  1  0  0  0
  9 28  1  0  0  0
  9 29  1  0  0  0
 10 11  1  0  0  0
 10 13  2  0  0  0
 11 30  1  0  0  0
 12 14  2  0  0  0
 12 18  1  0  0  0
 14 15  1  0  0  0
 14 31  1  0  0  0
 15 16  2  0  0  0
 15 32  1  0  0  0
 16 17  1  0  0  0
 16 33  1  0  0  0
 17 18  2  0  0  0
 17 34  1  0  0  0
 18 35  1  0  0  0
 19 20  2  0  0  0
 19 21  2  0  0  0
 19 22  1  0  0  0
 22 23  1  0  0  0
 22 24  1  0  0  0
 23 36  1  0  0  0
 23 37  1  0  0  0
 23 38  1  0  0  0
 24 39  1  0  0  0
 24 40  1  0  0  0
 24 41  1  0  0  0
M  END
>  <Name>
Ro05-3343

>  <Family>
A.1

>  <IC50_uM>
>1

>  <set>
2

$$$$
Ro05-2921
  Cerius2 12180215283D 1   1.00000                          
 Structure written by MMmdl.
 30 32  0  0  0  0  0  0  0  0999 V2000
   -2.1026    2.5135   -0.2080 C   0  0  0  0  0  0
   -2.3447    1.1554   -0.0346 C   0  0  0  0  0  0
   -1.2766    0.2802    0.1637 C   0  0  0  0  0  0
    0.0455    0.7590    0.2021 C   0  0  0  0  0  0
    0.2816    2.1410    0.1037 C   0  0  0  0  0  0
   -0.7967    3.0025   -0.1450 C   0  0  0  0  0  0
    1.1583   -0.2455    0.2264 C   0  0  0  0  0  0
    2.2411   -0.1466    0.9286 N   0  0  0  0  0  0
    2.4062    1.0323    1.7774 C   0  0  0  0  0  0
    2.6264    2.2663    0.9156 C   0  0  0  0  0  0
    1.5430    2.7499    0.2288 N   0  0  0  0  0  0
    1.0363   -1.4596   -0.6445 C   0  0  0  0  0  0
    3.7091    2.8608    0.8807 O   0  0  0  0  0  0
    0.5273   -1.3657   -1.9462 C   0  0  0  0  0  0
    0.4366   -2.5091   -2.7430 C   0  0  0  0  0  0
    0.8604   -3.7426   -2.2479 C   0  0  0  0  0  0
    1.3819   -3.8367   -0.9577 C   0  0  0  0  0  0
    1.4756   -2.6968   -0.1572 C   0  0  0  0  0  0
   -2.9316    3.1980   -0.3794 H   0  0  0  0  0  0
   -3.3632    0.7728   -0.0725 H   0  0  0  0  0  0
   -1.4891   -0.7825    0.2686 H   0  0  0  0  0  0
   -0.6363    4.0742   -0.2559 H   0  0  0  0  0  0
    3.2960    0.8904    2.4004 H   0  0  0  0  0  0
    1.5628    1.1776    2.4622 H   0  0  0  0  0  0
    1.6585    3.6868   -0.1475 H   0  0  0  0  0  0
    0.2091   -0.4102   -2.3574 H   0  0  0  0  0  0
    0.0390   -2.4368   -3.7539 H   0  0  0  0  0  0
    0.7892   -4.6322   -2.8718 H   0  0  0  0  0  0
    1.7176   -4.7990   -0.5751 H   0  0  0  0  0  0
    1.8851   -2.7803    0.8477 H   0  0  0  0  0  0
  1  2  2  0  0  0
  1  6  1  0  0  0
  1 19  1  0  0  0
  2  3  1  0  0  0
  2 20  1  0  0  0
  3  4  2  0  0  0
  3 21  1  0  0  0
  4  5  1  0  0  0
  4  7  1  0  0  0
  5  6  2  0  0  0
  5 11  1  0  0  0
  6 22  1  0  0  0
  7  8  2  0  0  0
  7 12  1  0  0  0
  8  9  1  0  0  0
  9 10  1  0  0  0
  9 23  1  0  0  0
  9 24  1  0  0  0
 10 11  1  0  0  0
 10 13  2  0  0  0
 11 25  1  0  0  0
 12 14  2  0  0  0
 12 18  1  0  0  0
 14 15  1  0  0  0
 14 26  1  0  0  0
 15 16  2  0  0  0
 15 27  1  0  0  0
 16 17  1  0  0  0
 16 28  1  0  0  0
 17 18  2  0  0  0
 17 29  1  0  0  0
 18 30  1  0  0  0
M  END
>  <Name>
Ro05-2921

>  <Family>
A.1

>  <IC50_uM>
0.350000

>  <set>
1

$$$$
Ro05-4336
  Cerius2 12180215283D 1   1.00000                          
 Structure written by MMmdl.
 30 32  0  0  0  0  0  0  0  0999 V2000
   -2.1013    2.4906   -0.2275 C   0  0  0  0  0  0
   -2.3348    1.1291   -0.0709 C   0  0  0  0  0  0
   -1.2629    0.2606    0.1357 C   0  0  0  0  0  0
    0.0549    0.7491    0.2028 C   0  0  0  0  0  0
    0.2822    2.1336    0.1125 C   0  0  0  0  0  0
   -0.8001    2.9884   -0.1429 C   0  0  0  0  0  0
    1.1733   -0.2485    0.2337 C   0  0  0  0  0  0
    2.2652   -0.1404    0.9186 N   0  0  0  0  0  0
    2.4274    1.0344    1.7732 C   0  0  0  0  0  0
    2.6298    2.2761    0.9202 C   0  0  0  0  0  0
    1.5380    2.7530    0.2432 N   0  0  0  0  0  0
    1.0435   -1.4579   -0.6283 C   0  0  0  0  0  0
    3.7058    2.8826    0.8846 O   0  0  0  0  0  0
    1.4641   -2.7074   -0.1550 C   0  0  0  0  0  0
    1.3271   -3.8372   -0.9651 C   0  0  0  0  0  0
    0.7693   -3.7233   -2.2403 C   0  0  0  0  0  0
    0.3452   -2.4793   -2.7091 C   0  0  0  0  0  0
    0.4806   -1.3529   -1.9014 C   0  0  0  0  0  0
    0.0871   -0.1653   -2.3864 F   0  0  0  0  0  0
   -2.9330    3.1702   -0.4049 H   0  0  0  0  0  0
   -3.3495    0.7390   -0.1280 H   0  0  0  0  0  0
   -1.4721   -0.8039    0.2276 H   0  0  0  0  0  0
   -0.6465    4.0619   -0.2458 H   0  0  0  0  0  0
    3.3228    0.8954    2.3889 H   0  0  0  0  0  0
    1.5877    1.1679    2.4650 H   0  0  0  0  0  0
    1.6442    3.6933   -0.1278 H   0  0  0  0  0  0
    1.8886   -2.8144    0.8410 H   0  0  0  0  0  0
    1.6532   -4.8100   -0.6001 H   0  0  0  0  0  0
    0.6647   -4.6061   -2.8689 H   0  0  0  0  0  0
   -0.0871   -2.3837   -3.7015 H   0  0  0  0  0  0
  1  2  2  0  0  0
  1  6  1  0  0  0
  1 20  1  0  0  0
  2  3  1  0  0  0
  2 21  1  0  0  0
  3  4  2  0  0  0
  3 22  1  0  0  0
  4  5  1  0  0  0
  4  7  1  0  0  0
  5  6  2  0  0  0
  5 11  1  0  0  0
  6 23  1  0  0  0
  7  8  2  0  0  0
  7 12  1  0  0  0
  8  9  1  0  0  0
  9 10  1  0  0  0
  9 24  1  0  0  0
  9 25  1  0  0  0
 10 11  1  0  0  0
 10 13  2  0  0  0
 11 26  1  0  0  0
 12 14  2  0  0  0
 12 18  1  0  0  0
 14 15  1  0  0  0
 14 27  1  0  0  0
 15 16  2  0  0  0
 15 28  1  0  0  0
 16 17  1  0  0  0
 16 29  1  0  0  0
 17 18  2  0  0  0
 17 30  1  0  0  0
 18 19  1  0  0  0
M  END
>  <Name>
Ro05-4336

>  <Family>
A.1

>  <IC50_uM>
0.021000

>  <set>
0

$$$$
Ro07-4419
  Cerius2 12180215283D 1   1.00000                          
 Structure written by MMmdl.
 30 32  0  0  0  0  0  0  0  0999 V2000
   -2.1013    2.4900   -0.2282 C   0  0  0  0  0  0
   -2.3346    1.1285   -0.0710 C   0  0  0  0  0  0
   -1.2628    0.2599    0.1360 C   0  0  0  0  0  0
    0.0548    0.7493    0.2025 C   0  0  0  0  0  0
    0.2821    2.1339    0.1126 C   0  0  0  0  0  0
   -0.8004    2.9884   -0.1432 C   0  0  0  0  0  0
    1.1739   -0.2472    0.2309 C   0  0  0  0  0  0
    2.2653   -0.1405    0.9169 N   0  0  0  0  0  0
    2.4277    1.0337    1.7730 C   0  0  0  0  0  0
    2.6297    2.2764    0.9211 C   0  0  0  0  0  0
    1.5379    2.7534    0.2443 N   0  0  0  0  0  0
    1.0447   -1.4547   -0.6265 C   0  0  0  0  0  0
    3.7055    2.8830    0.8858 O   0  0  0  0  0  0
    0.5266   -1.3547   -1.9179 C   0  0  0  0  0  0
    0.4141   -2.4826   -2.7285 C   0  0  0  0  0  0
    0.8279   -3.7260   -2.2482 C   0  0  0  0  0  0
    1.3543   -3.8336   -0.9597 C   0  0  0  0  0  0
    1.4635   -2.6988   -0.1572 C   0  0  0  0  0  0
    1.9519   -2.8374    1.0849 F   0  0  0  0  0  0
    0.1409   -0.1680   -2.4113 F   0  0  0  0  0  0
   -2.9333    3.1694   -0.4059 H   0  0  0  0  0  0
   -3.3495    0.7386   -0.1274 H   0  0  0  0  0  0
   -1.4737   -0.8037    0.2311 H   0  0  0  0  0  0
   -0.6472    4.0619   -0.2460 H   0  0  0  0  0  0
    3.3233    0.8941    2.3882 H   0  0  0  0  0  0
    1.5881    1.1663    2.4649 H   0  0  0  0  0  0
    1.6438    3.6940   -0.1258 H   0  0  0  0  0  0
    0.0084   -2.3883   -3.7325 H   0  0  0  0  0  0
    0.7416   -4.6101   -2.8775 H   0  0  0  0  0  0
    1.6774   -4.7983   -0.5771 H   0  0  0  0  0  0
  1  2  2  0  0  0
  1  6  1  0  0  0
  1 21  1  0  0  0
  2  3  1  0  0  0
  2 22  1  0  0  0
  3  4  2  0  0  0
  3 23  1  0  0  0
  4  5  1  0  0  0
  4  7  1  0  0  0
  5  6  2  0  0  0
  5 11  1  0  0  0
  6 24  1  0  0  0
  7  8  2  0  0  0
  7 12  1  0  0  0
  8  9  1  0  0  0
  9 10  1  0  0  0
  9 25  1  0  0  0
  9 26  1  0  0  0
 10 11  1  0  0  0
 10 13  2  0  0  0
 11 27  1  0  0  0
 12 14  2  0  0  0
 12 18  1  0  0  0
 14 15  1  0  0  0
 14 20  1  0  0  0
 15 16  2  0  0  0
 15 28  1  0  0  0
 16 17  1  0  0  0
 16 29  1  0  0  0
 17 18  2  0  0  0
 17 30  1  0  0  0
 18 19  1  0  0  0
M  END
>  <Name>
Ro07-4419

>  <Family>
A.1

>  <IC50_uM>
0.019000

>  <set>
1

$$$$
Ro05-4520
  Cerius2 12180215283D 1   1.00000                          
 Structure written by MMmdl.
 33 35  0  0  0  0  0  0  0  0999 V2000
   -2.1322    2.4827   -0.1720 C   0  0  0  0  0  0
   -2.3525    1.1237    0.0003 C   0  0  0  0  0  0
   -1.2676    0.2689    0.1732 C   0  0  0  0  0  0
    0.0497    0.7689    0.1797 C   0  0  0  0  0  0
    0.2870    2.1545    0.0529 C   0  0  0  0  0  0
   -0.8295    2.9900   -0.1486 C   0  0  0  0  0  0
    1.1535   -0.2402    0.2447 C   0  0  0  0  0  0
    2.2067   -0.1368    0.9892 N   0  0  0  0  0  0
    2.3185    1.0734    1.8036 C   0  0  0  0  0  0
    2.6415    2.2455    0.8867 C   0  0  0  0  0  0
    1.5939    2.7455    0.1098 N   0  0  0  0  0  0
    1.0470   -1.4468   -0.6247 C   0  0  0  0  0  0
    3.7758    2.7403    0.8821 O   0  0  0  0  0  0
    1.4233   -2.7035   -0.1327 C   0  0  0  0  0  0
    1.3093   -3.8315   -0.9493 C   0  0  0  0  0  0
    0.8186   -3.7095   -2.2505 C   0  0  0  0  0  0
    0.4387   -2.4591   -2.7393 C   0  0  0  0  0  0
    0.5512   -1.3345   -1.9253 C   0  0  0  0  0  0
    0.2024   -0.1420   -2.4319 F   0  0  0  0  0  0
    1.8280    3.9897   -0.6203 C   0  0  0  0  0  0
   -2.9748    3.1579   -0.3130 H   0  0  0  0  0  0
   -3.3660    0.7271   -0.0082 H   0  0  0  0  0  0
   -1.4635   -0.7951    0.2961 H   0  0  0  0  0  0
   -0.7188    4.0676   -0.2543 H   0  0  0  0  0  0
    3.1526    0.9467    2.5026 H   0  0  0  0  0  0
    1.4298    1.2694    2.4138 H   0  0  0  0  0  0
    1.7947   -2.8196    0.8833 H   0  0  0  0  0  0
    1.6011   -4.8092   -0.5684 H   0  0  0  0  0  0
    0.7317   -4.5907   -2.8842 H   0  0  0  0  0  0
    0.0589   -2.3570   -3.7522 H   0  0  0  0  0  0
    2.8954    4.1459   -0.8030 H   0  0  0  0  0  0
    1.4618    4.8290   -0.0209 H   0  0  0  0  0  0
    1.3256    3.9609   -1.5924 H   0  0  0  0  0  0
  1  2  2  0  0  0
  1  6  1  0  0  0
  1 21  1  0  0  0
  2  3  1  0  0  0
  2 22  1  0  0  0
  3  4  2  0  0  0
  3 23  1  0  0  0
  4  5  1  0  0  0
  4  7  1  0  0  0
  5  6  2  0  0  0
  5 11  1  0  0  0
  6 24  1  0  0  0
  7  8  2  0  0  0
  7 12  1  0  0  0
  8  9  1  0  0  0
  9 10  1  0  0  0
  9 25  1  0  0  0
  9 26  1  0  0  0
 10 11  1  0  0  0
 10 13  2  0  0  0
 11 20  1  0  0  0
 12 14  2  0  0  0
 12 18  1  0  0  0
 14 15  1  0  0  0
 14 27  1  0  0  0
 15 16  2  0  0  0
 15 28  1  0  0  0
 16 17  1  0  0  0
 16 29  1  0  0  0
 17 18  2  0  0  0
 17 30  1  0  0  0
 18 19  1  0  0  0
 20 31  1  0  0  0
 20 32  1  0  0  0
 20 33  1  0  0  0
M  END
>  <Name>
Ro05-4520

>  <Family>
A.1

>  <IC50_uM>
0.014000

>  <set>
1

$$$$
Ro05-4608
  Cerius2 12180215283D 1   1.00000                          
 Structure written by MMmdl.
 33 35  0  0  0  0  0  0  0  0999 V2000
   -2.1304    2.4590   -0.1994 C   0  0  0  0  0  0
   -2.3449    1.0992   -0.0294 C   0  0  0  0  0  0
   -1.2574    0.2506    0.1580 C   0  0  0  0  0  0
    0.0573    0.7571    0.1850 C   0  0  0  0  0  0
    0.2889    2.1438    0.0523 C   0  0  0  0  0  0
   -0.8307    2.9727   -0.1624 C   0  0  0  0  0  0
    1.1657   -0.2447    0.2672 C   0  0  0  0  0  0
    2.2276   -0.1293    0.9964 N   0  0  0  0  0  0
    2.3339    1.0839    1.8057 C   0  0  0  0  0  0
    2.6453    2.2541    0.8846 C   0  0  0  0  0  0
    1.5925    2.7438    0.1086 N   0  0  0  0  0  0
    1.0582   -1.4601   -0.5869 C   0  0  0  0  0  0
    3.7757    2.7582    0.8766 O   0  0  0  0  0  0
    1.4636   -2.6845   -0.0359 C   0  0  0  0  0  0
    1.3682   -3.8534   -0.7918 C   0  0  0  0  0  0
    0.8685   -3.8039   -2.0927 C   0  0  0  0  0  0
    0.4642   -2.5851   -2.6428 C   0  0  0  0  0  0
    0.5557   -1.4086   -1.8932 C   0  0  0  0  0  0
    0.0884    0.0713   -2.6536 Cl  0  0  0  0  0  0
    1.8189    3.9861   -0.6278 C   0  0  0  0  0  0
   -2.9747    3.1296   -0.3513 H   0  0  0  0  0  0
   -3.3560    0.6969   -0.0505 H   0  0  0  0  0  0
   -1.4525   -0.8133    0.2796 H   0  0  0  0  0  0
   -0.7250    4.0504   -0.2706 H   0  0  0  0  0  0
    3.1707    0.9651    2.5030 H   0  0  0  0  0  0
    1.4456    1.2760    2.4177 H   0  0  0  0  0  0
    1.8450   -2.7378    0.9819 H   0  0  0  0  0  0
    1.6812   -4.8048   -0.3648 H   0  0  0  0  0  0
    0.7950   -4.7166   -2.6819 H   0  0  0  0  0  0
    0.0836   -2.5625   -3.6621 H   0  0  0  0  0  0
    2.8853    4.1493   -0.8102 H   0  0  0  0  0  0
    1.4459    4.8259   -0.0333 H   0  0  0  0  0  0
    1.3184    3.9487   -1.6007 H   0  0  0  0  0  0
  1  2  2  0  0  0
  1  6  1  0  0  0
  1 21  1  0  0  0
  2  3  1  0  0  0
  2 22  1  0  0  0
  3  4  2  0  0  0
  3 23  1  0  0  0
  4  5  1  0  0  0
  4  7  1  0  0  0
  5  6  2  0  0  0
  5 11  1  0  0  0
  6 24  1  0  0  0
  7  8  2  0  0  0
  7 12  1  0  0  0
  8  9  1  0  0  0
  9 10  1  0  0  0
  9 25  1  0  0  0
  9 26  1  0  0  0
 10 11  1  0  0  0
 10 13  2  0  0  0
 11 20  1  0  0  0
 12 14  2  0  0  0
 12 18  1  0  0  0
 14 15  1  0  0  0
 14 27  1  0  0  0
 15 16  2  0  0  0
 15 28  1  0  0  0
 16 17  1  0  0  0
 16 29  1  0  0  0
 17 18  2  0  0  0
 17 30  1  0  0  0
 18 19  1  0  0  0
 20 31  1  0  0  0
 20 32  1  0  0  0
 20 33  1  0  0  0
M  END
>  <Name>
Ro05-4608

>  <Family>
A.1

>  <IC50_uM>
0.003800

>  <set>
0

$$$$
Ro05-3546
  Cerius2 12180215283D 1   1.00000                          
 Structure written by MMmdl.
 30 32  0  0  0  0  0  0  0  0999 V2000
   -2.0860    2.5357   -0.2624 C   0  0  0  0  0  0
   -2.3779    1.2207    0.0864 C   0  0  0  0  0  0
   -1.3438    0.3186    0.3549 C   0  0  0  0  0  0
    0.0004    0.7323    0.2741 C   0  0  0  0  0  0
    0.2835    2.0915    0.0360 C   0  0  0  0  0  0
   -0.7620    2.9692   -0.2831 C   0  0  0  0  0  0
    1.1164   -0.2698    0.2951 C   0  0  0  0  0  0
    2.1945   -0.1646    1.0055 N   0  0  0  0  0  0
    2.3644    1.0466    1.8073 C   0  0  0  0  0  0
    2.6208    2.2262    0.8765 C   0  0  0  0  0  0
    1.5652    2.6691    0.1185 N   0  0  0  0  0  0
    1.0323   -1.4558   -0.6205 C   0  0  0  0  0  0
    3.7097    2.8089    0.8371 O   0  0  0  0  0  0
    0.5474   -1.3264   -1.9288 C   0  0  0  0  0  0
    0.4937   -2.4428   -2.7662 C   0  0  0  0  0  0
    0.9316   -3.6849   -2.3066 C   0  0  0  0  0  0
    1.4310   -3.8145   -1.0112 C   0  0  0  0  0  0
    1.4877   -2.7017   -0.1699 C   0  0  0  0  0  0
   -1.8135   -1.2754    0.8446 Cl  0  0  0  0  0  0
   -2.8915    3.2332   -0.4855 H   0  0  0  0  0  0
   -3.4177    0.9038    0.1409 H   0  0  0  0  0  0
   -0.5600    4.0161   -0.5070 H   0  0  0  0  0  0
    3.2434    0.9208    2.4487 H   0  0  0  0  0  0
    1.5133    1.2423    2.4690 H   0  0  0  0  0  0
    1.7118    3.5702   -0.3286 H   0  0  0  0  0  0
    0.2199   -0.3651   -2.3179 H   0  0  0  0  0  0
    0.1142   -2.3425   -3.7817 H   0  0  0  0  0  0
    0.8890   -4.5531   -2.9623 H   0  0  0  0  0  0
    1.7781   -4.7831   -0.6557 H   0  0  0  0  0  0
    1.8794   -2.8144    0.8392 H   0  0  0  0  0  0
  1  2  2  0  0  0
  1  6  1  0  0  0
  1 20  1  0  0  0
  2  3  1  0  0  0
  2 21  1  0  0  0
  3  4  2  0  0  0
  3 19  1  0  0  0
  4  5  1  0  0  0
  4  7  1  0  0  0
  5  6  2  0  0  0
  5 11  1  0  0  0
  6 22  1  0  0  0
  7  8  2  0  0  0
  7 12  1  0  0  0
  8  9  1  0  0  0
  9 10  1  0  0  0
  9 23  1  0  0  0
  9 24  1  0  0  0
 10 11  1  0  0  0
 10 13  2  0  0  0
 11 25  1  0  0  0
 12 14  2  0  0  0
 12 18  1  0  0  0
 14 15  1  0  0  0
 14 26  1  0  0  0
 15 16  2  0  0  0
 15 27  1  0  0  0
 16 17  1  0  0  0
 16 28  1  0  0  0
 17 18  2  0  0  0
 17 29  1  0  0  0
 18 30  1  0  0  0
M  END
>  <Name>
Ro05-3546

>  <Family>
A.1

>  <IC50_uM>
0.320000

>  <set>
0

$$$$
Ro13-0699
  Cerius2 12180215283D 1   1.00000                          
 Structure written by MMmdl.
 33 35  0  0  0  0  0  0  0  0999 V2000
   -2.1256    2.5212   -0.1953 C   0  0  0  0  0  0
   -2.3955    1.2009    0.1377 C   0  0  0  0  0  0
   -1.3447    0.3123    0.3696 C   0  0  0  0  0  0
   -0.0049    0.7442    0.2614 C   0  0  0  0  0  0
    0.2784    2.1073    0.0078 C   0  0  0  0  0  0
   -0.8052    2.9686   -0.2531 C   0  0  0  0  0  0
    1.1064   -0.2592    0.3160 C   0  0  0  0  0  0
    2.1534   -0.1475    1.0692 N   0  0  0  0  0  0
    2.2697    1.0877    1.8455 C   0  0  0  0  0  0
    2.6228    2.2118    0.8764 C   0  0  0  0  0  0
    1.6053    2.6595    0.0265 N   0  0  0  0  0  0
    1.0453   -1.4351   -0.6033 C   0  0  0  0  0  0
    3.7560    2.7093    0.8837 O   0  0  0  0  0  0
    1.4649   -2.6976   -0.1614 C   0  0  0  0  0  0
    1.3911   -3.7970   -1.0211 C   0  0  0  0  0  0
    0.8957   -3.6434   -2.3167 C   0  0  0  0  0  0
    0.4701   -2.3902   -2.7564 C   0  0  0  0  0  0
    0.5425   -1.2939   -1.8998 C   0  0  0  0  0  0
   -1.7874   -1.2923    0.8517 Cl  0  0  0  0  0  0
    1.8860    3.8325   -0.7985 C   0  0  0  0  0  0
    0.1494   -0.0982   -2.3648 F   0  0  0  0  0  0
   -2.9437    3.2152   -0.3808 H   0  0  0  0  0  0
   -3.4299    0.8719    0.2159 H   0  0  0  0  0  0
   -0.6524    4.0259   -0.4624 H   0  0  0  0  0  0
    3.0949    0.9767    2.5575 H   0  0  0  0  0  0
    1.3767    1.3228    2.4347 H   0  0  0  0  0  0
    1.8373   -2.8469    0.8497 H   0  0  0  0  0  0
    1.7170   -4.7776   -0.6774 H   0  0  0  0  0  0
    0.8401   -4.5022   -2.9837 H   0  0  0  0  0  0
    0.0857   -2.2628   -3.7648 H   0  0  0  0  0  0
    2.9586    3.9272   -0.9931 H   0  0  0  0  0  0
    1.5579    4.7306   -0.2658 H   0  0  0  0  0  0
    1.3795    3.7490   -1.7653 H   0  0  0  0  0  0
  1  2  2  0  0  0
  1  6  1  0  0  0
  1 22  1  0  0  0
  2  3  1  0  0  0
  2 23  1  0  0  0
  3  4  2  0  0  0
  3 19  1  0  0  0
  4  5  1  0  0  0
  4  7  1  0  0  0
  5  6  2  0  0  0
  5 11  1  0  0  0
  6 24  1  0  0  0
  7  8  2  0  0  0
  7 12  1  0  0  0
  8  9  1  0  0  0
  9 10  1  0  0  0
  9 25  1  0  0  0
  9 26  1  0  0  0
 10 11  1  0  0  0
 10 13  2  0  0  0
 11 20  1  0  0  0
 12 14  2  0  0  0
 12 18  1  0  0  0
 14 15  1  0  0  0
 14 27  1  0  0  0
 15 16  2  0  0  0
 15 28  1  0  0  0
 16 17  1  0  0  0
 16 29  1  0  0  0
 17 18  2  0  0  0
 17 30  1  0  0  0
 18 21  1  0  0  0
 20 31  1  0  0  0
 20 32  1  0  0  0
 20 33  1  0  0  0
M  END
>  <Name>
Ro13-0699

>  <Family>
A.1

>  <IC50_uM>
0.150000

>  <set>
0

$$$$
Ro07-6198
  Cerius2 12180215283D 1   1.00000                          
 Structure written by MMmdl.
 30 32  0  0  0  0  0  0  0  0999 V2000
   -2.0983    2.4885   -0.2280 C   0  0  0  0  0  0
   -2.3363    1.1281   -0.0697 C   0  0  0  0  0  0
   -1.2635    0.2593    0.1388 C   0  0  0  0  0  0
    0.0538    0.7493    0.2037 C   0  0  0  0  0  0
    0.2807    2.1350    0.1116 C   0  0  0  0  0  0
   -0.8005    2.9918   -0.1454 C   0  0  0  0  0  0
    1.1731   -0.2475    0.2320 C   0  0  0  0  0  0
    2.2638   -0.1402    0.9186 N   0  0  0  0  0  0
    2.4267    1.0342    1.7740 C   0  0  0  0  0  0
    2.6300    2.2754    0.9205 C   0  0  0  0  0  0
    1.5384    2.7524    0.2423 N   0  0  0  0  0  0
    1.0446   -1.4549   -0.6259 C   0  0  0  0  0  0
    3.7063    2.8810    0.8842 O   0  0  0  0  0  0
    0.5269   -1.3543   -1.9176 C   0  0  0  0  0  0
    0.4151   -2.4818   -2.7290 C   0  0  0  0  0  0
    0.8293   -3.7252   -2.2493 C   0  0  0  0  0  0
    1.3552   -3.8334   -0.9608 C   0  0  0  0  0  0
    1.4636   -2.6993   -0.1573 C   0  0  0  0  0  0
    1.9512   -2.8387    1.0850 F   0  0  0  0  0  0
   -3.4161    3.5590   -0.5120 Cl  0  0  0  0  0  0
    0.1400   -0.1677   -2.4100 F   0  0  0  0  0  0
   -3.3473    0.7308   -0.1240 H   0  0  0  0  0  0
   -1.4745   -0.8042    0.2354 H   0  0  0  0  0  0
   -0.6383    4.0629   -0.2489 H   0  0  0  0  0  0
    3.3219    0.8947    2.3898 H   0  0  0  0  0  0
    1.5867    1.1684    2.4653 H   0  0  0  0  0  0
    1.6480    3.6921   -0.1296 H   0  0  0  0  0  0
    0.0097   -2.3869   -3.7330 H   0  0  0  0  0  0
    0.7440   -4.6088   -2.8795 H   0  0  0  0  0  0
    1.6785   -4.7982   -0.5785 H   0  0  0  0  0  0
  1  2  2  0  0  0
  1  6  1  0  0  0
  1 20  1  0  0  0
  2  3  1  0  0  0
  2 22  1  0  0  0
  3  4  2  0  0  0
  3 23  1  0  0  0
  4  5  1  0  0  0
  4  7  1  0  0  0
  5  6  2  0  0  0
  5 11  1  0  0  0
  6 24  1  0  0  0
  7  8  2  0  0  0
  7 12  1  0  0  0
  8  9  1  0  0  0
  9 10  1  0  0  0
  9 25  1  0  0  0
  9 26  1  0  0  0
 10 11  1  0  0  0
 10 13  2  0  0  0
 11 27  1  0  0  0
 12 14  2  0  0  0
 12 18  1  0  0  0
 14 15  1  0  0  0
 14 21  1  0  0  0
 15 16  2  0  0  0
 15 28  1  0  0  0
 16 17  1  0  0  0
 16 29  1  0  0  0
 17 18  2  0  0  0
 17 30  1  0  0  0
 18 19  1  0  0  0
M  END
>  <Name>
Ro07-6198

>  <Family>
A.1

>  <IC50_uM>
0.028000

>  <set>
0

$$$$
Ro20-8895
  Cerius2 12180215283D 1   1.00000                          
 Structure written by MMmdl.
 33 35  0  0  0  0  0  0  0  0999 V2000
   -2.1096    2.4952   -0.2397 C   0  0  0  0  0  0
   -2.3340    1.1290   -0.0639 C   0  0  0  0  0  0
   -1.2603    0.2612    0.1433 C   0  0  0  0  0  0
    0.0567    0.7487    0.2038 C   0  0  0  0  0  0
    0.2828    2.1319    0.1115 C   0  0  0  0  0  0
   -0.8009    2.9872   -0.1447 C   0  0  0  0  0  0
    1.1748   -0.2491    0.2344 C   0  0  0  0  0  0
    2.2665   -0.1409    0.9193 N   0  0  0  0  0  0
    2.4279    1.0340    1.7741 C   0  0  0  0  0  0
    2.6300    2.2757    0.9209 C   0  0  0  0  0  0
    1.5385    2.7518    0.2428 N   0  0  0  0  0  0
    1.0443   -1.4581   -0.6284 C   0  0  0  0  0  0
    3.7054    2.8829    0.8859 O   0  0  0  0  0  0
    1.4647   -2.7081   -0.1561 C   0  0  0  0  0  0
    1.3274   -3.8374   -0.9671 C   0  0  0  0  0  0
    0.7696   -3.7224   -2.2420 C   0  0  0  0  0  0
    0.3458   -2.4780   -2.7100 C   0  0  0  0  0  0
    0.4815   -1.3522   -1.9016 C   0  0  0  0  0  0
    0.0885   -0.1643   -2.3860 F   0  0  0  0  0  0
   -3.2606    3.4345   -0.4548 C   0  0  0  0  0  0
   -3.3448    0.7245   -0.1066 H   0  0  0  0  0  0
   -1.4696   -0.8025    0.2433 H   0  0  0  0  0  0
   -0.6331    4.0602   -0.2407 H   0  0  0  0  0  0
    3.3232    0.8956    2.3900 H   0  0  0  0  0  0
    1.5879    1.1673    2.4656 H   0  0  0  0  0  0
    1.6452    3.6916   -0.1291 H   0  0  0  0  0  0
    1.8892   -2.8161    0.8397 H   0  0  0  0  0  0
    1.6534   -4.8104   -0.6027 H   0  0  0  0  0  0
    0.6647   -4.6047   -2.8714 H   0  0  0  0  0  0
   -0.0865   -2.3816   -3.7023 H   0  0  0  0  0  0
   -2.9588    4.2844   -1.0759 H   0  0  0  0  0  0
   -3.6227    3.8089    0.5076 H   0  0  0  0  0  0
   -4.0846    2.9314   -0.9716 H   0  0  0  0  0  0
  1  2  2  0  0  0
  1  6  1  0  0  0
  1 20  1  0  0  0
  2  3  1  0  0  0
  2 21  1  0  0  0
  3  4  2  0  0  0
  3 22  1  0  0  0
  4  5  1  0  0  0
  4  7  1  0  0  0
  5  6  2  0  0  0
  5 11  1  0  0  0
  6 23  1  0  0  0
  7  8  2  0  0  0
  7 12  1  0  0  0
  8  9  1  0  0  0
  9 10  1  0  0  0
  9 24  1  0  0  0
  9 25  1  0  0  0
 10 11  1  0  0  0
 10 13  2  0  0  0
 11 26  1  0  0  0
 12 14  2  0  0  0
 12 18  1  0  0  0
 14 15  1  0  0  0
 14 27  1  0  0  0
 15 16  2  0  0  0
 15 28  1  0  0  0
 16 17  1  0  0  0
 16 29  1  0  0  0
 17 18  2  0  0  0
 17 30  1  0  0  0
 18 19  1  0  0  0
 20 31  1  0  0  0
 20 32  1  0  0  0
 20 33  1  0  0  0
M  END
>  <Name>
Ro20-8895

>  <Family>
A.1

>  <IC50_uM>
0.019000

>  <set>
1

$$$$
Ro13-0593
  Cerius2 12180215283D 1   1.00000                          
 Structure written by MMmdl.
 33 35  0  0  0  0  0  0  0  0999 V2000
   -2.5722    1.8246    0.1168 C   0  0  0  0  0  0
   -2.5674    0.4389    0.1974 C   0  0  0  0  0  0
   -1.3554   -0.2371    0.2530 C   0  0  0  0  0  0
   -0.1359    0.4664    0.2034 C   0  0  0  0  0  0
   -0.1141    1.8799    0.1178 C   0  0  0  0  0  0
   -1.3673    2.5423    0.0887 C   0  0  0  0  0  0
    1.1090   -0.3670    0.2211 C   0  0  0  0  0  0
    2.1440   -0.1242    0.9602 N   0  0  0  0  0  0
    2.1028    1.0913    1.7784 C   0  0  0  0  0  0
    2.2453    2.2803    0.8375 C   0  0  0  0  0  0
    1.1312    2.5991    0.0581 N   0  0  0  0  0  0
    1.1673   -1.5563   -0.6763 C   0  0  0  0  0  0
    3.3027    2.9205    0.7838 O   0  0  0  0  0  0
    1.7285   -2.7553   -0.2175 C   0  0  0  0  0  0
    1.7679   -3.8705   -1.0582 C   0  0  0  0  0  0
    1.2467   -3.7940   -2.3510 C   0  0  0  0  0  0
    0.6833   -2.6021   -2.8071 C   0  0  0  0  0  0
    0.6429   -1.4902   -1.9690 C   0  0  0  0  0  0
    0.1187   -0.3509   -2.4460 F   0  0  0  0  0  0
   -1.5455    4.2676    0.1701 Cl  0  0  0  0  0  0
    1.2775    3.7006   -0.8850 C   0  0  0  0  0  0
   -3.5270    2.3479    0.1041 H   0  0  0  0  0  0
   -3.5054   -0.1117    0.2335 H   0  0  0  0  0  0
   -1.3743   -1.3226    0.3387 H   0  0  0  0  0  0
    2.9618    1.0858    2.4582 H   0  0  0  0  0  0
    1.2069    1.1662    2.4039 H   0  0  0  0  0  0
    2.1262   -2.8390    0.7916 H   0  0  0  0  0  0
    2.2032   -4.8035   -0.7027 H   0  0  0  0  0  0
    1.2794   -4.6652   -3.0035 H   0  0  0  0  0  0
    0.2788   -2.5348   -3.8134 H   0  0  0  0  0  0
    2.2704    3.6561   -1.3465 H   0  0  0  0  0  0
    1.2078    4.6504   -0.3470 H   0  0  0  0  0  0
    0.5412    3.6409   -1.6916 H   0  0  0  0  0  0
  1  2  2  0  0  0
  1  6  1  0  0  0
  1 22  1  0  0  0
  2  3  1  0  0  0
  2 23  1  0  0  0
  3  4  2  0  0  0
  3 24  1  0  0  0
  4  5  1  0  0  0
  4  7  1  0  0  0
  5  6  2  0  0  0
  5 11  1  0  0  0
  6 20  1  0  0  0
  7  8  2  0  0  0
  7 12  1  0  0  0
  8  9  1  0  0  0
  9 10  1  0  0  0
  9 25  1  0  0  0
  9 26  1  0  0  0
 10 11  1  0  0  0
 10 13  2  0  0  0
 11 21  1  0  0  0
 12 14  2  0  0  0
 12 18  1  0  0  0
 14 15  1  0  0  0
 14 27  1  0  0  0
 15 16  2  0  0  0
 15 28  1  0  0  0
 16 17  1  0  0  0
 16 29  1  0  0  0
 17 18  2  0  0  0
 17 30  1  0  0  0
 18 19  1  0  0  0
 21 31  1  0  0  0
 21 32  1  0  0  0
 21 33  1  0  0  0
M  END
>  <Name>
Ro13-0593

>  <Family>
A.1

>  <IC50_uM>
0.072000

>  <set>
1

$$$$
Ro13-0882
  Cerius2 12180215283D 1   1.00000                          
 Structure written by MMmdl.
 33 35  0  0  0  0  0  0  0  0999 V2000
   -2.1232    2.5176   -0.1914 C   0  0  0  0  0  0
   -2.3995    1.1995    0.1380 C   0  0  0  0  0  0
   -1.3467    0.3138    0.3681 C   0  0  0  0  0  0
   -0.0060    0.7451    0.2607 C   0  0  0  0  0  0
    0.2772    2.1085    0.0079 C   0  0  0  0  0  0
   -0.8055    2.9712   -0.2519 C   0  0  0  0  0  0
    1.1055   -0.2588    0.3156 C   0  0  0  0  0  0
    2.1517   -0.1469    1.0694 N   0  0  0  0  0  0
    2.2695    1.0878    1.8459 C   0  0  0  0  0  0
    2.6233    2.2113    0.8767 C   0  0  0  0  0  0
    1.6056    2.6590    0.0260 N   0  0  0  0  0  0
    1.0452   -1.4347   -0.6035 C   0  0  0  0  0  0
    3.7566    2.7086    0.8838 O   0  0  0  0  0  0
    1.4647   -2.6972   -0.1612 C   0  0  0  0  0  0
    1.3918   -3.7964   -1.0211 C   0  0  0  0  0  0
    0.8973   -3.6430   -2.3171 C   0  0  0  0  0  0
    0.4716   -2.3899   -2.7571 C   0  0  0  0  0  0
    0.5431   -1.2936   -1.9004 C   0  0  0  0  0  0
    0.1500   -0.0979   -2.3655 F   0  0  0  0  0  0
    1.8896    3.8302   -0.8013 C   0  0  0  0  0  0
   -1.7870   -1.2926    0.8489 Cl  0  0  0  0  0  0
   -3.4188    3.6130   -0.4881 Cl  0  0  0  0  0  0
   -3.4300    0.8623    0.2171 H   0  0  0  0  0  0
   -0.6438    4.0263   -0.4599 H   0  0  0  0  0  0
    3.0946    0.9758    2.5577 H   0  0  0  0  0  0
    1.3767    1.3238    2.4350 H   0  0  0  0  0  0
    1.8357   -2.8468    0.8503 H   0  0  0  0  0  0
    1.7176   -4.7771   -0.6772 H   0  0  0  0  0  0
    0.8423   -4.5017   -2.9840 H   0  0  0  0  0  0
    0.0879   -2.2626   -3.7657 H   0  0  0  0  0  0
    2.9623    3.9199   -0.9986 H   0  0  0  0  0  0
    1.5665    4.7300   -0.2688 H   0  0  0  0  0  0
    1.3803    3.7477   -1.7667 H   0  0  0  0  0  0
  1  2  2  0  0  0
  1  6  1  0  0  0
  1 22  1  0  0  0
  2  3  1  0  0  0
  2 23  1  0  0  0
  3  4  2  0  0  0
  3 21  1  0  0  0
  4  5  1  0  0  0
  4  7  1  0  0  0
  5  6  2  0  0  0
  5 11  1  0  0  0
  6 24  1  0  0  0
  7  8  2  0  0  0
  7 12  1  0  0  0
  8  9  1  0  0  0
  9 10  1  0  0  0
  9 25  1  0  0  0
  9 26  1  0  0  0
 10 11  1  0  0  0
 10 13  2  0  0  0
 11 20  1  0  0  0
 12 14  2  0  0  0
 12 18  1  0  0  0
 14 15  1  0  0  0
 14 27  1  0  0  0
 15 16  2  0  0  0
 15 28  1  0  0  0
 16 17  1  0  0  0
 16 29  1  0  0  0
 17 18  2  0  0  0
 17 30  1  0  0  0
 18 19  1  0  0  0
 20 31  1  0  0  0
 20 32  1  0  0  0
 20 33  1  0  0  0
M  END
>  <Name>
Ro13-0882

>  <Family>
A.1

>  <IC50_uM>
0.300000

>  <set>
1

$$$$
Ro22-6762
  Cerius2 12180215283D 1   1.00000                          
 Structure written by MMmdl.
 33 35  0  0  0  0  0  0  0  0999 V2000
   -2.1265    2.5089   -0.2328 C   0  0  0  0  0  0
   -2.4086    1.1953    0.1301 C   0  0  0  0  0  0
   -1.3617    0.2996    0.3846 C   0  0  0  0  0  0
   -0.0206    0.7353    0.2546 C   0  0  0  0  0  0
    0.2718    2.0929   -0.0157 C   0  0  0  0  0  0
   -0.8044    2.9526   -0.2954 C   0  0  0  0  0  0
    1.0943   -0.2644    0.3071 C   0  0  0  0  0  0
    2.1248   -0.1597    1.0853 N   0  0  0  0  0  0
    2.2334    1.0788    1.8580 C   0  0  0  0  0  0
    2.6029    2.1973    0.8865 C   0  0  0  0  0  0
    1.6002    2.6391    0.0146 N   0  0  0  0  0  0
    1.0580   -1.4370   -0.6287 C   0  0  0  0  0  0
    3.7358    2.6953    0.9098 O   0  0  0  0  0  0
    0.5953   -1.2999   -1.9444 C   0  0  0  0  0  0
    0.5832   -2.4051   -2.7987 C   0  0  0  0  0  0
    1.0396   -3.6438   -2.3488 C   0  0  0  0  0  0
    1.5162   -3.7812   -1.0458 C   0  0  0  0  0  0
    1.5312   -2.6799   -0.1877 C   0  0  0  0  0  0
    1.8976    3.8035   -0.8168 C   0  0  0  0  0  0
   -1.7327   -1.3128    0.9297 Cl  0  0  0  0  0  0
   -4.0767    0.7454    0.2419 Cl  0  0  0  0  0  0
   -2.9316    3.2120   -0.4381 H   0  0  0  0  0  0
   -0.6479    4.0056   -0.5224 H   0  0  0  0  0  0
    3.0492    0.9691    2.5810 H   0  0  0  0  0  0
    1.3333    1.3191    2.4343 H   0  0  0  0  0  0
    0.2541   -0.3420   -2.3294 H   0  0  0  0  0  0
    0.2215   -2.2982   -3.8201 H   0  0  0  0  0  0
    1.0293   -4.5029   -3.0176 H   0  0  0  0  0  0
    1.8774   -4.7470   -0.6970 H   0  0  0  0  0  0
    1.9045   -2.8005    0.8274 H   0  0  0  0  0  0
    2.9732    3.8911   -0.9977 H   0  0  0  0  0  0
    1.5664    4.7077   -0.2966 H   0  0  0  0  0  0
    1.4035    3.7136   -1.7895 H   0  0  0  0  0  0
  1  2  2  0  0  0
  1  6  1  0  0  0
  1 22  1  0  0  0
  2  3  1  0  0  0
  2 21  1  0  0  0
  3  4  2  0  0  0
  3 20  1  0  0  0
  4  5  1  0  0  0
  4  7  1  0  0  0
  5  6  2  0  0  0
  5 11  1  0  0  0
  6 23  1  0  0  0
  7  8  2  0  0  0
  7 12  1  0  0  0
  8  9  1  0  0  0
  9 10  1  0  0  0
  9 24  1  0  0  0
  9 25  1  0  0  0
 10 11  1  0  0  0
 10 13  2  0  0  0
 11 19  1  0  0  0
 12 14  2  0  0  0
 12 18  1  0  0  0
 14 15  1  0  0  0
 14 26  1  0  0  0
 15 16  2  0  0  0
 15 27  1  0  0  0
 16 17  1  0  0  0
 16 28  1  0  0  0
 17 18  2  0  0  0
 17 29  1  0  0  0
 18 30  1  0  0  0
 19 31  1  0  0  0
 19 32  1  0  0  0
 19 33  1  0  0  0
M  END
>  <Name>
Ro22-6762

>  <Family>
A.1

>  <IC50_uM>
0.040000

>  <set>
1

$$$$
Ro20-8065
  Cerius2 12180215283D 1   1.00000                          
 Structure written by MMmdl.
 30 32  0  0  0  0  0  0  0  0999 V2000
   -2.0875    2.4868   -0.2993 C   0  0  0  0  0  0
   -2.3798    1.1724    0.0619 C   0  0  0  0  0  0
   -1.3426    0.2736    0.3594 C   0  0  0  0  0  0
    0.0010    0.7070    0.2855 C   0  0  0  0  0  0
    0.2794    2.0658    0.0323 C   0  0  0  0  0  0
   -0.7668    2.9309   -0.3084 C   0  0  0  0  0  0
    1.1313   -0.2828    0.3103 C   0  0  0  0  0  0
    2.2148   -0.1589    1.0066 N   0  0  0  0  0  0
    2.3753    1.0524    1.8093 C   0  0  0  0  0  0
    2.6156    2.2326    0.8769 C   0  0  0  0  0  0
    1.5553    2.6556    0.1143 N   0  0  0  0  0  0
    1.0534   -1.4628   -0.6042 C   0  0  0  0  0  0
    3.6955    2.8319    0.8379 O   0  0  0  0  0  0
    1.5214   -2.7147   -0.1814 C   0  0  0  0  0  0
    1.4319   -3.8163   -1.0364 C   0  0  0  0  0  0
    0.8722   -3.6757   -2.3073 C   0  0  0  0  0  0
    0.3972   -2.4332   -2.7267 C   0  0  0  0  0  0
    0.4852   -1.3346   -1.8748 C   0  0  0  0  0  0
   -1.7369   -1.3386    0.8860 Cl  0  0  0  0  0  0
   -4.0512    0.7201    0.1079 Cl  0  0  0  0  0  0
    0.0429   -0.1483   -2.3193 F   0  0  0  0  0  0
   -2.8848    3.1854   -0.5452 H   0  0  0  0  0  0
   -0.5711    3.9763   -0.5444 H   0  0  0  0  0  0
    3.2575    0.9355    2.4478 H   0  0  0  0  0  0
    1.5238    1.2400    2.4729 H   0  0  0  0  0  0
    1.6942    3.5546   -0.3397 H   0  0  0  0  0  0
    1.9428   -2.8538    0.8117 H   0  0  0  0  0  0
    1.7954   -4.7891   -0.7083 H   0  0  0  0  0  0
    0.8045   -4.5365   -2.9705 H   0  0  0  0  0  0
   -0.0378   -2.3161   -3.7155 H   0  0  0  0  0  0
  1  2  2  0  0  0
  1  6  1  0  0  0
  1 22  1  0  0  0
  2  3  1  0  0  0
  2 20  1  0  0  0
  3  4  2  0  0  0
  3 19  1  0  0  0
  4  5  1  0  0  0
  4  7  1  0  0  0
  5  6  2  0  0  0
  5 11  1  0  0  0
  6 23  1  0  0  0
  7  8  2  0  0  0
  7 12  1  0  0  0
  8  9  1  0  0  0
  9 10  1  0  0  0
  9 24  1  0  0  0
  9 25  1  0  0  0
 10 11  1  0  0  0
 10 13  2  0  0  0
 11 26  1  0  0  0
 12 14  2  0  0  0
 12 18  1  0  0  0
 14 15  1  0  0  0
 14 27  1  0  0  0
 15 16  2  0  0  0
 15 28  1  0  0  0
 16 17  1  0  0  0
 16 29  1  0  0  0
 17 18  2  0  0  0
 17 30  1  0  0  0
 18 21  1  0  0  0
M  END
>  <Name>
Ro20-8065

>  <Family>
A.1

>  <IC50_uM>
0.003600

>  <set>
1

$$$$
Ro20-8552
  Cerius2 12180215283D 1   1.00000                          
 Structure written by MMmdl.
 33 35  0  0  0  0  0  0  0  0999 V2000
   -2.0785    2.4649   -0.3225 C   0  0  0  0  0  0
   -2.3663    1.1549    0.0603 C   0  0  0  0  0  0
   -1.3372    0.2601    0.4096 C   0  0  0  0  0  0
    0.0055    0.7102    0.3086 C   0  0  0  0  0  0
    0.2832    2.0663    0.0354 C   0  0  0  0  0  0
   -0.7630    2.9211   -0.3230 C   0  0  0  0  0  0
    1.1401   -0.2774    0.3181 C   0  0  0  0  0  0
    2.2268   -0.1548    1.0093 N   0  0  0  0  0  0
    2.3846    1.0584    1.8110 C   0  0  0  0  0  0
    2.6192    2.2387    0.8768 C   0  0  0  0  0  0
    1.5582    2.6574    0.1130 N   0  0  0  0  0  0
    1.0504   -1.4542   -0.6003 C   0  0  0  0  0  0
    3.6973    2.8413    0.8360 O   0  0  0  0  0  0
    1.5160   -2.7099   -0.1862 C   0  0  0  0  0  0
    1.4178   -3.8080   -1.0450 C   0  0  0  0  0  0
    0.8512   -3.6602   -2.3117 C   0  0  0  0  0  0
    0.3786   -2.4143   -2.7232 C   0  0  0  0  0  0
    0.4757   -1.3194   -1.8672 C   0  0  0  0  0  0
   -1.6763   -1.1371    0.8650 C   0  0  0  0  0  0
   -4.0309    0.6810    0.0572 Cl  0  0  0  0  0  0
    0.0396   -0.1291   -2.3066 F   0  0  0  0  0  0
   -2.8781    3.1500   -0.5975 H   0  0  0  0  0  0
   -0.5716    3.9627   -0.5758 H   0  0  0  0  0  0
    3.2689    0.9449    2.4471 H   0  0  0  0  0  0
    1.5346    1.2438    2.4773 H   0  0  0  0  0  0
    1.6957    3.5534   -0.3470 H   0  0  0  0  0  0
    1.9453   -2.8533    0.8030 H   0  0  0  0  0  0
    1.7805   -4.7830   -0.7229 H   0  0  0  0  0  0
    0.7765   -4.5180   -2.9781 H   0  0  0  0  0  0
   -0.0613   -2.2913   -3.7091 H   0  0  0  0  0  0
   -0.8717   -1.5748    1.4636 H   0  0  0  0  0  0
   -1.8821   -1.7821    0.0058 H   0  0  0  0  0  0
   -2.5492   -1.1354    1.5263 H   0  0  0  0  0  0
  1  2  2  0  0  0
  1  6  1  0  0  0
  1 22  1  0  0  0
  2  3  1  0  0  0
  2 20  1  0  0  0
  3  4  2  0  0  0
  3 19  1  0  0  0
  4  5  1  0  0  0
  4  7  1  0  0  0
  5  6  2  0  0  0
  5 11  1  0  0  0
  6 23  1  0  0  0
  7  8  2  0  0  0
  7 12  1  0  0  0
  8  9  1  0  0  0
  9 10  1  0  0  0
  9 24  1  0  0  0
  9 25  1  0  0  0
 10 11  1  0  0  0
 10 13  2  0  0  0
 11 26  1  0  0  0
 12 14  2  0  0  0
 12 18  1  0  0  0
 14 15  1  0  0  0
 14 27  1  0  0  0
 15 16  2  0  0  0
 15 28  1  0  0  0
 16 17  1  0  0  0
 16 29  1  0  0  0
 17 18  2  0  0  0
 17 30  1  0  0  0
 18 21  1  0  0  0
 19 31  1  0  0  0
 19 32  1  0  0  0
 19 33  1  0  0  0
M  END
>  <Name>
Ro20-8552

>  <Family>
A.1

>  <IC50_uM>
0.014000

>  <set>
1

$$$$
Ro05-2750
  Cerius2 12180215283D 1   1.00000                          
 Structure written by MMmdl.
 30 32  0  0  0  0  0  0  0  0999 V2000
   -2.0829    2.5306   -0.2603 C   0  0  0  0  0  0
   -2.3813    1.2184    0.0854 C   0  0  0  0  0  0
   -1.3449    0.3197    0.3534 C   0  0  0  0  0  0
    0.0000    0.7333    0.2736 C   0  0  0  0  0  0
    0.2829    2.0930    0.0359 C   0  0  0  0  0  0
   -0.7619    2.9711   -0.2836 C   0  0  0  0  0  0
    1.1162   -0.2691    0.2949 C   0  0  0  0  0  0
    2.1935   -0.1640    1.0057 N   0  0  0  0  0  0
    2.3648    1.0465    1.8078 C   0  0  0  0  0  0
    2.6219    2.2257    0.8768 C   0  0  0  0  0  0
    1.5660    2.6691    0.1185 N   0  0  0  0  0  0
    1.0324   -1.4552   -0.6207 C   0  0  0  0  0  0
    3.7110    2.8077    0.8367 O   0  0  0  0  0  0
    0.5474   -1.3259   -1.9289 C   0  0  0  0  0  0
    0.4935   -2.4427   -2.7660 C   0  0  0  0  0  0
    0.9313   -3.6847   -2.3061 C   0  0  0  0  0  0
    1.4309   -3.8140   -1.0106 C   0  0  0  0  0  0
    1.4879   -2.7010   -0.1697 C   0  0  0  0  0  0
   -1.8118   -1.2759    0.8428 Cl  0  0  0  0  0  0
   -3.3580    3.6311   -0.6180 Cl  0  0  0  0  0  0
   -3.4173    0.8930    0.1407 H   0  0  0  0  0  0
   -0.5529    4.0155   -0.5073 H   0  0  0  0  0  0
    3.2437    0.9202    2.4489 H   0  0  0  0  0  0
    1.5137    1.2431    2.4694 H   0  0  0  0  0  0
    1.7156    3.5696   -0.3291 H   0  0  0  0  0  0
    0.2205   -0.3648   -2.3188 H   0  0  0  0  0  0
    0.1142   -2.3426   -3.7816 H   0  0  0  0  0  0
    0.8886   -4.5530   -2.9616 H   0  0  0  0  0  0
    1.7781   -4.7825   -0.6549 H   0  0  0  0  0  0
    1.8796   -2.8133    0.8394 H   0  0  0  0  0  0
  1  2  2  0  0  0
  1  6  1  0  0  0
  1 20  1  0  0  0
  2  3  1  0  0  0
  2 21  1  0  0  0
  3  4  2  0  0  0
  3 19  1  0  0  0
  4  5  1  0  0  0
  4  7  1  0  0  0
  5  6  2  0  0  0
  5 11  1  0  0  0
  6 22  1  0  0  0
  7  8  2  0  0  0
  7 12  1  0  0  0
  8  9  1  0  0  0
  9 10  1  0  0  0
  9 23  1  0  0  0
  9 24  1  0  0  0
 10 11  1  0  0  0
 10 13  2  0  0  0
 11 25  1  0  0  0
 12 14  2  0  0  0
 12 18  1  0  0  0
 14 15  1  0  0  0
 14 26  1  0  0  0
 15 16  2  0  0  0
 15 27  1  0  0  0
 16 17  1  0  0  0
 16 28  1  0  0  0
 17 18  2  0  0  0
 17 29  1  0  0  0
 18 30  1  0  0  0
M  END
>  <Name>
Ro05-2750

>  <Family>
A.1

>  <IC50_uM>
0.037000

>  <set>
0

$$$$
Ro07-3609
  Cerius2 12180215283D 1   1.00000                          
 Structure written by MMmdl.
 33 35  0  0  0  0  0  0  0  0999 V2000
   -2.0949    2.5386   -0.2748 C   0  0  0  0  0  0
   -2.3765    1.2198    0.0901 C   0  0  0  0  0  0
   -1.3399    0.3189    0.3593 C   0  0  0  0  0  0
    0.0028    0.7318    0.2747 C   0  0  0  0  0  0
    0.2837    2.0901    0.0368 C   0  0  0  0  0  0
   -0.7633    2.9679   -0.2830 C   0  0  0  0  0  0
    1.1189   -0.2699    0.2947 C   0  0  0  0  0  0
    2.1973   -0.1649    1.0047 N   0  0  0  0  0  0
    2.3667    1.0456    1.8075 C   0  0  0  0  0  0
    2.6212    2.2266    0.8781 C   0  0  0  0  0  0
    1.5651    2.6692    0.1207 N   0  0  0  0  0  0
    1.0334   -1.4558   -0.6210 C   0  0  0  0  0  0
    3.7094    2.8108    0.8391 O   0  0  0  0  0  0
    0.5475   -1.3259   -1.9288 C   0  0  0  0  0  0
    0.4918   -2.4425   -2.7661 C   0  0  0  0  0  0
    0.9287   -3.6848   -2.3068 C   0  0  0  0  0  0
    1.4292   -3.8150   -1.0118 C   0  0  0  0  0  0
    1.4878   -2.7022   -0.1707 C   0  0  0  0  0  0
   -1.8071   -1.2738    0.8571 Cl  0  0  0  0  0  0
   -3.2081    3.5048   -0.5585 C   0  0  0  0  0  0
   -3.4123    0.8894    0.1577 H   0  0  0  0  0  0
   -0.5475    4.0145   -0.5000 H   0  0  0  0  0  0
    3.2462    0.9200    2.4481 H   0  0  0  0  0  0
    1.5158    1.2398    2.4701 H   0  0  0  0  0  0
    1.7113    3.5704   -0.3261 H   0  0  0  0  0  0
    0.2206   -0.3643   -2.3178 H   0  0  0  0  0  0
    0.1114   -2.3418   -3.7813 H   0  0  0  0  0  0
    0.8845   -4.5531   -2.9624 H   0  0  0  0  0  0
    1.7754   -4.7839   -0.6565 H   0  0  0  0  0  0
    1.8800   -2.8152    0.8381 H   0  0  0  0  0  0
   -2.8900    4.2647   -1.2799 H   0  0  0  0  0  0
   -3.5180    4.0009    0.3664 H   0  0  0  0  0  0
   -4.0719    2.9887   -0.9906 H   0  0  0  0  0  0
  1  2  2  0  0  0
  1  6  1  0  0  0
  1 20  1  0  0  0
  2  3  1  0  0  0
  2 21  1  0  0  0
  3  4  2  0  0  0
  3 19  1  0  0  0
  4  5  1  0  0  0
  4  7  1  0  0  0
  5  6  2  0  0  0
  5 11  1  0  0  0
  6 22  1  0  0  0
  7  8  2  0  0  0
  7 12  1  0  0  0
  8  9  1  0  0  0
  9 10  1  0  0  0
  9 23  1  0  0  0
  9 24  1  0  0  0
 10 11  1  0  0  0
 10 13  2  0  0  0
 11 25  1  0  0  0
 12 14  2  0  0  0
 12 18  1  0  0  0
 14 15  1  0  0  0
 14 26  1  0  0  0
 15 16  2  0  0  0
 15 27  1  0  0  0
 16 17  1  0  0  0
 16 28  1  0  0  0
 17 18  2  0  0  0
 17 29  1  0  0  0
 18 30  1  0  0  0
 20 31  1  0  0  0
 20 32  1  0  0  0
 20 33  1  0  0  0
M  END
>  <Name>
Ro07-3609

>  <Family>
A.1

>  <IC50_uM>
0.052000

>  <set>
2

$$$$
Ro14-2312
  Cerius2 12180215283D 1   1.00000                          
 Structure written by MMmdl.
 35 37  0  0  0  0  0  0  0  0999 V2000
   -2.1143    2.4924   -0.2333 C   0  0  0  0  0  0
   -2.3834    1.1740    0.1124 C   0  0  0  0  0  0
   -1.3420    0.2904    0.4138 C   0  0  0  0  0  0
   -0.0047    0.7469    0.2810 C   0  0  0  0  0  0
    0.2789    2.1093    0.0122 C   0  0  0  0  0  0
   -0.8031    2.9610   -0.2717 C   0  0  0  0  0  0
    1.1102   -0.2550    0.3226 C   0  0  0  0  0  0
    2.1650   -0.1458    1.0663 N   0  0  0  0  0  0
    2.2800    1.0879    1.8455 C   0  0  0  0  0  0
    2.6264    2.2152    0.8783 C   0  0  0  0  0  0
    1.6069    2.6627    0.0303 N   0  0  0  0  0  0
    1.0348   -1.4293   -0.5976 C   0  0  0  0  0  0
    3.7585    2.7158    0.8847 O   0  0  0  0  0  0
    1.4540   -2.6942   -0.1625 C   0  0  0  0  0  0
    1.3524   -3.7951   -1.0177 C   0  0  0  0  0  0
    0.8303   -3.6401   -2.3027 C   0  0  0  0  0  0
    0.4073   -2.3837   -2.7362 C   0  0  0  0  0  0
    0.5075   -1.2863   -1.8834 C   0  0  0  0  0  0
   -1.6775   -1.0214    0.7377 N   0  0  0  0  0  0
   -3.4155    3.5651   -0.5855 Cl  0  0  0  0  0  0
    1.8885    3.8340   -0.7972 C   0  0  0  0  0  0
    0.1149   -0.0879   -2.3417 F   0  0  0  0  0  0
   -3.4153    0.8318    0.1568 H   0  0  0  0  0  0
   -0.6476    4.0138   -0.4933 H   0  0  0  0  0  0
    3.1080    0.9773    2.5542 H   0  0  0  0  0  0
    1.3888    1.3193    2.4390 H   0  0  0  0  0  0
    1.8496   -2.8414    0.8398 H   0  0  0  0  0  0
    1.6787   -4.7773   -0.6789 H   0  0  0  0  0  0
    0.7533   -4.4997   -2.9665 H   0  0  0  0  0  0
    0.0032   -2.2547   -3.7366 H   0  0  0  0  0  0
   -1.0116   -1.6249    1.2106 H   0  0  0  0  0  0
   -2.6519   -1.2684    0.8961 H   0  0  0  0  0  0
    2.9617    3.9331   -0.9860 H   0  0  0  0  0  0
    1.5529    4.7325   -0.2699 H   0  0  0  0  0  0
    1.3885    3.7445   -1.7668 H   0  0  0  0  0  0
  1  2  2  0  0  0
  1  6  1  0  0  0
  1 20  1  0  0  0
  2  3  1  0  0  0
  2 23  1  0  0  0
  3  4  2  0  0  0
  3 19  1  0  0  0
  4  5  1  0  0  0
  4  7  1  0  0  0
  5  6  2  0  0  0
  5 11  1  0  0  0
  6 24  1  0  0  0
  7  8  2  0  0  0
  7 12  1  0  0  0
  8  9  1  0  0  0
  9 10  1  0  0  0
  9 25  1  0  0  0
  9 26  1  0  0  0
 10 11  1  0  0  0
 10 13  2  0  0  0
 11 21  1  0  0  0
 12 14  2  0  0  0
 12 18  1  0  0  0
 14 15  1  0  0  0
 14 27  1  0  0  0
 15 16  2  0  0  0
 15 28  1  0  0  0
 16 17  1  0  0  0
 16 29  1  0  0  0
 17 18  2  0  0  0
 17 30  1  0  0  0
 18 22  1  0  0  0
 19 31  1  0  0  0
 19 32  1  0  0  0
 21 33  1  0  0  0
 21 34  1  0  0  0
 21 35  1  0  0  0
M  END
>  <Name>
Ro14-2312

>  <Family>
A.1

>  <IC50_uM>
>1

>  <set>
2

$$$$
Ro17-2221
  Cerius2 12180215283D 1   1.00000                          
 Structure written by MMmdl.
 38 40  0  0  0  0  0  0  0  0999 V2000
   -2.1380    2.5152   -0.1333 C   0  0  0  0  0  0
   -2.3708    1.1597    0.0516 C   0  0  0  0  0  0
   -1.2917    0.2944    0.2050 C   0  0  0  0  0  0
    0.0304    0.7811    0.1774 C   0  0  0  0  0  0
    0.2822    2.1618    0.0441 C   0  0  0  0  0  0
   -0.8287    3.0077   -0.1389 C   0  0  0  0  0  0
    1.1228   -0.2355    0.2377 C   0  0  0  0  0  0
    2.1520   -0.1467    1.0123 N   0  0  0  0  0  0
    2.2935    1.0644    1.8123 C   0  0  0  0  0  0
    2.6323    2.2265    0.8888 C   0  0  0  0  0  0
    1.5968    2.7306    0.0925 N   0  0  0  0  0  0
    1.0343   -1.4432   -0.6446 C   0  0  0  0  0  0
    3.7587    2.7313    0.9031 O   0  0  0  0  0  0
    0.5143   -1.3571   -1.9423 C   0  0  0  0  0  0
    0.4576   -2.4967   -2.7479 C   0  0  0  0  0  0
    0.9264   -3.7188   -2.2656 C   0  0  0  0  0  0
    1.4606   -3.8052   -0.9804 C   0  0  0  0  0  0
    1.5208   -2.6684   -0.1724 C   0  0  0  0  0  0
    1.8947    3.9386   -0.6887 C   0  0  0  0  0  0
    1.9423    5.2162    0.1698 C   0  0  0  0  0  0
    2.0006    6.4276   -0.6511 N   0  0  0  0  0  0
   -2.9749    3.1991   -0.2565 H   0  0  0  0  0  0
   -3.3878    0.7755    0.0704 H   0  0  0  0  0  0
   -1.4878   -0.7677    0.3410 H   0  0  0  0  0  0
   -0.7085    4.0821   -0.2454 H   0  0  0  0  0  0
    3.1292    0.9283    2.5081 H   0  0  0  0  0  0
    1.4140    1.2844    2.4277 H   0  0  0  0  0  0
    0.1703   -0.4093   -2.3469 H   0  0  0  0  0  0
    0.0591   -2.4290   -3.7569 H   0  0  0  0  0  0
    0.8874   -4.6037   -2.8968 H   0  0  0  0  0  0
    1.8388   -4.7552   -0.6105 H   0  0  0  0  0  0
    1.9514   -2.7385    0.8241 H   0  0  0  0  0  0
    1.1745    4.0372   -1.5100 H   0  0  0  0  0  0
    2.8710    3.7998   -1.1722 H   0  0  0  0  0  0
    2.8208    5.1926    0.8232 H   0  0  0  0  0  0
    1.0653    5.2744    0.8230 H   0  0  0  0  0  0
    2.1216    7.2394   -0.0442 H   0  0  0  0  0  0
    1.1172    6.5657   -1.1387 H   0  0  0  0  0  0
  1  2  2  0  0  0
  1  6  1  0  0  0
  1 22  1  0  0  0
  2  3  1  0  0  0
  2 23  1  0  0  0
  3  4  2  0  0  0
  3 24  1  0  0  0
  4  5  1  0  0  0
  4  7  1  0  0  0
  5  6  2  0  0  0
  5 11  1  0  0  0
  6 25  1  0  0  0
  7  8  2  0  0  0
  7 12  1  0  0  0
  8  9  1  0  0  0
  9 10  1  0  0  0
  9 26  1  0  0  0
  9 27  1  0  0  0
 10 11  1  0  0  0
 10 13  2  0  0  0
 11 19  1  0  0  0
 12 14  2  0  0  0
 12 18  1  0  0  0
 14 15  1  0  0  0
 14 28  1  0  0  0
 15 16  2  0  0  0
 15 29  1  0  0  0
 16 17  1  0  0  0
 16 30  1  0  0  0
 17 18  2  0  0  0
 17 31  1  0  0  0
 18 32  1  0  0  0
 19 20  1  0  0  0
 19 33  1  0  0  0
 19 34  1  0  0  0
 20 21  1  0  0  0
 20 35  1  0  0  0
 20 36  1  0  0  0
 21 37  1  0  0  0
 21 38  1  0  0  0
M  END
>  <Name>
Ro17-2221

>  <Family>
A.1

>  <IC50_uM>
0.260000

>  <set>
2

$$$$
Ro08-3026
  Cerius2 12180215283D 1   1.00000                          
 Structure written by MMmdl.
 42 44  0  0  0  0  0  0  0  0999 V2000
   -2.1407    2.5028   -0.1455 C   0  0  0  0  0  0
   -2.3608    1.1465    0.0454 C   0  0  0  0  0  0
   -1.2841    0.2837    0.2081 C   0  0  0  0  0  0
    0.0339    0.7800    0.1799 C   0  0  0  0  0  0
    0.2808    2.1642    0.0428 C   0  0  0  0  0  0
   -0.8340    3.0041   -0.1487 C   0  0  0  0  0  0
    1.1330   -0.2338    0.2394 C   0  0  0  0  0  0
    2.1700   -0.1393    1.0088 N   0  0  0  0  0  0
    2.2792    1.0770    1.8147 C   0  0  0  0  0  0
    2.6289    2.2337    0.8858 C   0  0  0  0  0  0
    1.5981    2.7389    0.0896 N   0  0  0  0  0  0
    1.0413   -1.4419   -0.6429 C   0  0  0  0  0  0
    3.7734    2.7043    0.8866 O   0  0  0  0  0  0
    0.5462   -1.3457   -1.9499 C   0  0  0  0  0  0
    0.4806   -2.4838   -2.7568 C   0  0  0  0  0  0
    0.9157   -3.7151   -2.2669 C   0  0  0  0  0  0
    1.4228   -3.8124   -0.9715 C   0  0  0  0  0  0
    1.4912   -2.6774   -0.1609 C   0  0  0  0  0  0
   -3.9670    0.5309    0.0664 Cl  0  0  0  0  0  0
    1.8774    3.9566   -0.6668 C   0  0  0  0  0  0
    1.9013    5.0592    0.2428 O   0  0  0  0  0  0
    2.3366    6.2748   -0.3781 C   0  0  0  0  0  0
    1.2238    6.9353   -1.2047 C   0  0  0  0  0  0
    1.6191    8.2519   -1.7112 N   0  0  0  0  0  0
   -2.9761    3.1866   -0.2801 H   0  0  0  0  0  0
   -1.4710   -0.7792    0.3468 H   0  0  0  0  0  0
   -0.7246    4.0789   -0.2702 H   0  0  0  0  0  0
    3.1018    0.9504    2.5272 H   0  0  0  0  0  0
    1.3838    1.2880    2.4098 H   0  0  0  0  0  0
    0.2205   -0.3926   -2.3609 H   0  0  0  0  0  0
    0.0943   -2.4087   -3.7720 H   0  0  0  0  0  0
    0.8644   -4.6004   -2.8986 H   0  0  0  0  0  0
    1.7672   -4.7731   -0.5923 H   0  0  0  0  0  0
    1.8893   -2.7653    0.8481 H   0  0  0  0  0  0
    1.1059    4.1356   -1.4205 H   0  0  0  0  0  0
    2.8336    3.8430   -1.1900 H   0  0  0  0  0  0
    3.2346    6.0940   -0.9814 H   0  0  0  0  0  0
    2.6265    6.9485    0.4364 H   0  0  0  0  0  0
    0.3247    7.0390   -0.5869 H   0  0  0  0  0  0
    0.9471    6.2956   -2.0492 H   0  0  0  0  0  0
    0.8606    8.6031   -2.3089 H   0  0  0  0  0  0
    2.3991    8.1276   -2.3677 H   0  0  0  0  0  0
  1  2  2  0  0  0
  1  6  1  0  0  0
  1 25  1  0  0  0
  2  3  1  0  0  0
  2 19  1  0  0  0
  3  4  2  0  0  0
  3 26  1  0  0  0
  4  5  1  0  0  0
  4  7  1  0  0  0
  5  6  2  0  0  0
  5 11  1  0  0  0
  6 27  1  0  0  0
  7  8  2  0  0  0
  7 12  1  0  0  0
  8  9  1  0  0  0
  9 10  1  0  0  0
  9 28  1  0  0  0
  9 29  1  0  0  0
 10 11  1  0  0  0
 10 13  2  0  0  0
 11 20  1  0  0  0
 12 14  2  0  0  0
 12 18  1  0  0  0
 14 15  1  0  0  0
 14 30  1  0  0  0
 15 16  2  0  0  0
 15 31  1  0  0  0
 16 17  1  0  0  0
 16 32  1  0  0  0
 17 18  2  0  0  0
 17 33  1  0  0  0
 18 34  1  0  0  0
 20 21  1  0  0  0
 20 35  1  0  0  0
 20 36  1  0  0  0
 21 22  1  0  0  0
 22 23  1  0  0  0
 22 37  1  0  0  0
 22 38  1  0  0  0
 23 24  1  0  0  0
 23 39  1  0  0  0
 23 40  1  0  0  0
 24 41  1  0  0  0
 24 42  1  0  0  0
M  END
>  <Name>
Ro08-3026

>  <Family>
A.1

>  <IC50_uM>
0.063000

>  <set>
1

$$$$
Halazepam
  Cerius2 12180215283D 1   1.00000                          
 Structure written by MMmdl.
 36 38  0  0  0  0  0  0  0  0999 V2000
   -2.1457    2.4932   -0.1587 C   0  0  0  0  0  0
   -2.3604    1.1365    0.0304 C   0  0  0  0  0  0
   -1.2798    0.2810    0.2027 C   0  0  0  0  0  0
    0.0364    0.7844    0.1867 C   0  0  0  0  0  0
    0.2767    2.1721    0.0566 C   0  0  0  0  0  0
   -0.8418    3.0027   -0.1472 C   0  0  0  0  0  0
    1.1357   -0.2313    0.2447 C   0  0  0  0  0  0
    2.1756   -0.1421    1.0103 N   0  0  0  0  0  0
    2.2966    1.0714    1.8157 C   0  0  0  0  0  0
    2.6361    2.2250    0.8805 C   0  0  0  0  0  0
    1.5879    2.7571    0.1228 N   0  0  0  0  0  0
    1.0405   -1.4395   -0.6378 C   0  0  0  0  0  0
    3.7861    2.6775    0.8289 O   0  0  0  0  0  0
    0.5431   -1.3422   -1.9438 C   0  0  0  0  0  0
    0.4729   -2.4807   -2.7497 C   0  0  0  0  0  0
    0.9058   -3.7130   -2.2600 C   0  0  0  0  0  0
    1.4157   -3.8107   -0.9657 C   0  0  0  0  0  0
    1.4884   -2.6757   -0.1558 C   0  0  0  0  0  0
   -3.9627    0.5113    0.0356 Cl  0  0  0  0  0  0
    1.8788    3.9961   -0.6387 C   0  0  0  0  0  0
    1.9361    5.2830    0.1889 C   0  0  0  0  0  0
    2.1995    6.3596   -0.5984 F   0  0  0  0  0  0
    0.7631    5.5415    0.8201 F   0  0  0  0  0  0
    2.8975    5.2550    1.1439 F   0  0  0  0  0  0
   -2.9837    3.1724   -0.3016 H   0  0  0  0  0  0
   -1.4626   -0.7829    0.3383 H   0  0  0  0  0  0
   -0.7445    4.0786   -0.2641 H   0  0  0  0  0  0
    3.1276    0.9455    2.5183 H   0  0  0  0  0  0
    1.4076    1.2841    2.4196 H   0  0  0  0  0  0
    0.2183   -0.3886   -2.3541 H   0  0  0  0  0  0
    0.0843   -2.4053   -3.7640 H   0  0  0  0  0  0
    0.8505   -4.5986   -2.8911 H   0  0  0  0  0  0
    1.7583   -4.7721   -0.5866 H   0  0  0  0  0  0
    1.8882   -2.7637    0.8525 H   0  0  0  0  0  0
    1.1666    4.1050   -1.4640 H   0  0  0  0  0  0
    2.8577    3.8636   -1.1166 H   0  0  0  0  0  0
  1  2  2  0  0  0
  1  6  1  0  0  0
  1 25  1  0  0  0
  2  3  1  0  0  0
  2 19  1  0  0  0
  3  4  2  0  0  0
  3 26  1  0  0  0
  4  5  1  0  0  0
  4  7  1  0  0  0
  5  6  2  0  0  0
  5 11  1  0  0  0
  6 27  1  0  0  0
  7  8  2  0  0  0
  7 12  1  0  0  0
  8  9  1  0  0  0
  9 10  1  0  0  0
  9 28  1  0  0  0
  9 29  1  0  0  0
 10 11  1  0  0  0
 10 13  2  0  0  0
 11 20  1  0  0  0
 12 14  2  0  0  0
 12 18  1  0  0  0
 14 15  1  0  0  0
 14 30  1  0  0  0
 15 16  2  0  0  0
 15 31  1  0  0  0
 16 17  1  0  0  0
 16 32  1  0  0  0
 17 18  2  0  0  0
 17 33  1  0  0  0
 18 34  1  0  0  0
 20 21  1  0  0  0
 20 35  1  0  0  0
 20 36  1  0  0  0
 21 22  1  0  0  0
 21 23  1  0  0  0
 21 24  1  0  0  0
M  END
>  <Name>
Halazepam

>  <Family>
A.1

>  <IC50_uM>
0.092000

>  <set>
1

$$$$
Pinazepam
  Cerius2 12180215283D 1   1.00000                          
 Structure written by MMmdl.
 35 37  0  0  0  0  0  0  0  0999 V2000
   -2.1461    2.4995   -0.1435 C   0  0  0  0  0  0
   -2.3631    1.1420    0.0396 C   0  0  0  0  0  0
   -1.2844    0.2825    0.2043 C   0  0  0  0  0  0
    0.0327    0.7827    0.1847 C   0  0  0  0  0  0
    0.2763    2.1685    0.0541 C   0  0  0  0  0  0
   -0.8409    3.0050   -0.1374 C   0  0  0  0  0  0
    1.1317   -0.2314    0.2467 C   0  0  0  0  0  0
    2.1658   -0.1406    1.0205 N   0  0  0  0  0  0
    2.2784    1.0794    1.8200 C   0  0  0  0  0  0
    2.6322    2.2271    0.8812 C   0  0  0  0  0  0
    1.5939    2.7466    0.1033 N   0  0  0  0  0  0
    1.0423   -1.4373   -0.6383 C   0  0  0  0  0  0
    3.7862    2.6732    0.8565 O   0  0  0  0  0  0
    0.5479   -1.3375   -1.9454 C   0  0  0  0  0  0
    0.4831   -2.4738   -2.7548 C   0  0  0  0  0  0
    0.9182   -3.7062   -2.2673 C   0  0  0  0  0  0
    1.4250   -3.8063   -0.9720 C   0  0  0  0  0  0
    1.4925   -2.6734   -0.1587 C   0  0  0  0  0  0
   -3.9672    0.5212    0.0505 Cl  0  0  0  0  0  0
    1.8815    3.9517   -0.6862 C   0  0  0  0  0  0
    1.9074    5.1569    0.1629 C   0  0  0  0  0  0
    1.9294    6.1368    0.8576 C   0  0  0  0  0  0
   -2.9829    3.1816   -0.2780 H   0  0  0  0  0  0
   -1.4690   -0.7813    0.3384 H   0  0  0  0  0  0
   -0.7392    4.0816   -0.2472 H   0  0  0  0  0  0
    3.1012    0.9555    2.5329 H   0  0  0  0  0  0
    1.3839    1.2966    2.4140 H   0  0  0  0  0  0
    0.2222   -0.3833   -2.3535 H   0  0  0  0  0  0
    0.0972   -2.3965   -3.7699 H   0  0  0  0  0  0
    0.8670   -4.5902   -2.9010 H   0  0  0  0  0  0
    1.7694   -4.7677   -0.5949 H   0  0  0  0  0  0
    1.8900   -2.7631    0.8505 H   0  0  0  0  0  0
    1.1196    4.0950   -1.4602 H   0  0  0  0  0  0
    2.8199    3.8196   -1.2330 H   0  0  0  0  0  0
    1.9493    7.0067    1.4755 H   0  0  0  0  0  0
  1  2  2  0  0  0
  1  6  1  0  0  0
  1 23  1  0  0  0
  2  3  1  0  0  0
  2 19  1  0  0  0
  3  4  2  0  0  0
  3 24  1  0  0  0
  4  5  1  0  0  0
  4  7  1  0  0  0
  5  6  2  0  0  0
  5 11  1  0  0  0
  6 25  1  0  0  0
  7  8  2  0  0  0
  7 12  1  0  0  0
  8  9  1  0  0  0
  9 10  1  0  0  0
  9 26  1  0  0  0
  9 27  1  0  0  0
 10 11  1  0  0  0
 10 13  2  0  0  0
 11 20  1  0  0  0
 12 14  2  0  0  0
 12 18  1  0  0  0
 14 15  1  0  0  0
 14 28  1  0  0  0
 15 16  2  0  0  0
 15 29  1  0  0  0
 16 17  1  0  0  0
 16 30  1  0  0  0
 17 18  2  0  0  0
 17 31  1  0  0  0
 18 32  1  0  0  0
 20 21  1  0  0  0
 20 33  1  0  0  0
 20 34  1  0  0  0
 21 22  3  0  0  0
 22 35  1  0  0  0
M  END
>  <Name>
Pinazepam

>  <Family>
A.1

>  <IC50_uM>
0.092500

>  <set>
1

$$$$
Prazepam
  Cerius2 12180215283D 1   1.00000                          
 Structure written by MMmdl.
 40 43  0  0  0  0  0  0  0  0999 V2000
   -2.1338    2.4980   -0.1665 C   0  0  0  0  0  0
   -2.3533    1.1427    0.0330 C   0  0  0  0  0  0
   -1.2769    0.2822    0.2029 C   0  0  0  0  0  0
    0.0407    0.7800    0.1751 C   0  0  0  0  0  0
    0.2872    2.1625    0.0389 C   0  0  0  0  0  0
   -0.8273    2.9995   -0.1649 C   0  0  0  0  0  0
    1.1368   -0.2320    0.2275 C   0  0  0  0  0  0
    2.1692   -0.1390    0.9957 N   0  0  0  0  0  0
    2.3056    1.0641    1.8090 C   0  0  0  0  0  0
    2.6356    2.2405    0.9017 C   0  0  0  0  0  0
    1.5977    2.7406    0.1036 N   0  0  0  0  0  0
    1.0421   -1.4418   -0.6531 C   0  0  0  0  0  0
    3.7563    2.7576    0.9320 O   0  0  0  0  0  0
   -3.9576    0.5266    0.0525 Cl  0  0  0  0  0  0
    0.4960   -1.3635   -1.9411 C   0  0  0  0  0  0
    0.4132   -2.5094   -2.7352 C   0  0  0  0  0  0
    0.8852   -3.7301   -2.2529 C   0  0  0  0  0  0
    1.4490   -3.8081   -0.9799 C   0  0  0  0  0  0
    1.5324   -2.6656   -0.1820 C   0  0  0  0  0  0
    1.8878    3.9682   -0.6388 C   0  0  0  0  0  0
   -2.9711    3.1776   -0.3058 H   0  0  0  0  0  0
   -1.4622   -0.7809    0.3468 H   0  0  0  0  0  0
   -0.7139    4.0741   -0.2815 H   0  0  0  0  0  0
    3.1436    0.9246    2.5011 H   0  0  0  0  0  0
    1.4265    1.2720    2.4292 H   0  0  0  0  0  0
    0.1460   -0.4188   -2.3470 H   0  0  0  0  0  0
   -0.0117   -2.4493   -3.7341 H   0  0  0  0  0  0
    0.8233   -4.6206   -2.8739 H   0  0  0  0  0  0
    1.8289   -4.7571   -0.6096 H   0  0  0  0  0  0
    1.9801   -2.7324    0.8073 H   0  0  0  0  0  0
    2.8612    3.8566   -1.1326 H   0  0  0  0  0  0
    1.9140    5.1757    0.2637 C   0  0  0  0  0  0
    1.1580    4.0892   -1.4486 H   0  0  0  0  0  0
    2.8843    6.2992   -0.0147 C   0  0  0  0  0  0
    1.7405    4.9364    1.3071 H   0  0  0  0  0  0
    3.3449    6.7915    0.8355 H   0  0  0  0  0  0
    3.5345    6.2253   -0.8793 H   0  0  0  0  0  0
    1.4174    6.5098   -0.2430 C   0  0  0  0  0  0
    1.0771    6.5925   -1.2689 H   0  0  0  0  0  0
    0.8882    7.1547    0.4500 H   0  0  0  0  0  0
  1  2  2  0  0  0
  1  6  1  0  0  0
  1 21  1  0  0  0
  2  3  1  0  0  0
  2 14  1  0  0  0
  3  4  2  0  0  0
  3 22  1  0  0  0
  4  5  1  0  0  0
  4  7  1  0  0  0
  5  6  2  0  0  0
  5 11  1  0  0  0
  6 23  1  0  0  0
  7  8  2  0  0  0
  7 12  1  0  0  0
  8  9  1  0  0  0
  9 10  1  0  0  0
  9 24  1  0  0  0
  9 25  1  0  0  0
 10 11  1  0  0  0
 10 13  2  0  0  0
 11 20  1  0  0  0
 12 15  2  0  0  0
 12 19  1  0  0  0
 15 16  1  0  0  0
 15 26  1  0  0  0
 16 17  2  0  0  0
 16 27  1  0  0  0
 17 18  1  0  0  0
 17 28  1  0  0  0
 18 19  2  0  0  0
 18 29  1  0  0  0
 19 30  1  0  0  0
 20 31  1  0  0  0
 20 32  1  0  0  0
 20 33  1  0  0  0
 32 34  1  0  0  0
 32 35  1  0  0  0
 32 38  1  0  0  0
 34 36  1  0  0  0
 34 37  1  0  0  0
 34 38  1  0  0  0
 38 39  1  0  0  0
 38 40  1  0  0  0
M  END
>  <Name>
Prazepam

>  <Family>
A.1

>  <IC50_uM>
0.110000

>  <set>
1

$$$$
Ro06-9098
  Cerius2 12180215283D 1   1.00000                          
 Structure written by MMmdl.
 39 41  0  0  0  0  0  0  0  0999 V2000
   -2.1448    2.5112   -0.1384 C   0  0  0  0  0  0
   -2.3687    1.1491    0.0565 C   0  0  0  0  0  0
   -1.2871    0.2795    0.2165 C   0  0  0  0  0  0
    0.0319    0.7778    0.1824 C   0  0  0  0  0  0
    0.2800    2.1623    0.0427 C   0  0  0  0  0  0
   -0.8339    3.0053   -0.1464 C   0  0  0  0  0  0
    1.1332   -0.2348    0.2402 C   0  0  0  0  0  0
    2.1708   -0.1396    1.0083 N   0  0  0  0  0  0
    2.2814    1.0771    1.8131 C   0  0  0  0  0  0
    2.6299    2.2329    0.8826 C   0  0  0  0  0  0
    1.5983    2.7355    0.0855 N   0  0  0  0  0  0
    1.0424   -1.4423   -0.6426 C   0  0  0  0  0  0
    3.7737    2.7051    0.8837 O   0  0  0  0  0  0
    0.5474   -1.3453   -1.9495 C   0  0  0  0  0  0
    0.4824   -2.4834   -2.7566 C   0  0  0  0  0  0
    0.9173   -3.7148   -2.2669 C   0  0  0  0  0  0
    1.4245   -3.8123   -0.9715 C   0  0  0  0  0  0
    1.4925   -2.6778   -0.1606 C   0  0  0  0  0  0
   -3.7414    0.6278    0.0834 N   0  3  0  0  0  0
   -3.9064   -0.5896    0.2879 O   0  0  0  0  0  0
   -4.6805    1.4254   -0.0986 O   0  5  0  0  0  0
    1.8769    3.9543   -0.6681 C   0  0  0  0  0  0
    1.9027    5.0591    0.2409 O   0  0  0  0  0  0
    2.2474    6.2640   -0.4382 C   0  0  0  0  0  0
   -2.9691    3.2088   -0.2719 H   0  0  0  0  0  0
   -1.4599   -0.7853    0.3593 H   0  0  0  0  0  0
   -0.7199    4.0800   -0.2695 H   0  0  0  0  0  0
    3.1054    0.9509    2.5242 H   0  0  0  0  0  0
    1.3872    1.2888    2.4096 H   0  0  0  0  0  0
    0.2223   -0.3921   -2.3601 H   0  0  0  0  0  0
    0.0961   -2.4081   -3.7718 H   0  0  0  0  0  0
    0.8661   -4.6001   -2.8989 H   0  0  0  0  0  0
    1.7689   -4.7730   -0.5925 H   0  0  0  0  0  0
    1.8905   -2.7656    0.8485 H   0  0  0  0  0  0
    1.1043    4.1428   -1.4208 H   0  0  0  0  0  0
    2.8330    3.8448   -1.1929 H   0  0  0  0  0  0
    2.2520    7.0783    0.2912 H   0  0  0  0  0  0
    1.5092    6.4917   -1.2130 H   0  0  0  0  0  0
    3.2462    6.1824   -0.8777 H   0  0  0  0  0  0
  1  2  2  0  0  0
  1  6  1  0  0  0
  1 25  1  0  0  0
  2  3  1  0  0  0
  2 19  1  0  0  0
  3  4  2  0  0  0
  3 26  1  0  0  0
  4  5  1  0  0  0
  4  7  1  0  0  0
  5  6  2  0  0  0
  5 11  1  0  0  0
  6 27  1  0  0  0
  7  8  2  0  0  0
  7 12  1  0  0  0
  8  9  1  0  0  0
  9 10  1  0  0  0
  9 28  1  0  0  0
  9 29  1  0  0  0
 10 11  1  0  0  0
 10 13  2  0  0  0
 11 22  1  0  0  0
 12 14  2  0  0  0
 12 18  1  0  0  0
 14 15  1  0  0  0
 14 30  1  0  0  0
 15 16  2  0  0  0
 15 31  1  0  0  0
 16 17  1  0  0  0
 16 32  1  0  0  0
 17 18  2  0  0  0
 17 33  1  0  0  0
 18 34  1  0  0  0
 19 20  2  0  0  0
 19 21  1  0  0  0
 22 23  1  0  0  0
 22 35  1  0  0  0
 22 36  1  0  0  0
 23 24  1  0  0  0
 24 37  1  0  0  0
 24 38  1  0  0  0
 24 39  1  0  0  0
M  CHG  2  19   1  21  -1
M  END
>  <Name>
Ro06-9098

>  <Family>
A.1

>  <IC50_uM>
0.430000

>  <set>
1

$$$$
Ro20-1310
  Cerius2 12180215283D 1   1.00000                          
 Structure written by MMmdl.
 42 44  0  0  0  0  0  0  0  0999 V2000
   -2.1202    2.5694    0.0448 C   0  0  0  0  0  0
   -2.3740    1.2065    0.1398 C   0  0  0  0  0  0
   -1.3202    0.3012    0.1861 C   0  0  0  0  0  0
    0.0039    0.7663    0.1124 C   0  0  0  0  0  0
    0.2843    2.1423   -0.0063 C   0  0  0  0  0  0
   -0.8009    3.0316   -0.0152 C   0  0  0  0  0  0
    1.0980   -0.2409    0.2124 C   0  0  0  0  0  0
    2.0854   -0.1303    1.0458 N   0  0  0  0  0  0
    2.1244    1.0959    1.8595 C   0  0  0  0  0  0
    2.5427    2.2574    0.9549 C   0  0  0  0  0  0
    1.6286    2.6499   -0.0452 N   0  0  0  0  0  0
    1.0555   -1.4433   -0.6774 C   0  0  0  0  0  0
    3.6397    2.7977    1.1363 O   0  0  0  0  0  0
    0.5851   -1.3542   -1.9941 C   0  0  0  0  0  0
    0.5657   -2.4897   -2.8074 C   0  0  0  0  0  0
    1.0211   -3.7121   -2.3142 C   0  0  0  0  0  0
    1.5029   -3.8027   -1.0090 C   0  0  0  0  0  0
    1.5252   -2.6704   -0.1922 C   0  0  0  0  0  0
   -3.9963    0.6404    0.2270 Cl  0  0  0  0  0  0
    2.0348    3.6578   -1.1005 C   0  0  0  0  0  0
    1.1044    3.6892   -2.3454 C   0  0  0  0  0  0
    2.1116    5.0758   -0.5048 C   0  0  0  0  0  0
    3.4257    3.2839   -1.6865 C   0  0  0  0  0  0
   -2.9387    3.2861    0.0334 H   0  0  0  0  0  0
   -1.5284   -0.7604    0.2956 H   0  0  0  0  0  0
   -0.6456    4.1072   -0.0298 H   0  0  0  0  0  0
    2.8946    0.9689    2.6286 H   0  0  0  0  0  0
    1.1889    1.3022    2.3906 H   0  0  0  0  0  0
    0.2434   -0.4088   -2.4095 H   0  0  0  0  0  0
    0.1988   -2.4191   -3.8300 H   0  0  0  0  0  0
    1.0053   -4.5953   -2.9509 H   0  0  0  0  0  0
    1.8630   -4.7562   -0.6265 H   0  0  0  0  0  0
    1.9036   -2.7547    0.8248 H   0  0  0  0  0  0
    1.5446    4.2888   -3.1519 H   0  0  0  0  0  0
    0.1343    4.1488   -2.1438 H   0  0  0  0  0  0
    0.9360    2.6816   -2.7424 H   0  0  0  0  0  0
    2.4044    5.8081   -1.2658 H   0  0  0  0  0  0
    2.8432    5.1380    0.3070 H   0  0  0  0  0  0
    1.1480    5.3920   -0.0940 H   0  0  0  0  0  0
    3.6795    3.9126   -2.5484 H   0  0  0  0  0  0
    3.4398    2.2388   -2.0172 H   0  0  0  0  0  0
    4.2411    3.4187   -0.9714 H   0  0  0  0  0  0
  1  2  2  0  0  0
  1  6  1  0  0  0
  1 24  1  0  0  0
  2  3  1  0  0  0
  2 19  1  0  0  0
  3  4  2  0  0  0
  3 25  1  0  0  0
  4  5  1  0  0  0
  4  7  1  0  0  0
  5  6  2  0  0  0
  5 11  1  0  0  0
  6 26  1  0  0  0
  7  8  2  0  0  0
  7 12  1  0  0  0
  8  9  1  0  0  0
  9 10  1  0  0  0
  9 27  1  0  0  0
  9 28  1  0  0  0
 10 11  1  0  0  0
 10 13  2  0  0  0
 11 20  1  0  0  0
 12 14  2  0  0  0
 12 18  1  0  0  0
 14 15  1  0  0  0
 14 29  1  0  0  0
 15 16  2  0  0  0
 15 30  1  0  0  0
 16 17  1  0  0  0
 16 31  1  0  0  0
 17 18  2  0  0  0
 17 32  1  0  0  0
 18 33  1  0  0  0
 20 21  1  0  0  0
 20 22  1  0  0  0
 20 23  1  0  0  0
 21 34  1  0  0  0
 21 35  1  0  0  0
 21 36  1  0  0  0
 22 37  1  0  0  0
 22 38  1  0  0  0
 22 39  1  0  0  0
 23 40  1  0  0  0
 23 41  1  0  0  0
 23 42  1  0  0  0
M  END
>  <Name>
Ro20-1310

>  <Family>
A.1

>  <IC50_uM>
0.620000

>  <set>
1

$$$$
Ro05-7094
  Cerius2 12180215283D 1   1.00000                          
 Structure written by MMmdl.
 43 45  0  0  0  0  0  0  0  0999 V2000
   -2.1472    2.5169   -0.0837 C   0  0  0  0  0  0
   -2.3714    1.1569    0.0730 C   0  0  0  0  0  0
   -1.2968    0.2863    0.2008 C   0  0  0  0  0  0
    0.0217    0.7793    0.1614 C   0  0  0  0  0  0
    0.2752    2.1633    0.0301 C   0  0  0  0  0  0
   -0.8378    3.0118   -0.1007 C   0  0  0  0  0  0
    1.1192   -0.2332    0.2358 C   0  0  0  0  0  0
    2.1381   -0.1364    1.0299 N   0  0  0  0  0  0
    2.2269    1.0850    1.8347 C   0  0  0  0  0  0
    2.6028    2.2331    0.9042 C   0  0  0  0  0  0
    1.6033    2.7146    0.0449 N   0  0  0  0  0  0
    1.0452   -1.4385   -0.6510 C   0  0  0  0  0  0
    3.7426    2.7144    0.9404 O   0  0  0  0  0  0
    0.5588   -1.3433   -1.9614 C   0  0  0  0  0  0
    0.5091   -2.4798   -2.7717 C   0  0  0  0  0  0
    0.9513   -3.7087   -2.2819 C   0  0  0  0  0  0
    1.4498   -3.8049   -0.9832 C   0  0  0  0  0  0
    1.5021   -2.6717   -0.1692 C   0  0  0  0  0  0
   -3.9801    0.5492    0.1106 Cl  0  0  0  0  0  0
    1.9730    3.8787   -0.8055 C   0  0  0  0  0  0
    1.1528    4.0185   -2.0933 C   0  0  0  0  0  0
    2.0402    5.1876    0.0293 C   0  0  0  0  0  0
    1.5243    5.2938    1.1489 O   0  0  0  0  0  0
    2.6848    6.2821   -0.4779 N   0  0  0  0  0  0
    3.4250    6.4055   -1.7144 C   0  0  0  0  0  0
   -2.9814    3.2091   -0.1765 H   0  0  0  0  0  0
   -1.4853   -0.7774    0.3293 H   0  0  0  0  0  0
   -0.7258    4.0902   -0.1722 H   0  0  0  0  0  0
    3.0325    0.9609    2.5669 H   0  0  0  0  0  0
    1.3178    1.3007    2.4065 H   0  0  0  0  0  0
    0.2270   -0.3925   -2.3728 H   0  0  0  0  0  0
    0.1293   -2.4053   -3.7893 H   0  0  0  0  0  0
    0.9121   -4.5928   -2.9164 H   0  0  0  0  0  0
    1.7996   -4.7634   -0.6039 H   0  0  0  0  0  0
    1.8932   -2.7592    0.8427 H   0  0  0  0  0  0
    3.0002    3.6843   -1.1372 H   0  0  0  0  0  0
    1.7019    4.5949   -2.8437 H   0  0  0  0  0  0
    0.2097    4.5483   -1.9346 H   0  0  0  0  0  0
    0.9384    3.0406   -2.5374 H   0  0  0  0  0  0
    2.6537    7.1075    0.1147 H   0  0  0  0  0  0
    2.7289    6.6805   -2.5102 H   0  0  0  0  0  0
    3.9351    5.4737   -1.9631 H   0  0  0  0  0  0
    4.1627    7.2025   -1.5919 H   0  0  0  0  0  0
  1  2  2  0  0  0
  1  6  1  0  0  0
  1 26  1  0  0  0
  2  3  1  0  0  0
  2 19  1  0  0  0
  3  4  2  0  0  0
  3 27  1  0  0  0
  4  5  1  0  0  0
  4  7  1  0  0  0
  5  6  2  0  0  0
  5 11  1  0  0  0
  6 28  1  0  0  0
  7  8  2  0  0  0
  7 12  1  0  0  0
  8  9  1  0  0  0
  9 10  1  0  0  0
  9 29  1  0  0  0
  9 30  1  0  0  0
 10 11  1  0  0  0
 10 13  2  0  0  0
 11 20  1  0  0  0
 12 14  2  0  0  0
 12 18  1  0  0  0
 14 15  1  0  0  0
 14 31  1  0  0  0
 15 16  2  0  0  0
 15 32  1  0  0  0
 16 17  1  0  0  0
 16 33  1  0  0  0
 17 18  2  0  0  0
 17 34  1  0  0  0
 18 35  1  0  0  0
 20 21  1  0  0  0
 20 22  1  0  0  0
 20 36  1  0  0  0
 21 37  1  0  0  0
 21 38  1  0  0  0
 21 39  1  0  0  0
 22 23  2  0  0  0
 22 24  1  0  0  0
 24 25  1  0  0  0
 24 40  1  0  0  0
 25 41  1  0  0  0
 25 42  1  0  0  0
 25 43  1  0  0  0
M  END
>  <Name>
Ro05-7094

>  <Family>
A.1

>  <IC50_uM>
>1

>  <set>
1

$$$$
Ro07-1986
  Cerius2 12180215283D 1   1.00000                          
 Structure written by MMmdl.
 38 40  0  0  0  0  0  0  0  0999 V2000
   -2.1478    2.4783   -0.1557 C   0  0  0  0  0  0
   -2.3547    1.1179    0.0106 C   0  0  0  0  0  0
   -1.2700    0.2678    0.1837 C   0  0  0  0  0  0
    0.0436    0.7798    0.1911 C   0  0  0  0  0  0
    0.2772    2.1697    0.0694 C   0  0  0  0  0  0
   -0.8472    2.9953   -0.1277 C   0  0  0  0  0  0
    1.1455   -0.2320    0.2612 C   0  0  0  0  0  0
    2.1894   -0.1348    1.0187 N   0  0  0  0  0  0
    2.3039    1.0841    1.8182 C   0  0  0  0  0  0
    2.6438    2.2303    0.8753 C   0  0  0  0  0  0
    1.5880    2.7638    0.1283 N   0  0  0  0  0  0
    1.0457   -1.4347   -0.6151 C   0  0  0  0  0  0
    3.8016    2.6619    0.8121 O   0  0  0  0  0  0
    1.4123   -2.6943   -0.1228 C   0  0  0  0  0  0
    1.3061   -3.8189   -0.9451 C   0  0  0  0  0  0
    0.8323   -3.6908   -2.2520 C   0  0  0  0  0  0
    0.4619   -2.4378   -2.7410 C   0  0  0  0  0  0
    0.5668   -1.3164   -1.9216 C   0  0  0  0  0  0
   -3.9527    0.4819   -0.0077 Cl  0  0  0  0  0  0
    0.2287   -0.1212   -2.4288 F   0  0  0  0  0  0
    1.8685    3.9751   -0.6661 C   0  0  0  0  0  0
    1.8730    5.2506    0.1954 C   0  0  0  0  0  0
    2.1105    6.4597   -0.6032 N   0  0  0  0  0  0
   -2.9888    3.1544   -0.2945 H   0  0  0  0  0  0
   -1.4506   -0.7978    0.3072 H   0  0  0  0  0  0
   -0.7590    4.0740   -0.2237 H   0  0  0  0  0  0
    3.1330    0.9647    2.5244 H   0  0  0  0  0  0
    1.4129    1.2976    2.4189 H   0  0  0  0  0  0
    1.7693   -2.8165    0.8975 H   0  0  0  0  0  0
    1.5902   -4.7988   -0.5642 H   0  0  0  0  0  0
    0.7512   -4.5695   -2.8899 H   0  0  0  0  0  0
    0.0954   -2.3308   -3.7583 H   0  0  0  0  0  0
    1.1014    4.0865   -1.4425 H   0  0  0  0  0  0
    2.8047    3.8611   -1.2199 H   0  0  0  0  0  0
    2.6503    5.1862    0.9641 H   0  0  0  0  0  0
    0.9135    5.3478    0.7164 H   0  0  0  0  0  0
    2.0218    7.2719    0.0193 H   0  0  0  0  0  0
    1.3256    6.5749   -1.2555 H   0  0  0  0  0  0
  1  2  2  0  0  0
  1  6  1  0  0  0
  1 24  1  0  0  0
  2  3  1  0  0  0
  2 19  1  0  0  0
  3  4  2  0  0  0
  3 25  1  0  0  0
  4  5  1  0  0  0
  4  7  1  0  0  0
  5  6  2  0  0  0
  5 11  1  0  0  0
  6 26  1  0  0  0
  7  8  2  0  0  0
  7 12  1  0  0  0
  8  9  1  0  0  0
  9 10  1  0  0  0
  9 27  1  0  0  0
  9 28  1  0  0  0
 10 11  1  0  0  0
 10 13  2  0  0  0
 11 21  1  0  0  0
 12 14  2  0  0  0
 12 18  1  0  0  0
 14 15  1  0  0  0
 14 29  1  0  0  0
 15 16  2  0  0  0
 15 30  1  0  0  0
 16 17  1  0  0  0
 16 31  1  0  0  0
 17 18  2  0  0  0
 17 32  1  0  0  0
 18 20  1  0  0  0
 21 22  1  0  0  0
 21 33  1  0  0  0
 21 34  1  0  0  0
 22 23  1  0  0  0
 22 35  1  0  0  0
 22 36  1  0  0  0
 23 37  1  0  0  0
 23 38  1  0  0  0
M  END
>  <Name>
Ro07-1986

>  <Family>
A.1

>  <IC50_uM>
0.008300

>  <set>
2

$$$$
Flurazepam
  Cerius2 12180215283D 1   1.00000                          
 Structure written by MMmdl.
 50 52  0  0  0  0  0  0  0  0999 V2000
   -2.1500    2.4806   -0.1461 C   0  0  0  0  0  0
   -2.3571    1.1192    0.0126 C   0  0  0  0  0  0
   -1.2727    0.2679    0.1822 C   0  0  0  0  0  0
    0.0406    0.7798    0.1921 C   0  0  0  0  0  0
    0.2743    2.1700    0.0727 C   0  0  0  0  0  0
   -0.8496    2.9976   -0.1156 C   0  0  0  0  0  0
    1.1433   -0.2311    0.2644 C   0  0  0  0  0  0
    2.1850   -0.1335    1.0252 N   0  0  0  0  0  0
    2.2985    1.0857    1.8257 C   0  0  0  0  0  0
    2.6398    2.2299    0.8816 C   0  0  0  0  0  0
    1.5854    2.7612    0.1308 N   0  0  0  0  0  0
    1.0466   -1.4321   -0.6143 C   0  0  0  0  0  0
    3.7974    2.6609    0.8114 O   0  0  0  0  0  0
    1.4133   -2.6921   -0.1231 C   0  0  0  0  0  0
    1.3095   -3.8156   -0.9471 C   0  0  0  0  0  0
    0.8388   -3.6858   -2.2551 C   0  0  0  0  0  0
    0.4686   -2.4321   -2.7432 C   0  0  0  0  0  0
    0.5709   -1.3119   -1.9218 C   0  0  0  0  0  0
   -3.9559    0.4845   -0.0056 Cl  0  0  0  0  0  0
    0.2331   -0.1161   -2.4277 F   0  0  0  0  0  0
    1.8856    3.9386   -0.7076 C   0  0  0  0  0  0
    1.8755    5.2411    0.1199 C   0  0  0  0  0  0
    2.3591    6.4775   -0.5217 N   0  0  0  0  0  0
    1.8500    6.4371   -3.0364 C   0  0  0  0  0  0
    1.5221    6.9471   -1.6349 C   0  0  0  0  0  0
    4.3726    7.8580   -0.9966 C   0  0  0  0  0  0
    3.8056    6.4610   -0.7684 C   0  0  0  0  0  0
   -2.9916    3.1578   -0.2771 H   0  0  0  0  0  0
   -1.4538   -0.7978    0.3034 H   0  0  0  0  0  0
   -0.7645    4.0780   -0.1923 H   0  0  0  0  0  0
    3.1271    0.9667    2.5325 H   0  0  0  0  0  0
    1.4065    1.2992    2.4243 H   0  0  0  0  0  0
    1.7685   -2.8155    0.8976 H   0  0  0  0  0  0
    1.5934   -4.7958   -0.5670 H   0  0  0  0  0  0
    0.7600   -4.5636   -2.8945 H   0  0  0  0  0  0
    0.1047   -2.3242   -3.7613 H   0  0  0  0  0  0
    1.1204    4.0123   -1.4880 H   0  0  0  0  0  0
    2.8278    3.8070   -1.2409 H   0  0  0  0  0  0
    2.4590    5.0894    1.0379 H   0  0  0  0  0  0
    0.8533    5.4149    0.4826 H   0  0  0  0  0  0
    1.1114    6.8219   -3.7480 H   0  0  0  0  0  0
    1.8297    5.3475   -3.1007 H   0  0  0  0  0  0
    2.8318    6.7807   -3.3753 H   0  0  0  0  0  0
    1.5830    8.0425   -1.6583 H   0  0  0  0  0  0
    0.4674    6.7339   -1.4186 H   0  0  0  0  0  0
    5.4628    7.8069   -1.0857 H   0  0  0  0  0  0
    4.1371    8.5191   -0.1556 H   0  0  0  0  0  0
    3.9875    8.3159   -1.9122 H   0  0  0  0  0  0
    4.0697    5.8066   -1.6064 H   0  0  0  0  0  0
    4.3181    6.0553    0.1132 H   0  0  0  0  0  0
  1  2  2  0  0  0
  1  6  1  0  0  0
  1 28  1  0  0  0
  2  3  1  0  0  0
  2 19  1  0  0  0
  3  4  2  0  0  0
  3 29  1  0  0  0
  4  5  1  0  0  0
  4  7  1  0  0  0
  5  6  2  0  0  0
  5 11  1  0  0  0
  6 30  1  0  0  0
  7  8  2  0  0  0
  7 12  1  0  0  0
  8  9  1  0  0  0
  9 10  1  0  0  0
  9 31  1  0  0  0
  9 32  1  0  0  0
 10 11  1  0  0  0
 10 13  2  0  0  0
 11 21  1  0  0  0
 12 14  2  0  0  0
 12 18  1  0  0  0
 14 15  1  0  0  0
 14 33  1  0  0  0
 15 16  2  0  0  0
 15 34  1  0  0  0
 16 17  1  0  0  0
 16 35  1  0  0  0
 17 18  2  0  0  0
 17 36  1  0  0  0
 18 20  1  0  0  0
 21 22  1  0  0  0
 21 37  1  0  0  0
 21 38  1  0  0  0
 22 23  1  0  0  0
 22 39  1  0  0  0
 22 40  1  0  0  0
 23 25  1  0  0  0
 23 27  1  0  0  0
 24 25  1  0  0  0
 24 41  1  0  0  0
 24 42  1  0  0  0
 24 43  1  0  0  0
 25 44  1  0  0  0
 25 45  1  0  0  0
 26 27  1  0  0  0
 26 46  1  0  0  0
 26 47  1  0  0  0
 26 48  1  0  0  0
 27 49  1  0  0  0
 27 50  1  0  0  0
M  END
>  <Name>
Flurazepam

>  <Family>
A.1

>  <IC50_uM>
0.014800

>  <set>
1

$$$$
Ro07-2750
  Cerius2 12180215283D 1   1.00000                          
 Structure written by MMmdl.
 37 39  0  0  0  0  0  0  0  0999 V2000
   -2.1472    2.4784   -0.1572 C   0  0  0  0  0  0
   -2.3541    1.1180    0.0091 C   0  0  0  0  0  0
   -1.2696    0.2677    0.1827 C   0  0  0  0  0  0
    0.0441    0.7796    0.1909 C   0  0  0  0  0  0
    0.2775    2.1698    0.0697 C   0  0  0  0  0  0
   -0.8467    2.9955   -0.1281 C   0  0  0  0  0  0
    1.1463   -0.2322    0.2602 C   0  0  0  0  0  0
    2.1915   -0.1344    1.0157 N   0  0  0  0  0  0
    2.3071    1.0834    1.8165 C   0  0  0  0  0  0
    2.6446    2.2309    0.8746 C   0  0  0  0  0  0
    1.5876    2.7644    0.1293 N   0  0  0  0  0  0
    1.0455   -1.4356   -0.6153 C   0  0  0  0  0  0
    3.8015    2.6648    0.8097 O   0  0  0  0  0  0
    1.4137   -2.6947   -0.1231 C   0  0  0  0  0  0
    1.3068   -3.8197   -0.9447 C   0  0  0  0  0  0
    0.8305   -3.6926   -2.2509 C   0  0  0  0  0  0
    0.4585   -2.4399   -2.7398 C   0  0  0  0  0  0
    0.5642   -1.3181   -1.9209 C   0  0  0  0  0  0
   -3.9521    0.4820   -0.0104 Cl  0  0  0  0  0  0
    0.2244   -0.1234   -2.4281 F   0  0  0  0  0  0
    1.8648    3.9797   -0.6550 C   0  0  0  0  0  0
    1.8737    5.2502    0.2000 C   0  0  0  0  0  0
    2.0955    6.3964   -0.6252 O   0  0  0  0  0  0
   -2.9882    3.1545   -0.2960 H   0  0  0  0  0  0
   -1.4503   -0.7979    0.3058 H   0  0  0  0  0  0
   -0.7586    4.0743   -0.2232 H   0  0  0  0  0  0
    3.1375    0.9635    2.5210 H   0  0  0  0  0  0
    1.4170    1.2957    2.4187 H   0  0  0  0  0  0
    1.7725   -2.8164    0.8966 H   0  0  0  0  0  0
    1.5920   -4.7993   -0.5640 H   0  0  0  0  0  0
    0.7488   -4.5716   -2.8882 H   0  0  0  0  0  0
    0.0902   -2.3337   -3.7566 H   0  0  0  0  0  0
    1.1034    4.1044   -1.4351 H   0  0  0  0  0  0
    2.7940    3.8772   -1.2232 H   0  0  0  0  0  0
    2.6661    5.2137    0.9542 H   0  0  0  0  0  0
    0.9136    5.3739    0.7124 H   0  0  0  0  0  0
    2.0853    7.1656   -0.0152 H   0  0  0  0  0  0
  1  2  2  0  0  0
  1  6  1  0  0  0
  1 24  1  0  0  0
  2  3  1  0  0  0
  2 19  1  0  0  0
  3  4  2  0  0  0
  3 25  1  0  0  0
  4  5  1  0  0  0
  4  7  1  0  0  0
  5  6  2  0  0  0
  5 11  1  0  0  0
  6 26  1  0  0  0
  7  8  2  0  0  0
  7 12  1  0  0  0
  8  9  1  0  0  0
  9 10  1  0  0  0
  9 27  1  0  0  0
  9 28  1  0  0  0
 10 11  1  0  0  0
 10 13  2  0  0  0
 11 21  1  0  0  0
 12 14  2  0  0  0
 12 18  1  0  0  0
 14 15  1  0  0  0
 14 29  1  0  0  0
 15 16  2  0  0  0
 15 30  1  0  0  0
 16 17  1  0  0  0
 16 31  1  0  0  0
 17 18  2  0  0  0
 17 32  1  0  0  0
 18 20  1  0  0  0
 21 22  1  0  0  0
 21 33  1  0  0  0
 21 34  1  0  0  0
 22 23  1  0  0  0
 22 35  1  0  0  0
 22 36  1  0  0  0
 23 37  1  0  0  0
M  END
>  <Name>
Ro07-2750

>  <Family>
A.1

>  <IC50_uM>
0.024500

>  <set>
1

$$$$
Irazepine
  Cerius2 12180215283D 1   1.00000                          
 Structure written by MMmdl.
 38 40  0  0  0  0  0  0  0  0999 V2000
   -2.1483    2.4848   -0.1132 C   0  0  0  0  0  0
   -2.3538    1.1187    0.0051 C   0  0  0  0  0  0
   -1.2698    0.2625    0.1515 C   0  0  0  0  0  0
    0.0430    0.7735    0.1739 C   0  0  0  0  0  0
    0.2762    2.1633    0.0744 C   0  0  0  0  0  0
   -0.8474    2.9991   -0.0758 C   0  0  0  0  0  0
    1.1456   -0.2303    0.2451 C   0  0  0  0  0  0
    2.1908   -0.1277    0.9919 N   0  0  0  0  0  0
    2.3249    1.0719    1.8112 C   0  0  0  0  0  0
    2.6395    2.2396    0.8916 C   0  0  0  0  0  0
    1.5819    2.7519    0.1290 N   0  0  0  0  0  0
    1.0476   -1.4324   -0.6210 C   0  0  0  0  0  0
    3.7731    2.7260    0.8472 O   0  0  0  0  0  0
    1.4251   -2.6838   -0.1195 C   0  0  0  0  0  0
    1.3246   -3.8127   -0.9358 C   0  0  0  0  0  0
    0.8484   -3.6929   -2.2438 C   0  0  0  0  0  0
    0.4715   -2.4437   -2.7396 C   0  0  0  0  0  0
    0.5701   -1.3181   -1.9263 C   0  0  0  0  0  0
   -3.9507    0.4847   -0.0287 Cl  0  0  0  0  0  0
    0.2440   -0.1238   -2.4408 F   0  0  0  0  0  0
    1.9029    3.9123   -0.7127 C   0  0  0  0  0  0
    1.8971    5.2185    0.0982 C   0  0  0  0  0  0
    2.3052    6.3391   -0.7687 N   0  0  0  0  0  0
    3.4276    6.3189   -1.1143 C   0  0  0  0  0  0
    4.9490    6.3265   -1.6064 S   0  0  0  0  0  0
   -2.9926    3.1629   -0.2157 H   0  0  0  0  0  0
   -1.4521   -0.8053    0.2534 H   0  0  0  0  0  0
   -0.7519    4.0812   -0.1089 H   0  0  0  0  0  0
    3.1680    0.9384    2.4978 H   0  0  0  0  0  0
    1.4442    1.2726    2.4311 H   0  0  0  0  0  0
    1.7786   -2.7909    0.9024 H   0  0  0  0  0  0
    1.6096   -4.7895   -0.5508 H   0  0  0  0  0  0
    0.7680   -4.5742   -2.8762 H   0  0  0  0  0  0
    0.1031   -2.3388   -3.7556 H   0  0  0  0  0  0
    1.1573    3.9836   -1.5153 H   0  0  0  0  0  0
    2.8647    3.8058   -1.2185 H   0  0  0  0  0  0
    2.6247    5.1404    0.9157 H   0  0  0  0  0  0
    0.9191    5.3806    0.5721 H   0  0  0  0  0  0
  1  2  2  0  0  0
  1  6  1  0  0  0
  1 26  1  0  0  0
  2  3  1  0  0  0
  2 19  1  0  0  0
  3  4  2  0  0  0
  3 27  1  0  0  0
  4  5  1  0  0  0
  4  7  1  0  0  0
  5  6  2  0  0  0
  5 11  1  0  0  0
  6 28  1  0  0  0
  7  8  2  0  0  0
  7 12  1  0  0  0
  8  9  1  0  0  0
  9 10  1  0  0  0
  9 29  1  0  0  0
  9 30  1  0  0  0
 10 11  1  0  0  0
 10 13  2  0  0  0
 11 21  1  0  0  0
 12 14  2  0  0  0
 12 18  1  0  0  0
 14 15  1  0  0  0
 14 31  1  0  0  0
 15 16  2  0  0  0
 15 32  1  0  0  0
 16 17  1  0  0  0
 16 33  1  0  0  0
 17 18  2  0  0  0
 17 34  1  0  0  0
 18 20  1  0  0  0
 21 22  1  0  0  0
 21 35  1  0  0  0
 21 36  1  0  0  0
 22 23  1  0  0  0
 22 37  1  0  0  0
 22 38  1  0  0  0
 23 24  2  0  0  0
 24 25  2  0  0  0
M  END
>  <Name>
Irazepine

>  <Family>
A.1

>  <IC50_uM>
0.033000

>  <set>
1

$$$$
Ro08-9013
  Cerius2 12180215283D 1   1.00000                          
 Structure written by MMmdl.
 44 46  0  0  0  0  0  0  0  0999 V2000
   -2.1465    2.4782   -0.1585 C   0  0  0  0  0  0
   -2.3545    1.1184    0.0123 C   0  0  0  0  0  0
   -1.2709    0.2674    0.1871 C   0  0  0  0  0  0
    0.0427    0.7787    0.1927 C   0  0  0  0  0  0
    0.2773    2.1683    0.0672 C   0  0  0  0  0  0
   -0.8458    2.9947   -0.1322 C   0  0  0  0  0  0
    1.1446   -0.2328    0.2630 C   0  0  0  0  0  0
    2.1889   -0.1343    1.0199 N   0  0  0  0  0  0
    2.3034    1.0843    1.8201 C   0  0  0  0  0  0
    2.6421    2.2310    0.8776 C   0  0  0  0  0  0
    1.5878    2.7615    0.1261 N   0  0  0  0  0  0
    1.0454   -1.4349   -0.6142 C   0  0  0  0  0  0
    3.7984    2.6666    0.8152 O   0  0  0  0  0  0
    1.4143   -2.6944   -0.1228 C   0  0  0  0  0  0
    1.3086   -3.8188   -0.9450 C   0  0  0  0  0  0
    0.8325   -3.6912   -2.2512 C   0  0  0  0  0  0
    0.4598   -2.4385   -2.7392 C   0  0  0  0  0  0
    0.5645   -1.3171   -1.9198 C   0  0  0  0  0  0
   -3.9534    0.4842   -0.0019 Cl  0  0  0  0  0  0
    0.2237   -0.1224   -2.4264 F   0  0  0  0  0  0
    1.8718    3.9668   -0.6713 C   0  0  0  0  0  0
    1.8782    5.2470    0.1719 C   0  0  0  0  0  0
    2.0830    6.3787   -0.6846 O   0  0  0  0  0  0
    2.0824    7.5971    0.0614 C   0  0  0  0  0  0
    2.2784    8.8244   -0.8369 C   0  0  0  0  0  0
    2.4256    8.7770   -2.0582 O   0  0  0  0  0  0
    2.2795   10.0199   -0.1775 N   0  0  0  0  0  0
   -2.9872    3.1546   -0.2980 H   0  0  0  0  0  0
   -1.4518   -0.7978    0.3134 H   0  0  0  0  0  0
   -0.7570    4.0735   -0.2275 H   0  0  0  0  0  0
    3.1335    0.9647    2.5250 H   0  0  0  0  0  0
    1.4126    1.2970    2.4213 H   0  0  0  0  0  0
    1.7730   -2.8163    0.8967 H   0  0  0  0  0  0
    1.5941   -4.7985   -0.5644 H   0  0  0  0  0  0
    0.7507   -4.5701   -2.8887 H   0  0  0  0  0  0
    0.0913   -2.3322   -3.7559 H   0  0  0  0  0  0
    1.1136    4.0827   -1.4559 H   0  0  0  0  0  0
    2.8037    3.8595   -1.2338 H   0  0  0  0  0  0
    2.6787    5.2100    0.9194 H   0  0  0  0  0  0
    0.9192    5.3540    0.6930 H   0  0  0  0  0  0
    2.8976    7.5790    0.7939 H   0  0  0  0  0  0
    1.1246    7.7094    0.5824 H   0  0  0  0  0  0
    2.4015   10.8893   -0.6844 H   0  0  0  0  0  0
    2.1603   10.0945    0.8275 H   0  0  0  0  0  0
  1  2  2  0  0  0
  1  6  1  0  0  0
  1 28  1  0  0  0
  2  3  1  0  0  0
  2 19  1  0  0  0
  3  4  2  0  0  0
  3 29  1  0  0  0
  4  5  1  0  0  0
  4  7  1  0  0  0
  5  6  2  0  0  0
  5 11  1  0  0  0
  6 30  1  0  0  0
  7  8  2  0  0  0
  7 12  1  0  0  0
  8  9  1  0  0  0
  9 10  1  0  0  0
  9 31  1  0  0  0
  9 32  1  0  0  0
 10 11  1  0  0  0
 10 13  2  0  0  0
 11 21  1  0  0  0
 12 14  2  0  0  0
 12 18  1  0  0  0
 14 15  1  0  0  0
 14 33  1  0  0  0
 15 16  2  0  0  0
 15 34  1  0  0  0
 16 17  1  0  0  0
 16 35  1  0  0  0
 17 18  2  0  0  0
 17 36  1  0  0  0
 18 20  1  0  0  0
 21 22  1  0  0  0
 21 37  1  0  0  0
 21 38  1  0  0  0
 22 23  1  0  0  0
 22 39  1  0  0  0
 22 40  1  0  0  0
 23 24  1  0  0  0
 24 25  1  0  0  0
 24 41  1  0  0  0
 24 42  1  0  0  0
 25 26  2  0  0  0
 25 27  1  0  0  0
 27 43  1  0  0  0
 27 44  1  0  0  0
M  END
>  <Name>
Ro08-9013

>  <Family>
A.1

>  <IC50_uM>
0.042500

>  <set>
2

$$$$
Ro10-3580
  Cerius2 12180215283D 1   1.00000                          
 Structure written by MMmdl.
 41 43  0  0  0  0  0  0  0  0999 V2000
   -2.1473    2.4678   -0.1870 C   0  0  0  0  0  0
   -2.3505    1.1096   -0.0039 C   0  0  0  0  0  0
   -1.2633    0.2662    0.1833 C   0  0  0  0  0  0
    0.0495    0.7825    0.1933 C   0  0  0  0  0  0
    0.2788    2.1739    0.0698 C   0  0  0  0  0  0
   -0.8486    2.9895   -0.1540 C   0  0  0  0  0  0
    1.1509   -0.2318    0.2610 C   0  0  0  0  0  0
    2.2003   -0.1371    1.0106 N   0  0  0  0  0  0
    2.3244    1.0823    1.8055 C   0  0  0  0  0  0
    2.6560    2.2264    0.8584 C   0  0  0  0  0  0
    1.5856    2.7775    0.1435 N   0  0  0  0  0  0
    1.0436   -1.4371   -0.6111 C   0  0  0  0  0  0
    3.8186    2.6385    0.7615 O   0  0  0  0  0  0
    1.4109   -2.6958   -0.1174 C   0  0  0  0  0  0
    1.2985   -3.8224   -0.9359 C   0  0  0  0  0  0
    0.8177   -3.6972   -2.2407 C   0  0  0  0  0  0
    0.4465   -2.4449   -2.7310 C   0  0  0  0  0  0
    0.5578   -1.3215   -1.9152 C   0  0  0  0  0  0
   -3.9455    0.4667   -0.0272 Cl  0  0  0  0  0  0
    0.2189   -0.1269   -2.4237 F   0  0  0  0  0  0
    1.8370    4.0565   -0.5532 C   0  0  0  0  0  0
    1.8593    5.2788    0.3956 C   0  0  0  0  0  0
    2.9963    5.2223    1.2789 O   0  0  0  0  0  0
    1.9246    6.5930   -0.3945 C   0  0  0  0  0  0
    3.1315    6.6418   -1.1644 O   0  0  0  0  0  0
   -2.9892    3.1383   -0.3454 H   0  0  0  0  0  0
   -1.4410   -0.7992    0.3132 H   0  0  0  0  0  0
   -0.7643    4.0652   -0.2799 H   0  0  0  0  0  0
    3.1597    0.9643    2.5045 H   0  0  0  0  0  0
    1.4392    1.2980    2.4142 H   0  0  0  0  0  0
    1.7733   -2.8152    0.9014 H   0  0  0  0  0  0
    1.5832   -4.8018   -0.5539 H   0  0  0  0  0  0
    0.7318   -4.5775   -2.8756 H   0  0  0  0  0  0
    0.0748   -2.3402   -3.7467 H   0  0  0  0  0  0
    1.0988    4.1852   -1.3532 H   0  0  0  0  0  0
    2.8109    3.9739   -1.0519 H   0  0  0  0  0  0
    0.9714    5.2889    1.0345 H   0  0  0  0  0  0
    3.7767    5.3433    0.6947 H   0  0  0  0  0  0
    1.9428    7.4445    0.2935 H   0  0  0  0  0  0
    1.0700    6.6907   -1.0711 H   0  0  0  0  0  0
    3.1167    7.5109   -1.6205 H   0  0  0  0  0  0
  1  2  2  0  0  0
  1  6  1  0  0  0
  1 26  1  0  0  0
  2  3  1  0  0  0
  2 19  1  0  0  0
  3  4  2  0  0  0
  3 27  1  0  0  0
  4  5  1  0  0  0
  4  7  1  0  0  0
  5  6  2  0  0  0
  5 11  1  0  0  0
  6 28  1  0  0  0
  7  8  2  0  0  0
  7 12  1  0  0  0
  8  9  1  0  0  0
  9 10  1  0  0  0
  9 29  1  0  0  0
  9 30  1  0  0  0
 10 11  1  0  0  0
 10 13  2  0  0  0
 11 21  1  0  0  0
 12 14  2  0  0  0
 12 18  1  0  0  0
 14 15  1  0  0  0
 14 31  1  0  0  0
 15 16  2  0  0  0
 15 32  1  0  0  0
 16 17  1  0  0  0
 16 33  1  0  0  0
 17 18  2  0  0  0
 17 34  1  0  0  0
 18 20  1  0  0  0
 21 22  1  0  0  0
 21 35  1  0  0  0
 21 36  1  0  0  0
 22 23  1  0  0  0
 22 24  1  0  0  0
 22 37  1  0  0  0
 23 38  1  0  0  0
 24 25  1  0  0  0
 24 39  1  0  0  0
 24 40  1  0  0  0
 25 41  1  0  0  0
M  END
>  <Name>
Ro10-3580

>  <Family>
A.1

>  <IC50_uM>
0.140000

>  <set>
1

$$$$
Ro07-9238
  Cerius2 12180215283D 1   1.00000                          
Structure written by Cerius2 SD Exporter
 42 44  0  0  0  0  0  0  0  0999 V2000
   -2.0466    2.5371   -0.1545 C   0  0  0  0  0  0
   -2.2771    1.1629   -0.0590 C   0  0  0  0  0  0
   -1.1963    0.2776   -0.0053 C   0  0  0  0  0  0
    0.1165    0.7623    0.0824 C   0  0  0  0  0  0
    0.3469    2.1592    0.0516 C   0  0  0  0  0  0
   -0.7375    3.0298   -0.1299 C   0  0  0  0  0  0
    1.1593   -0.1787    0.1472 C   0  0  0  0  0  0
    2.2134    0.0104    0.9592 N   0  0  0  0  0  0
    2.2661    1.1093    1.7133 C   0  0  0  0  0  0
    2.5699    2.1506    0.8441 C   0  0  0  0  0  0
    1.5929    2.6964    0.0870 N   0  0  0  0  0  0
    1.0678   -1.3559   -0.6064 C   0  0  0  0  0  0
    3.7629    2.6660    0.8472 O   0  0  0  0  0  0
   -3.8700    0.5678    0.0047 Cl  0  0  0  0  0  0
    0.4305   -1.3314   -1.8528 C   0  0  0  0  0  0
    0.3509   -2.4976   -2.6230 C   0  0  0  0  0  0
    0.8989   -3.6922   -2.1417 C   0  0  0  0  0  0
    1.5456   -3.7151   -0.8999 C   0  0  0  0  0  0
    1.6493   -2.5416   -0.1418 C   0  0  0  0  0  0
    1.8223    3.8366   -0.6132 C   0  0  0  0  0  0
   -2.7788    3.1375   -0.2318 H   0  0  0  0  0  0
   -1.3540   -0.6593    0.0013 H   0  0  0  0  0  0
   -0.5833    3.9638   -0.2152 H   0  0  0  0  0  0
    2.9317    1.0232    2.3855 H   0  0  0  0  0  0
    1.4167    1.2662    2.1092 H   0  0  0  0  0  0
    0.0011   -0.2971   -2.2846 F   0  0  0  0  0  0
   -0.0726   -2.4776   -3.4732 H   0  0  0  0  0  0
    0.8358   -4.4864   -2.6594 H   0  0  0  0  0  0
    1.9190   -4.5256   -0.5739 H   0  0  0  0  0  0
    2.1014   -2.5537    0.6936 H   0  0  0  0  0  0
    1.7347    3.6213   -1.5341 H   0  0  0  0  0  0
    1.1582    4.4785   -0.3889 H   0  0  0  0  0  0
    3.0940    4.4088   -0.4292 C   0  0  0  0  0  0
    3.1888    5.4107   -1.2687 O   0  0  0  0  0  0
    4.6190    6.1444   -1.2426 P   0  3  0  0  0  0
    4.8046    6.9546    0.1243 O   0  5  0  0  0  0
    4.6952    7.1677   -2.4728 O   0  0  0  0  0  0
    5.7906    5.0653   -1.3905 O   0  0  0  0  0  0
    3.7619    3.7653   -0.6355 H   0  0  0  0  0  0
    3.1988    4.7042    0.4676 H   0  0  0  0  0  0
    5.4501    7.5583   -2.4705 H   0  0  0  0  0  0
    6.5427    5.4616   -1.3876 H   0  0  0  0  0  0
  1  2  2  0  0  0
  1  6  1  0  0  0
  1 21  1  0  0  0
  2  3  1  0  0  0
  2 14  1  0  0  0
  3  4  2  0  0  0
  3 22  1  0  0  0
  4  5  1  0  0  0
  4  7  1  0  0  0
  5  6  2  0  0  0
  5 11  1  0  0  0
  6 23  1  0  0  0
  7  8  2  0  0  0
  7 12  1  0  0  0
  8  9  1  0  0  0
  9 10  1  0  0  0
  9 24  1  0  0  0
  9 25  1  0  0  0
 10 11  1  0  0  0
 10 13  2  0  0  0
 11 20  1  0  0  0
 12 15  2  0  0  0
 12 19  1  0  0  0
 15 16  1  0  0  0
 15 26  1  0  0  0
 16 17  2  0  0  0
 16 27  1  0  0  0
 17 18  1  0  0  0
 17 28  1  0  0  0
 18 19  2  0  0  0
 18 29  1  0  0  0
 19 30  1  0  0  0
 20 31  1  0  0  0
 20 32  1  0  0  0
 33 20  1  0  0  0
 33 34  1  6  0  0
 33 39  1  0  0  0
 33 40  1  1  0  0
 34 35  1  0  0  0
 35 36  1  1  0  0
 35 37  1  6  0  0
 35 38  1  0  0  0
 37 41  1  0  0  0
 38 42  1  0  0  0
M  CHG  2  35   1  36  -1
M  END
>  <Name>
Ro07-9238

>  <Family>
A.1

>  <IC50_uM>
0.130000

>  <set>
1

$$$$
Ro22-4683
  Cerius2 12180215283D 1   1.00000                          
 Structure written by MMmdl.
 44 46  0  0  0  0  0  0  0  0999 V2000
   -2.1187    2.5410    0.0388 C   0  0  0  0  0  0
   -2.3644    1.1696    0.1304 C   0  0  0  0  0  0
   -1.2980    0.2674    0.1911 C   0  0  0  0  0  0
    0.0233    0.7478    0.1413 C   0  0  0  0  0  0
    0.2928    2.1265    0.0099 C   0  0  0  0  0  0
   -0.7996    3.0082   -0.0103 C   0  0  0  0  0  0
    1.1282   -0.2456    0.2568 C   0  0  0  0  0  0
    2.1415   -0.1120    1.0518 N   0  0  0  0  0  0
    2.1778    1.1176    1.8591 C   0  0  0  0  0  0
    2.5645    2.2786    0.9436 C   0  0  0  0  0  0
    1.6324    2.6473   -0.0488 N   0  0  0  0  0  0
    1.0668   -1.4508   -0.6109 C   0  0  0  0  0  0
    3.6538    2.8395    1.1089 O   0  0  0  0  0  0
    1.4444   -2.6794   -0.0490 C   0  0  0  0  0  0
    1.3918   -3.8423   -0.8180 C   0  0  0  0  0  0
    0.9633   -3.7832   -2.1434 C   0  0  0  0  0  0
    0.5877   -2.5606   -2.7050 C   0  0  0  0  0  0
    0.6366   -1.3897   -1.9422 C   0  0  0  0  0  0
    0.2128    0.0952   -2.7179 Cl  0  0  0  0  0  0
    2.0184    3.6447   -1.1231 C   0  0  0  0  0  0
    3.4076    3.2757   -1.7170 C   0  0  0  0  0  0
    1.0773    3.6490   -2.3605 C   0  0  0  0  0  0
    2.0864    5.0723   -0.5496 C   0  0  0  0  0  0
   -3.7469    0.6760    0.1863 N   0  3  0  0  0  0
   -3.9314   -0.5535    0.2581 O   0  0  0  0  0  0
   -4.6735    1.5077    0.1583 O   0  5  0  0  0  0
   -2.9321    3.2633    0.0162 H   0  0  0  0  0  0
   -1.4885   -0.7974    0.2994 H   0  0  0  0  0  0
   -0.6495    4.0849   -0.0307 H   0  0  0  0  0  0
    2.9610    1.0041    2.6171 H   0  0  0  0  0  0
    1.2476    1.3147    2.4030 H   0  0  0  0  0  0
    1.7683   -2.7425    0.9880 H   0  0  0  0  0  0
    1.6823   -4.7969   -0.3820 H   0  0  0  0  0  0
    0.9232   -4.6912   -2.7430 H   0  0  0  0  0  0
    0.2634   -2.5303   -3.7433 H   0  0  0  0  0  0
    3.6474    3.8946   -2.5899 H   0  0  0  0  0  0
    3.4284    2.2262   -2.0331 H   0  0  0  0  0  0
    4.2284    3.4281   -1.0118 H   0  0  0  0  0  0
    1.5058    4.2391   -3.1802 H   0  0  0  0  0  0
    0.1055    4.1047   -2.1582 H   0  0  0  0  0  0
    0.9136    2.6340   -2.7403 H   0  0  0  0  0  0
    2.3640    5.7959   -1.3245 H   0  0  0  0  0  0
    2.8256    5.1545    0.2535 H   0  0  0  0  0  0
    1.1239    5.3847   -0.1336 H   0  0  0  0  0  0
  1  2  2  0  0  0
  1  6  1  0  0  0
  1 27  1  0  0  0
  2  3  1  0  0  0
  2 24  1  0  0  0
  3  4  2  0  0  0
  3 28  1  0  0  0
  4  5  1  0  0  0
  4  7  1  0  0  0
  5  6  2  0  0  0
  5 11  1  0  0  0
  6 29  1  0  0  0
  7  8  2  0  0  0
  7 12  1  0  0  0
  8  9  1  0  0  0
  9 10  1  0  0  0
  9 30  1  0  0  0
  9 31  1  0  0  0
 10 11  1  0  0  0
 10 13  2  0  0  0
 11 20  1  0  0  0
 12 14  2  0  0  0
 12 18  1  0  0  0
 14 15  1  0  0  0
 14 32  1  0  0  0
 15 16  2  0  0  0
 15 33  1  0  0  0
 16 17  1  0  0  0
 16 34  1  0  0  0
 17 18  2  0  0  0
 17 35  1  0  0  0
 18 19  1  0  0  0
 20 21  1  0  0  0
 20 22  1  0  0  0
 20 23  1  0  0  0
 21 36  1  0  0  0
 21 37  1  0  0  0
 21 38  1  0  0  0
 22 39  1  0  0  0
 22 40  1  0  0  0
 22 41  1  0  0  0
 23 42  1  0  0  0
 23 43  1  0  0  0
 23 44  1  0  0  0
 24 25  2  0  0  0
 24 26  1  0  0  0
M  CHG  2  24   1  26  -1
M  END
>  <Name>
Ro22-4683

>  <Family>
A.1

>  <IC50_uM>
0.300000

>  <set>
2

$$$$
Ro07-5096
  Cerius2 12180215283D 1   1.00000                          
 Structure written by MMmdl.
 36 38  0  0  0  0  0  0  0  0999 V2000
   -2.1394    2.4812   -0.1608 C   0  0  0  0  0  0
   -2.3506    1.1216    0.0125 C   0  0  0  0  0  0
   -1.2689    0.2667    0.1855 C   0  0  0  0  0  0
    0.0459    0.7734    0.1872 C   0  0  0  0  0  0
    0.2823    2.1613    0.0586 C   0  0  0  0  0  0
   -0.8372    2.9930   -0.1395 C   0  0  0  0  0  0
    1.1500   -0.2362    0.2510 C   0  0  0  0  0  0
    2.2019   -0.1340    0.9967 N   0  0  0  0  0  0
    2.3188    1.0776    1.8073 C   0  0  0  0  0  0
    2.6426    2.2408    0.8808 C   0  0  0  0  0  0
    1.5908    2.7490    0.1148 N   0  0  0  0  0  0
    1.0443   -1.4415   -0.6207 C   0  0  0  0  0  0
    3.7816    2.7237    0.8525 O   0  0  0  0  0  0
    1.4199   -2.6989   -0.1299 C   0  0  0  0  0  0
    1.3082   -3.8256   -0.9486 C   0  0  0  0  0  0
    0.8199   -3.7018   -2.2507 C   0  0  0  0  0  0
    0.4404   -2.4509   -2.7382 C   0  0  0  0  0  0
    0.5511   -1.3275   -1.9224 C   0  0  0  0  0  0
    0.2041   -0.1343   -2.4284 F   0  0  0  0  0  0
   -3.9513    0.4919    0.0013 Cl  0  0  0  0  0  0
    1.8637    3.9891   -0.6314 C   0  0  0  0  0  0
    1.9044    5.2591    0.2174 C   0  0  0  0  0  0
    1.7297    5.2973    1.4307 O   0  0  0  0  0  0
    2.1588    6.3920   -0.4743 O   0  0  0  0  0  0
   -2.9786    3.1595   -0.3000 H   0  0  0  0  0  0
   -1.4530   -0.7980    0.3124 H   0  0  0  0  0  0
   -0.7375    4.0709   -0.2411 H   0  0  0  0  0  0
    3.1545    0.9527    2.5045 H   0  0  0  0  0  0
    1.4316    1.2793    2.4178 H   0  0  0  0  0  0
    1.7883   -2.8177    0.8868 H   0  0  0  0  0  0
    1.5993   -4.8038   -0.5687 H   0  0  0  0  0  0
    0.7346   -4.5820   -2.8858 H   0  0  0  0  0  0
    0.0627   -2.3472   -3.7517 H   0  0  0  0  0  0
    1.1273    4.1155   -1.4317 H   0  0  0  0  0  0
    2.8478    3.8974   -1.1059 H   0  0  0  0  0  0
    2.1576    7.1218    0.1900 H   0  0  0  0  0  0
  1  2  2  0  0  0
  1  6  1  0  0  0
  1 25  1  0  0  0
  2  3  1  0  0  0
  2 20  1  0  0  0
  3  4  2  0  0  0
  3 26  1  0  0  0
  4  5  1  0  0  0
  4  7  1  0  0  0
  5  6  2  0  0  0
  5 11  1  0  0  0
  6 27  1  0  0  0
  7  8  2  0  0  0
  7 12  1  0  0  0
  8  9  1  0  0  0
  9 10  1  0  0  0
  9 28  1  0  0  0
  9 29  1  0  0  0
 10 11  1  0  0  0
 10 13  2  0  0  0
 11 21  1  0  0  0
 12 14  2  0  0  0
 12 18  1  0  0  0
 14 15  1  0  0  0
 14 30  1  0  0  0
 15 16  2  0  0  0
 15 31  1  0  0  0
 16 17  1  0  0  0
 16 32  1  0  0  0
 17 18  2  0  0  0
 17 33  1  0  0  0
 18 19  1  0  0  0
 21 22  1  0  0  0
 21 34  1  0  0  0
 21 35  1  0  0  0
 22 23  2  0  0  0
 22 24  1  0  0  0
 24 36  1  0  0  0
M  END
>  <Name>
Ro07-5096

>  <Family>
A.1

>  <IC50_uM>
>1

>  <set>
1

$$$$
Ro05-3663
  Cerius2 12180215283D 1   1.00000                          
 Structure written by MMmdl.
 23 24  0  0  0  0  0  0  0  0999 V2000
   -2.0866    2.5813   -0.2578 C   0  0  0  0  0  0
   -2.3354    1.2271   -0.0623 C   0  0  0  0  0  0
   -1.2754    0.3566    0.1924 C   0  0  0  0  0  0
    0.0423    0.8386    0.2724 C   0  0  0  0  0  0
    0.2865    2.2138    0.1346 C   0  0  0  0  0  0
   -0.7822    3.0702   -0.1683 C   0  0  0  0  0  0
    1.1476   -0.1556    0.3633 C   0  0  0  0  0  0
    2.2255   -0.0396    1.0578 N   0  0  0  0  0  0
    2.4172    1.1547    1.8715 C   0  0  0  0  0  0
    2.6118    2.3808    0.9991 C   0  0  0  0  0  0
    1.5470    2.8175    0.2571 N   0  0  0  0  0  0
    3.6475    3.0479    1.0126 O   0  0  0  0  0  0
   -2.9083    3.2614   -0.4709 H   0  0  0  0  0  0
   -1.4907   -0.7025    0.3166 H   0  0  0  0  0  0
   -0.6162    4.1366   -0.3055 H   0  0  0  0  0  0
    3.3232    1.0217    2.4729 H   0  0  0  0  0  0
    1.5935    1.3143    2.5769 H   0  0  0  0  0  0
   -3.3518    0.8453   -0.1256 H   0  0  0  0  0  0
    1.0077   -1.4302   -0.4455 C   0  0  0  0  0  0
    1.6845    3.7502   -0.1118 H   0  0  0  0  0  0
    1.9894   -1.7348   -0.8224 H   0  0  0  0  0  0
    0.6155   -2.2246    0.1960 H   0  0  0  0  0  0
    0.3474   -1.2910   -1.3054 H   0  0  0  0  0  0
  1  2  2  0  0  0
  1  6  1  0  0  0
  1 13  1  0  0  0
  2  3  1  0  0  0
  2 18  1  0  0  0
  3  4  2  0  0  0
  3 14  1  0  0  0
  4  5  1  0  0  0
  4  7  1  0  0  0
  5  6  2  0  0  0
  5 11  1  0  0  0
  6 15  1  0  0  0
  7  8  2  0  0  0
  7 19  1  0  0  0
  8  9  1  0  0  0
  9 10  1  0  0  0
  9 16  1  0  0  0
  9 17  1  0  0  0
 10 11  1  0  0  0
 10 12  2  0  0  0
 11 20  1  0  0  0
 19 21  1  0  0  0
 19 22  1  0  0  0
 19 23  1  0  0  0
M  END
>  <Name>
Ro05-3663

>  <Family>
A.1

>  <IC50_uM>
>1

>  <set>
1

$$$$
Desmethyltetrazepam
  Cerius2 12180215283D 1   1.00000                          
 Structure written by MMmdl.
 34 36  0  0  0  0  0  0  0  0999 V2000
   -2.1115    2.5189   -0.1810 C   0  0  0  0  0  0
   -2.3548    1.1627    0.0024 C   0  0  0  0  0  0
   -1.2971    0.2787    0.2006 C   0  0  0  0  0  0
    0.0278    0.7517    0.2249 C   0  0  0  0  0  0
    0.2730    2.1321    0.1122 C   0  0  0  0  0  0
   -0.8015    2.9997   -0.1321 C   0  0  0  0  0  0
    1.1361   -0.2562    0.2478 C   0  0  0  0  0  0
    2.2357   -0.1627    0.9243 N   0  0  0  0  0  0
    2.4255    1.0235    1.7569 C   0  0  0  0  0  0
    2.6347    2.2484    0.8801 C   0  0  0  0  0  0
    1.5398    2.7335    0.2135 N   0  0  0  0  0  0
    0.9544   -1.4785   -0.6097 C   0  0  0  0  0  0
    3.7200    2.8356    0.8171 O   0  0  0  0  0  0
   -3.9694    0.5687   -0.0426 Cl  0  0  0  0  0  0
    0.5618   -1.3465   -1.8903 C   0  0  0  0  0  0
    0.3541   -2.5169   -2.8082 C   0  0  0  0  0  0
    0.3340   -3.8602   -2.0773 C   0  0  0  0  0  0
    1.4367   -3.9314   -1.0263 C   0  0  0  0  0  0
    1.2924   -2.8105    0.0078 C   0  0  0  0  0  0
   -2.9318    3.2126   -0.3510 H   0  0  0  0  0  0
   -1.5065   -0.7824    0.3143 H   0  0  0  0  0  0
   -0.6351    4.0693   -0.2529 H   0  0  0  0  0  0
    3.3272    0.8822    2.3629 H   0  0  0  0  0  0
    1.5974    1.1806    2.4575 H   0  0  0  0  0  0
    1.6550    3.6668   -0.1726 H   0  0  0  0  0  0
    0.3832   -0.3653   -2.3258 H   0  0  0  0  0  0
    1.1563   -2.5148   -3.5558 H   0  0  0  0  0  0
   -0.5903   -2.3910   -3.3497 H   0  0  0  0  0  0
    0.4488   -4.6754   -2.8006 H   0  0  0  0  0  0
   -0.6404   -4.0003   -1.5918 H   0  0  0  0  0  0
    2.4144   -3.8526   -1.5190 H   0  0  0  0  0  0
    1.4127   -4.9035   -0.5208 H   0  0  0  0  0  0
    0.4953   -3.0725    0.7150 H   0  0  0  0  0  0
    2.2237   -2.7524    0.5824 H   0  0  0  0  0  0
  1  2  2  0  0  0
  1  6  1  0  0  0
  1 20  1  0  0  0
  2  3  1  0  0  0
  2 14  1  0  0  0
  3  4  2  0  0  0
  3 21  1  0  0  0
  4  5  1  0  0  0
  4  7  1  0  0  0
  5  6  2  0  0  0
  5 11  1  0  0  0
  6 22  1  0  0  0
  7  8  2  0  0  0
  7 12  1  0  0  0
  8  9  1  0  0  0
  9 10  1  0  0  0
  9 23  1  0  0  0
  9 24  1  0  0  0
 10 11  1  0  0  0
 10 13  2  0  0  0
 11 25  1  0  0  0
 12 15  2  0  0  0
 12 19  1  0  0  0
 15 16  1  0  0  0
 15 26  1  0  0  0
 16 17  1  0  0  0
 16 27  1  0  0  0
 16 28  1  0  0  0
 17 18  1  0  0  0
 17 29  1  0  0  0
 17 30  1  0  0  0
 18 19  1  0  0  0
 18 31  1  0  0  0
 18 32  1  0  0  0
 19 33  1  0  0  0
 19 34  1  0  0  0
M  END
>  <Name>
Desmethyltetrazepam

>  <Family>
A.1

>  <IC50_uM>
0.034000

>  <set>
2

$$$$
Tetrazepam
  Cerius2 12180215283D 1   1.00000                          
 Structure written by MMmdl.
 37 39  0  0  0  0  0  0  0  0999 V2000
   -2.1350    2.5010   -0.1525 C   0  0  0  0  0  0
   -2.3553    1.1431    0.0277 C   0  0  0  0  0  0
   -1.2796    0.2793    0.1942 C   0  0  0  0  0  0
    0.0394    0.7746    0.1797 C   0  0  0  0  0  0
    0.2836    2.1593    0.0512 C   0  0  0  0  0  0
   -0.8287    3.0017   -0.1425 C   0  0  0  0  0  0
    1.1421   -0.2349    0.2379 C   0  0  0  0  0  0
    2.1901   -0.1452    0.9928 N   0  0  0  0  0  0
    2.3089    1.0678    1.8018 C   0  0  0  0  0  0
    2.6398    2.2344    0.8794 C   0  0  0  0  0  0
    1.5940    2.7413    0.1037 N   0  0  0  0  0  0
    1.0094   -1.4447   -0.6470 C   0  0  0  0  0  0
    3.7783    2.7194    0.8700 O   0  0  0  0  0  0
   -3.9611    0.5260    0.0314 Cl  0  0  0  0  0  0
    0.5518   -1.3146   -1.9063 C   0  0  0  0  0  0
    0.3823   -2.4767   -2.8426 C   0  0  0  0  0  0
    0.4810   -3.8332   -2.1439 C   0  0  0  0  0  0
    1.6326   -3.8533   -1.1449 C   0  0  0  0  0  0
    1.4638   -2.7655   -0.0795 C   0  0  0  0  0  0
    1.8353    3.9825   -0.6292 C   0  0  0  0  0  0
   -2.9695    3.1855   -0.2884 H   0  0  0  0  0  0
   -1.4674   -0.7844    0.3228 H   0  0  0  0  0  0
   -0.7126    4.0784   -0.2509 H   0  0  0  0  0  0
    3.1425    0.9393    2.5012 H   0  0  0  0  0  0
    1.4215    1.2716    2.4114 H   0  0  0  0  0  0
    0.2871   -0.3406   -2.3131 H   0  0  0  0  0  0
    1.1498   -2.4054   -3.6225 H   0  0  0  0  0  0
   -0.5907   -2.4022   -3.3414 H   0  0  0  0  0  0
    0.6149   -4.6240   -2.8905 H   0  0  0  0  0  0
   -0.4592   -4.0464   -1.6192 H   0  0  0  0  0  0
    2.5795   -3.7006   -1.6784 H   0  0  0  0  0  0
    1.6947   -4.8349   -0.6616 H   0  0  0  0  0  0
    0.7210   -3.0950    0.6578 H   0  0  0  0  0  0
    2.4165   -2.6584    0.4513 H   0  0  0  0  0  0
    2.9034    4.1307   -0.8146 H   0  0  0  0  0  0
    1.4763    4.8254   -0.0306 H   0  0  0  0  0  0
    1.3301    3.9554   -1.5999 H   0  0  0  0  0  0
  1  2  2  0  0  0
  1  6  1  0  0  0
  1 21  1  0  0  0
  2  3  1  0  0  0
  2 14  1  0  0  0
  3  4  2  0  0  0
  3 22  1  0  0  0
  4  5  1  0  0  0
  4  7  1  0  0  0
  5  6  2  0  0  0
  5 11  1  0  0  0
  6 23  1  0  0  0
  7  8  2  0  0  0
  7 12  1  0  0  0
  8  9  1  0  0  0
  9 10  1  0  0  0
  9 24  1  0  0  0
  9 25  1  0  0  0
 10 11  1  0  0  0
 10 13  2  0  0  0
 11 20  1  0  0  0
 12 15  2  0  0  0
 12 19  1  0  0  0
 15 16  1  0  0  0
 15 26  1  0  0  0
 16 17  1  0  0  0
 16 27  1  0  0  0
 16 28  1  0  0  0
 17 18  1  0  0  0
 17 29  1  0  0  0
 17 30  1  0  0  0
 18 19  1  0  0  0
 18 31  1  0  0  0
 18 32  1  0  0  0
 19 33  1  0  0  0
 19 34  1  0  0  0
 20 35  1  0  0  0
 20 36  1  0  0  0
 20 37  1  0  0  0
M  END
>  <Name>
Tetrazepam

>  <Family>
A.1

>  <IC50_uM>
0.034000

>  <set>
2

$$$$
Ro05-3328
  Cerius2 12180215283D 1   1.00000                          
 Structure written by MMmdl.
 36 38  0  0  0  0  0  0  0  0999 V2000
   -2.1057    2.5191   -0.2027 C   0  0  0  0  0  0
   -2.3588    1.1705    0.0184 C   0  0  0  0  0  0
   -1.3075    0.2815    0.2358 C   0  0  0  0  0  0
    0.0192    0.7423    0.2456 C   0  0  0  0  0  0
    0.2746    2.1186    0.0976 C   0  0  0  0  0  0
   -0.7923    2.9894   -0.1681 C   0  0  0  0  0  0
    1.1287   -0.2705    0.2646 C   0  0  0  0  0  0
    2.2190   -0.1568    0.9477 N   0  0  0  0  0  0
    2.4055    1.0317    1.7748 C   0  0  0  0  0  0
    2.6288    2.2443    0.8850 C   0  0  0  0  0  0
    1.5443    2.7150    0.1905 N   0  0  0  0  0  0
    0.9695   -1.5244   -0.6394 C   0  0  0  0  0  0
    3.7137    2.8326    0.8316 O   0  0  0  0  0  0
   -3.9793    0.5903   -0.0034 Cl  0  0  0  0  0  0
    2.2321   -2.3889   -0.4798 C   0  0  0  0  0  0
    2.3420   -3.4749   -1.5467 C   0  0  0  0  0  0
    2.2998   -2.8791   -2.9480 C   0  0  0  0  0  0
    1.0406   -2.0493   -3.1624 C   0  0  0  0  0  0
    0.8591   -0.9845   -2.0790 C   0  0  0  0  0  0
   -2.9208    3.2148   -0.3884 H   0  0  0  0  0  0
   -1.5353   -0.7698    0.3863 H   0  0  0  0  0  0
   -0.6169    4.0542   -0.3154 H   0  0  0  0  0  0
    3.3011    0.8918    2.3899 H   0  0  0  0  0  0
    1.5715    1.1998    2.4656 H   0  0  0  0  0  0
    1.6668    3.6397   -0.2134 H   0  0  0  0  0  0
    0.0737   -2.0481   -0.2860 H   0  0  0  0  0  0
    2.2772   -2.8570    0.5092 H   0  0  0  0  0  0
    3.1133   -1.7375   -0.5498 H   0  0  0  0  0  0
    1.5278   -4.1997   -1.4263 H   0  0  0  0  0  0
    3.2802   -4.0251   -1.4123 H   0  0  0  0  0  0
    2.3439   -3.6818   -3.6927 H   0  0  0  0  0  0
    3.1841   -2.2493   -3.1052 H   0  0  0  0  0  0
    0.1709   -2.7149   -3.1876 H   0  0  0  0  0  0
    1.0861   -1.5638   -4.1442 H   0  0  0  0  0  0
    1.6384   -0.2231   -2.2189 H   0  0  0  0  0  0
   -0.0983   -0.4710   -2.2276 H   0  0  0  0  0  0
  1  2  2  0  0  0
  1  6  1  0  0  0
  1 20  1  0  0  0
  2  3  1  0  0  0
  2 14  1  0  0  0
  3  4  2  0  0  0
  3 21  1  0  0  0
  4  5  1  0  0  0
  4  7  1  0  0  0
  5  6  2  0  0  0
  5 11  1  0  0  0
  6 22  1  0  0  0
  7  8  2  0  0  0
  7 12  1  0  0  0
  8  9  1  0  0  0
  9 10  1  0  0  0
  9 23  1  0  0  0
  9 24  1  0  0  0
 10 11  1  0  0  0
 10 13  2  0  0  0
 11 25  1  0  0  0
 12 15  1  0  0  0
 12 19  1  0  0  0
 12 26  1  0  0  0
 15 16  1  0  0  0
 15 27  1  0  0  0
 15 28  1  0  0  0
 16 17  1  0  0  0
 16 29  1  0  0  0
 16 30  1  0  0  0
 17 18  1  0  0  0
 17 31  1  0  0  0
 17 32  1  0  0  0
 18 19  1  0  0  0
 18 33  1  0  0  0
 18 34  1  0  0  0
 19 35  1  0  0  0
 19 36  1  0  0  0
M  END
>  <Name>
Ro05-3328

>  <Family>
A.1

>  <IC50_uM>
0.087000

>  <set>
1

$$$$
Bromazepam
  Cerius2 12180215283D 1   1.00000                          
 Structure written by MMmdl.
 29 31  0  0  0  0  0  0  0  0999 V2000
   -2.0995    2.5006   -0.2151 C   0  0  0  0  0  0
   -2.3360    1.1423   -0.0354 C   0  0  0  0  0  0
   -1.2745    0.2625    0.1672 C   0  0  0  0  0  0
    0.0468    0.7443    0.2002 C   0  0  0  0  0  0
    0.2843    2.1264    0.0980 C   0  0  0  0  0  0
   -0.7926    2.9884   -0.1534 C   0  0  0  0  0  0
    1.1624   -0.2578    0.2168 C   0  0  0  0  0  0
    2.2460   -0.1573    0.9215 N   0  0  0  0  0  0
    2.4057    1.0178    1.7759 C   0  0  0  0  0  0
    2.6269    2.2547    0.9178 C   0  0  0  0  0  0
    1.5455    2.7342    0.2242 N   0  0  0  0  0  0
    1.0286   -1.4636   -0.6740 C   0  0  0  0  0  0
    3.7076    2.8527    0.8895 O   0  0  0  0  0  0
   -4.1060    0.4811   -0.0971 Br  0  0  0  0  0  0
    1.4241   -2.7241   -0.2391 C   0  0  0  0  0  0
    1.2646   -3.7989   -1.1090 C   0  0  0  0  0  0
    0.7137   -3.5842   -2.3683 C   0  0  0  0  0  0
    0.3356   -2.2968   -2.7132 C   0  0  0  0  0  0
    0.4756   -1.2280   -1.8952 N   0  0  0  0  0  0
   -2.9203    3.1930   -0.3893 H   0  0  0  0  0  0
   -1.4773   -0.8003    0.2821 H   0  0  0  0  0  0
   -0.6313    4.0595   -0.2674 H   0  0  0  0  0  0
    3.2939    0.8755    2.4012 H   0  0  0  0  0  0
    1.5597    1.1596    2.4581 H   0  0  0  0  0  0
    1.6623    3.6712   -0.1522 H   0  0  0  0  0  0
    1.8357   -2.8840    0.7520 H   0  0  0  0  0  0
    1.5635   -4.7998   -0.8050 H   0  0  0  0  0  0
    0.5767   -4.4049   -3.0661 H   0  0  0  0  0  0
   -0.1033   -2.0923   -3.6875 H   0  0  0  0  0  0
  1  2  2  0  0  0
  1  6  1  0  0  0
  1 20  1  0  0  0
  2  3  1  0  0  0
  2 14  1  0  0  0
  3  4  2  0  0  0
  3 21  1  0  0  0
  4  5  1  0  0  0
  4  7  1  0  0  0
  5  6  2  0  0  0
  5 11  1  0  0  0
  6 22  1  0  0  0
  7  8  2  0  0  0
  7 12  1  0  0  0
  8  9  1  0  0  0
  9 10  1  0  0  0
  9 23  1  0  0  0
  9 24  1  0  0  0
 10 11  1  0  0  0
 10 13  2  0  0  0
 11 25  1  0  0  0
 12 15  2  0  0  0
 12 19  1  0  0  0
 15 16  1  0  0  0
 15 26  1  0  0  0
 16 17  2  0  0  0
 16 27  1  0  0  0
 17 18  1  0  0  0
 17 28  1  0  0  0
 18 19  2  0  0  0
 18 29  1  0  0  0
M  END
>  <Name>
Bromazepam

>  <Family>
A.1

>  <IC50_uM>
0.018000

>  <set>
1

$$$$
Ro05-5605
  Cerius2 12180215283D 1   1.00000                          
 Structure written by MMmdl.
 36 39  0  0  0  0  0  0  0  0999 V2000
   -2.1050    2.4576   -0.2134 C   0  0  0  0  0  0
   -2.3188    1.0943   -0.0508 C   0  0  0  0  0  0
   -1.2442    0.2335    0.1618 C   0  0  0  0  0  0
    0.0675    0.7376    0.2287 C   0  0  0  0  0  0
    0.2827    2.1241    0.1250 C   0  0  0  0  0  0
   -0.8080    2.9679   -0.1331 C   0  0  0  0  0  0
    1.1962   -0.2482    0.2630 C   0  0  0  0  0  0
    2.3020   -0.1224    0.9210 N   0  0  0  0  0  0
    2.4682    1.0604    1.7629 C   0  0  0  0  0  0
    2.6415    2.2972    0.8982 C   0  0  0  0  0  0
    1.5331    2.7571    0.2371 N   0  0  0  0  0  0
    1.0567   -1.4740   -0.5812 C   0  0  0  0  0  0
    3.7093    2.9162    0.8405 O   0  0  0  0  0  0
   -3.9173    0.4624   -0.1387 Cl  0  0  0  0  0  0
    1.5217   -2.6771   -0.0307 C   0  0  0  0  0  0
    1.4184   -3.8556   -0.7599 C   0  0  0  0  0  0
    0.8513   -3.8359   -2.0339 C   0  0  0  0  0  0
    0.3792   -2.6402   -2.6015 C   0  0  0  0  0  0
    0.4741   -1.4268   -1.8753 C   0  0  0  0  0  0
   -0.1820   -2.6428   -3.8893 C   0  0  0  0  0  0
   -0.6457   -1.4647   -4.4735 C   0  0  0  0  0  0
   -0.5539   -0.2663   -3.7780 C   0  0  0  0  0  0
   -0.0002   -0.2463   -2.4962 C   0  0  0  0  0  0
   -2.9377    3.1334   -0.3945 H   0  0  0  0  0  0
   -1.4363   -0.8322    0.2600 H   0  0  0  0  0  0
   -0.6646    4.0419   -0.2445 H   0  0  0  0  0  0
    3.3758    0.9352    2.3634 H   0  0  0  0  0  0
    1.6396    1.1907    2.4685 H   0  0  0  0  0  0
    1.6249    3.6955   -0.1426 H   0  0  0  0  0  0
    1.9559   -2.7023    0.9668 H   0  0  0  0  0  0
    1.7763   -4.7928   -0.3377 H   0  0  0  0  0  0
    0.7814   -4.7728   -2.5870 H   0  0  0  0  0  0
   -0.2607   -3.5714   -4.4547 H   0  0  0  0  0  0
   -1.0767   -1.4853   -5.4728 H   0  0  0  0  0  0
   -0.9125    0.6567   -4.2302 H   0  0  0  0  0  0
    0.0565    0.7119   -1.9811 H   0  0  0  0  0  0
  1  2  2  0  0  0
  1  6  1  0  0  0
  1 24  1  0  0  0
  2  3  1  0  0  0
  2 14  1  0  0  0
  3  4  2  0  0  0
  3 25  1  0  0  0
  4  5  1  0  0  0
  4  7  1  0  0  0
  5  6  2  0  0  0
  5 11  1  0  0  0
  6 26  1  0  0  0
  7  8  2  0  0  0
  7 12  1  0  0  0
  8  9  1  0  0  0
  9 10  1  0  0  0
  9 27  1  0  0  0
  9 28  1  0  0  0
 10 11  1  0  0  0
 10 13  2  0  0  0
 11 29  1  0  0  0
 12 15  2  0  0  0
 12 19  1  0  0  0
 15 16  1  0  0  0
 15 30  1  0  0  0
 16 17  2  0  0  0
 16 31  1  0  0  0
 17 18  1  0  0  0
 17 32  1  0  0  0
 18 19  2  0  0  0
 18 20  1  0  0  0
 19 23  1  0  0  0
 20 21  2  0  0  0
 20 33  1  0  0  0
 21 22  1  0  0  0
 21 34  1  0  0  0
 22 23  2  0  0  0
 22 35  1  0  0  0
 23 36  1  0  0  0
M  END
>  <Name>
Ro05-5605

>  <Family>
A.1

>  <IC50_uM>
0.290000

>  <set>
0

$$$$
Ro05-3580
  Cerius2 12180215283D 1   1.00000                          
 Structure written by MMmdl.
 33 35  0  0  0  0  0  0  0  0999 V2000
   -2.1080    2.5180   -0.2099 C   0  0  0  0  0  0
   -2.3607    1.1701    0.0148 C   0  0  0  0  0  0
   -1.3100    0.2835    0.2429 C   0  0  0  0  0  0
    0.0163    0.7456    0.2538 C   0  0  0  0  0  0
    0.2719    2.1206    0.1049 C   0  0  0  0  0  0
   -0.7947    2.9892   -0.1679 C   0  0  0  0  0  0
    1.1228   -0.2626    0.2750 C   0  0  0  0  0  0
    2.2263   -0.1646    0.9445 N   0  0  0  0  0  0
    2.4190    1.0258    1.7706 C   0  0  0  0  0  0
    2.6318    2.2431    0.8819 C   0  0  0  0  0  0
    1.5411    2.7181    0.2006 N   0  0  0  0  0  0
    3.7151    2.8331    0.8221 O   0  0  0  0  0  0
   -3.9806    0.5881   -0.0158 Cl  0  0  0  0  0  0
    0.9836   -1.4870   -0.6355 C   0  0  0  0  0  0
    1.9170   -1.4060   -1.8225 C   0  0  0  0  0  0
    3.2460   -1.8375   -1.7073 C   0  0  0  0  0  0
    4.1184   -1.7403   -2.7921 C   0  0  0  0  0  0
    3.6735   -1.2046   -3.9987 C   0  0  0  0  0  0
    2.3565   -0.7654   -4.1225 C   0  0  0  0  0  0
    1.4811   -0.8649   -3.0397 C   0  0  0  0  0  0
   -2.9220    3.2128   -0.4033 H   0  0  0  0  0  0
   -1.5368   -0.7673    0.4005 H   0  0  0  0  0  0
   -0.6189    4.0535   -0.3187 H   0  0  0  0  0  0
    3.3219    0.8865    2.3747 H   0  0  0  0  0  0
    1.5926    1.1906    2.4707 H   0  0  0  0  0  0
    1.6611    3.6445   -0.1992 H   0  0  0  0  0  0
   -0.0459   -1.6248   -0.9772 H   0  0  0  0  0  0
    1.2140   -2.3883   -0.0520 H   0  0  0  0  0  0
    3.6095   -2.2503   -0.7665 H   0  0  0  0  0  0
    5.1483   -2.0794   -2.6939 H   0  0  0  0  0  0
    4.3551   -1.1257   -4.8436 H   0  0  0  0  0  0
    2.0115   -0.3415   -5.0641 H   0  0  0  0  0  0
    0.4567   -0.5145   -3.1556 H   0  0  0  0  0  0
  1  2  2  0  0  0
  1  6  1  0  0  0
  1 21  1  0  0  0
  2  3  1  0  0  0
  2 13  1  0  0  0
  3  4  2  0  0  0
  3 22  1  0  0  0
  4  5  1  0  0  0
  4  7  1  0  0  0
  5  6  2  0  0  0
  5 11  1  0  0  0
  6 23  1  0  0  0
  7  8  2  0  0  0
  7 14  1  0  0  0
  8  9  1  0  0  0
  9 10  1  0  0  0
  9 24  1  0  0  0
  9 25  1  0  0  0
 10 11  1  0  0  0
 10 12  2  0  0  0
 11 26  1  0  0  0
 14 15  1  0  0  0
 14 27  1  0  0  0
 14 28  1  0  0  0
 15 16  2  0  0  0
 15 20  1  0  0  0
 16 17  1  0  0  0
 16 29  1  0  0  0
 17 18  2  0  0  0
 17 30  1  0  0  0
 18 19  1  0  0  0
 18 31  1  0  0  0
 19 20  2  0  0  0
 19 32  1  0  0  0
 20 33  1  0  0  0
M  END
>  <Name>
Ro05-3580

>  <Family>
A.1

>  <IC50_uM>
>1

>  <set>
2

$$$$
Ro11-4878
  Cerius2 12180215283D 1   1.00000                          
 Structure written by MMmdl.
 33 35  0  0  0  0  0  0  0  0999 V2000
   -2.1068    2.5039   -0.1802 C   0  0  0  0  0  0
   -2.3386    1.1439   -0.0082 C   0  0  0  0  0  0
   -1.2738    0.2670    0.1854 C   0  0  0  0  0  0
    0.0453    0.7536    0.2157 C   0  0  0  0  0  0
    0.2797    2.1360    0.1172 C   0  0  0  0  0  0
   -0.8012    2.9962   -0.1231 C   0  0  0  0  0  0
    1.1617   -0.2436    0.2251 C   0  0  0  0  0  0
    2.2475   -0.1440    0.9200 N   0  0  0  0  0  0
    2.4259    1.0275    1.7828 C   0  0  0  0  0  0
    2.6371    2.2718    0.9083 C   0  0  0  0  0  0
    1.5409    2.7452    0.2307 N   0  0  0  0  0  0
    1.0372   -1.4541   -0.6416 C   0  0  0  0  0  0
    3.7068    2.8868    0.8480 O   0  0  0  0  0  0
   -3.9480    0.5366   -0.0623 Cl  0  0  0  0  0  0
    1.4729   -2.6922   -0.1535 C   0  0  0  0  0  0
    1.3687   -3.8328   -0.9539 C   0  0  0  0  0  0
    0.8415   -3.7390   -2.2431 C   0  0  0  0  0  0
    0.4230   -2.5036   -2.7383 C   0  0  0  0  0  0
    0.5269   -1.3677   -1.9394 C   0  0  0  0  0  0
    0.1451   -0.1884   -2.4527 F   0  0  0  0  0  0
    3.6405    0.7606    2.6660 C   0  0  0  0  0  0
   -2.9328    3.1918   -0.3467 H   0  0  0  0  0  0
   -1.4754   -0.7962    0.2933 H   0  0  0  0  0  0
   -0.6439    4.0682   -0.2337 H   0  0  0  0  0  0
    1.5610    1.1806    2.4403 H   0  0  0  0  0  0
    1.6508    3.6818   -0.1489 H   0  0  0  0  0  0
    1.8864   -2.7759    0.8496 H   0  0  0  0  0  0
    1.7011   -4.7965   -0.5713 H   0  0  0  0  0  0
    0.7630   -4.6294   -2.8650 H   0  0  0  0  0  0
    0.0226   -2.4217   -3.7451 H   0  0  0  0  0  0
    3.8382    1.6113    3.3268 H   0  0  0  0  0  0
    4.5413    0.5850    2.0666 H   0  0  0  0  0  0
    3.4795   -0.1264    3.2882 H   0  0  0  0  0  0
  1  2  2  0  0  0
  1  6  1  0  0  0
  1 22  1  0  0  0
  2  3  1  0  0  0
  2 14  1  0  0  0
  3  4  2  0  0  0
  3 23  1  0  0  0
  4  5  1  0  0  0
  4  7  1  0  0  0
  5  6  2  0  0  0
  5 11  1  0  0  0
  6 24  1  0  0  0
  7  8  2  0  0  0
  7 12  1  0  0  0
  8  9  1  0  0  0
  9 10  1  0  0  0
  9 21  1  0  0  0
  9 25  1  0  0  0
 10 11  1  0  0  0
 10 13  2  0  0  0
 11 26  1  0  0  0
 12 15  2  0  0  0
 12 19  1  0  0  0
 15 16  1  0  0  0
 15 27  1  0  0  0
 16 17  2  0  0  0
 16 28  1  0  0  0
 17 18  1  0  0  0
 17 29  1  0  0  0
 18 19  2  0  0  0
 18 30  1  0  0  0
 19 20  1  0  0  0
 21 31  1  0  0  0
 21 32  1  0  0  0
 21 33  1  0  0  0
M  END
>  <Name>
Ro11-4878

>  <Family>
A.1

>  <IC50_uM>
0.003500

>  <set>
2

$$$$
Meclonazepam
  Cerius2 12180215283D 1   1.00000                          
 Structure written by MMmdl.
 35 37  0  0  0  0  0  0  0  0999 V2000
   -2.0997    2.4797   -0.2555 C   0  0  0  0  0  0
   -2.3298    1.1119   -0.0926 C   0  0  0  0  0  0
   -1.2593    0.2365    0.1322 C   0  0  0  0  0  0
    0.0560    0.7340    0.2116 C   0  0  0  0  0  0
    0.2840    2.1187    0.1096 C   0  0  0  0  0  0
   -0.7960    2.9735   -0.1613 C   0  0  0  0  0  0
    1.1803   -0.2545    0.2568 C   0  0  0  0  0  0
    2.2758   -0.1332    0.9298 N   0  0  0  0  0  0
    2.4422    1.0398    1.7906 C   0  0  0  0  0  0
    2.6380    2.2842    0.9170 C   0  0  0  0  0  0
    1.5380    2.7412    0.2358 N   0  0  0  0  0  0
    1.0548   -1.4722   -0.5928 C   0  0  0  0  0  0
    3.6982    2.9158    0.8607 O   0  0  0  0  0  0
    1.5058   -2.6904   -0.0643 C   0  0  0  0  0  0
    1.3972   -3.8584   -0.8197 C   0  0  0  0  0  0
    0.8385   -3.8140   -2.0966 C   0  0  0  0  0  0
    0.3874   -2.6013   -2.6235 C   0  0  0  0  0  0
    0.4917   -1.4258   -1.8745 C   0  0  0  0  0  0
   -0.0373    0.0485   -2.6047 Cl  0  0  0  0  0  0
   -3.6994    0.5870   -0.1787 N   0  3  0  0  0  0
   -4.6292    1.3903   -0.3822 O   0  0  0  0  0  0
   -3.8708   -0.6391   -0.0433 O   0  5  0  0  0  0
    3.6591    0.7862    2.6746 C   0  0  0  0  0  0
   -2.9139    3.1754   -0.4461 H   0  0  0  0  0  0
   -1.4464   -0.8299    0.2334 H   0  0  0  0  0  0
   -0.6388    4.0461   -0.2717 H   0  0  0  0  0  0
    1.5754    1.1846    2.4477 H   0  0  0  0  0  0
    1.6407    3.6775   -0.1466 H   0  0  0  0  0  0
    1.9325   -2.7392    0.9355 H   0  0  0  0  0  0
    1.7458   -4.8054   -0.4107 H   0  0  0  0  0  0
    0.7548   -4.7262   -2.6853 H   0  0  0  0  0  0
   -0.0399   -2.5827   -3.6241 H   0  0  0  0  0  0
    3.8471    1.6389    3.3356 H   0  0  0  0  0  0
    4.5620    0.6206    2.0757 H   0  0  0  0  0  0
    3.5074   -0.1026    3.2965 H   0  0  0  0  0  0
  1  2  2  0  0  0
  1  6  1  0  0  0
  1 24  1  0  0  0
  2  3  1  0  0  0
  2 20  1  0  0  0
  3  4  2  0  0  0
  3 25  1  0  0  0
  4  5  1  0  0  0
  4  7  1  0  0  0
  5  6  2  0  0  0
  5 11  1  0  0  0
  6 26  1  0  0  0
  7  8  2  0  0  0
  7 12  1  0  0  0
  8  9  1  0  0  0
  9 10  1  0  0  0
  9 23  1  0  0  0
  9 27  1  0  0  0
 10 11  1  0  0  0
 10 13  2  0  0  0
 11 28  1  0  0  0
 12 14  2  0  0  0
 12 18  1  0  0  0
 14 15  1  0  0  0
 14 29  1  0  0  0
 15 16  2  0  0  0
 15 30  1  0  0  0
 16 17  1  0  0  0
 16 31  1  0  0  0
 17 18  2  0  0  0
 17 32  1  0  0  0
 18 19  1  0  0  0
 20 21  2  0  0  0
 20 22  1  0  0  0
 23 33  1  0  0  0
 23 34  1  0  0  0
 23 35  1  0  0  0
M  CHG  2  20   1  22  -1
M  END
>  <Name>
Meclonazepam

>  <Family>
A.1

>  <IC50_uM>
0.001200

>  <set>
1

$$$$
Ro11-6896
  Cerius2 12180215283D 1   1.00000                          
 Structure written by MMmdl.
 38 40  0  0  0  0  0  0  0  0999 V2000
   -2.1361    2.5178   -0.1450 C   0  0  0  0  0  0
   -2.3650    1.1547    0.0399 C   0  0  0  0  0  0
   -1.2877    0.2791    0.2033 C   0  0  0  0  0  0
    0.0325    0.7736    0.1818 C   0  0  0  0  0  0
    0.2838    2.1566    0.0490 C   0  0  0  0  0  0
   -0.8238    3.0067   -0.1417 C   0  0  0  0  0  0
    1.1337   -0.2364    0.2345 C   0  0  0  0  0  0
    2.1724   -0.1442    0.9998 N   0  0  0  0  0  0
    2.2968    1.0630    1.8249 C   0  0  0  0  0  0
    2.6413    2.2352    0.8888 C   0  0  0  0  0  0
    1.5977    2.7294    0.0956 N   0  0  0  0  0  0
    1.0418   -1.4420   -0.6425 C   0  0  0  0  0  0
    3.7716    2.7385    0.8732 O   0  0  0  0  0  0
    1.4914   -2.6769   -0.1583 C   0  0  0  0  0  0
    1.4188   -3.8129   -0.9687 C   0  0  0  0  0  0
    0.9089   -3.7184   -2.2646 C   0  0  0  0  0  0
    0.4759   -2.4869   -2.7560 C   0  0  0  0  0  0
    0.5482   -1.3556   -1.9470 C   0  0  0  0  0  0
    0.1532   -0.1797   -2.4582 F   0  0  0  0  0  0
   -3.7397    0.6379    0.0528 N   0  3  0  0  0  0
   -3.9060   -0.5933    0.1384 O   0  0  0  0  0  0
   -4.6785    1.4529   -0.0222 O   0  5  0  0  0  0
    1.8458    3.9586   -0.6560 C   0  0  0  0  0  0
    3.4112    0.8095    2.8359 C   0  0  0  0  0  0
   -2.9572    3.2188   -0.2801 H   0  0  0  0  0  0
   -1.4666   -0.7850    0.3418 H   0  0  0  0  0  0
   -0.6985    4.0824   -0.2521 H   0  0  0  0  0  0
    1.3825    1.2810    2.3897 H   0  0  0  0  0  0
    1.8917   -2.7626    0.8500 H   0  0  0  0  0  0
    1.7623   -4.7738   -0.5884 H   0  0  0  0  0  0
    0.8551   -4.6051   -2.8943 H   0  0  0  0  0  0
    0.0887   -2.4038   -3.7679 H   0  0  0  0  0  0
    2.9130    4.0882   -0.8597 H   0  0  0  0  0  0
    1.5083    4.8135   -0.0618 H   0  0  0  0  0  0
    1.3262    3.9285   -1.6190 H   0  0  0  0  0  0
    3.5802    1.6931    3.4603 H   0  0  0  0  0  0
    4.3570    0.5628    2.3397 H   0  0  0  0  0  0
    3.1544   -0.0298    3.4913 H   0  0  0  0  0  0
  1  2  2  0  0  0
  1  6  1  0  0  0
  1 25  1  0  0  0
  2  3  1  0  0  0
  2 20  1  0  0  0
  3  4  2  0  0  0
  3 26  1  0  0  0
  4  5  1  0  0  0
  4  7  1  0  0  0
  5  6  2  0  0  0
  5 11  1  0  0  0
  6 27  1  0  0  0
  7  8  2  0  0  0
  7 12  1  0  0  0
  8  9  1  0  0  0
  9 10  1  0  0  0
  9 24  1  0  0  0
  9 28  1  0  0  0
 10 11  1  0  0  0
 10 13  2  0  0  0
 11 23  1  0  0  0
 12 14  2  0  0  0
 12 18  1  0  0  0
 14 15  1  0  0  0
 14 29  1  0  0  0
 15 16  2  0  0  0
 15 30  1  0  0  0
 16 17  1  0  0  0
 16 31  1  0  0  0
 17 18  2  0  0  0
 17 32  1  0  0  0
 18 19  1  0  0  0
 20 21  2  0  0  0
 20 22  1  0  0  0
 23 33  1  0  0  0
 23 34  1  0  0  0
 23 35  1  0  0  0
 24 36  1  0  0  0
 24 37  1  0  0  0
 24 38  1  0  0  0
M  CHG  2  20   1  22  -1
M  END
>  <Name>
Ro11-6896

>  <Family>
A.1

>  <IC50_uM>
0.007000

>  <set>
2

$$$$
Ro07-4532
  Cerius2 12180215283D 1   1.00000                          
 Structure written by MMmdl.
 39 41  0  0  0  0  0  0  0  0999 V2000
   -2.1363    2.5060   -0.1417 C   0  0  0  0  0  0
   -2.3560    1.1452   -0.0009 C   0  0  0  0  0  0
   -1.2783    0.2811    0.1482 C   0  0  0  0  0  0
    0.0427    0.7768    0.1529 C   0  0  0  0  0  0
    0.2872    2.1588    0.0634 C   0  0  0  0  0  0
   -0.8296    3.0041   -0.1095 C   0  0  0  0  0  0
    1.1314   -0.2337    0.2199 C   0  0  0  0  0  0
    2.1700   -0.1516    0.9742 N   0  0  0  0  0  0
    2.4599    1.0186    1.8086 C   0  0  0  0  0  0
    2.6607    2.2579    0.8937 C   0  0  0  0  0  0
    1.5896    2.7483    0.1417 N   0  0  0  0  0  0
    1.0270   -1.4541   -0.6458 C   0  0  0  0  0  0
    3.7600    2.8348    0.8653 O   0  0  0  0  0  0
    0.5240   -1.3717   -1.9507 C   0  0  0  0  0  0
    0.4459   -2.5204   -2.7411 C   0  0  0  0  0  0
    0.8768   -3.7476   -2.2369 C   0  0  0  0  0  0
    1.3927   -3.8304   -0.9438 C   0  0  0  0  0  0
    1.4735   -2.6852   -0.1494 C   0  0  0  0  0  0
   -3.9603    0.5258   -0.0182 Cl  0  0  0  0  0  0
    1.8048    4.0105   -0.5723 C   0  0  0  0  0  0
    3.8143    0.6792    2.4762 C   0  0  0  0  0  0
    1.4531    1.2197    2.9452 C   0  0  0  0  0  0
   -2.9697    3.1947   -0.2607 H   0  0  0  0  0  0
   -1.4685   -0.7847    0.2572 H   0  0  0  0  0  0
   -0.7171    4.0844   -0.1813 H   0  0  0  0  0  0
    0.2008   -0.4219   -2.3707 H   0  0  0  0  0  0
    0.0527   -2.4571   -3.7543 H   0  0  0  0  0  0
    0.8153   -4.6413   -2.8560 H   0  0  0  0  0  0
    1.7341   -4.7877   -0.5540 H   0  0  0  0  0  0
    1.8784   -2.7601    0.8580 H   0  0  0  0  0  0
    2.8639    4.1662   -0.7992 H   0  0  0  0  0  0
    1.4689    4.8380    0.0605 H   0  0  0  0  0  0
    1.2670    4.0090   -1.5260 H   0  0  0  0  0  0
    4.1610    1.4960    3.1198 H   0  0  0  0  0  0
    4.5932    0.4936    1.7263 H   0  0  0  0  0  0
    3.7373   -0.2263    3.0900 H   0  0  0  0  0  0
    1.7906    2.0154    3.6199 H   0  0  0  0  0  0
    1.3399    0.3024    3.5345 H   0  0  0  0  0  0
    0.4540    1.5089    2.6176 H   0  0  0  0  0  0
  1  2  2  0  0  0
  1  6  1  0  0  0
  1 23  1  0  0  0
  2  3  1  0  0  0
  2 19  1  0  0  0
  3  4  2  0  0  0
  3 24  1  0  0  0
  4  5  1  0  0  0
  4  7  1  0  0  0
  5  6  2  0  0  0
  5 11  1  0  0  0
  6 25  1  0  0  0
  7  8  2  0  0  0
  7 12  1  0  0  0
  8  9  1  0  0  0
  9 10  1  0  0  0
  9 21  1  0  0  0
  9 22  1  0  0  0
 10 11  1  0  0  0
 10 13  2  0  0  0
 11 20  1  0  0  0
 12 14  2  0  0  0
 12 18  1  0  0  0
 14 15  1  0  0  0
 14 26  1  0  0  0
 15 16  2  0  0  0
 15 27  1  0  0  0
 16 17  1  0  0  0
 16 28  1  0  0  0
 17 18  2  0  0  0
 17 29  1  0  0  0
 18 30  1  0  0  0
 20 31  1  0  0  0
 20 32  1  0  0  0
 20 33  1  0  0  0
 21 34  1  0  0  0
 21 35  1  0  0  0
 21 36  1  0  0  0
 22 37  1  0  0  0
 22 38  1  0  0  0
 22 39  1  0  0  0
M  END
>  <Name>
Ro07-4532

>  <Family>
A.1

>  <IC50_uM>
>1

>  <set>
2

$$$$
Ro06-7263
  Cerius2 12180215283D 1   1.00000                          
 Structure written by MMmdl.
 33 35  0  0  0  0  0  0  0  0999 V2000
   -2.1415    2.5057   -0.1474 C   0  0  0  0  0  0
   -2.3624    1.1472    0.0257 C   0  0  0  0  0  0
   -1.2864    0.2828    0.1908 C   0  0  0  0  0  0
    0.0324    0.7786    0.1817 C   0  0  0  0  0  0
    0.2788    2.1623    0.0617 C   0  0  0  0  0  0
   -0.8349    3.0057   -0.1306 C   0  0  0  0  0  0
    1.1321   -0.2329    0.2369 C   0  0  0  0  0  0
    2.1745   -0.1365    0.9961 N   0  0  0  0  0  0
    2.3096    1.0693    1.8192 C   0  0  0  0  0  0
    2.6547    2.2342    0.8804 C   0  0  0  0  0  0
    1.5862    2.7358    0.1296 N   0  0  0  0  0  0
    1.0386   -1.4434   -0.6417 C   0  0  0  0  0  0
    3.7983    2.7097    0.8350 O   0  0  0  0  0  0
    1.4886   -2.6770   -0.1551 C   0  0  0  0  0  0
    1.4187   -3.8149   -0.9612 C   0  0  0  0  0  0
    0.9100   -3.7223   -2.2563 C   0  0  0  0  0  0
    0.4753   -2.4924   -2.7506 C   0  0  0  0  0  0
    0.5424   -1.3512   -1.9484 C   0  0  0  0  0  0
   -3.9683    0.5306    0.0239 Cl  0  0  0  0  0  0
    1.9021    4.1945   -0.7273 Cl  0  0  0  0  0  0
    3.4287    0.8111    2.8236 C   0  0  0  0  0  0
   -2.9754    3.1913   -0.2810 H   0  0  0  0  0  0
   -1.4756   -0.7812    0.3166 H   0  0  0  0  0  0
   -0.7184    4.0836   -0.2283 H   0  0  0  0  0  0
    1.3997    1.2916    2.3896 H   0  0  0  0  0  0
    1.8879   -2.7607    0.8537 H   0  0  0  0  0  0
    1.7629   -4.7742   -0.5787 H   0  0  0  0  0  0
    0.8570   -4.6101   -2.8846 H   0  0  0  0  0  0
    0.0876   -2.4212   -3.7655 H   0  0  0  0  0  0
    0.2162   -0.3997   -2.3625 H   0  0  0  0  0  0
    3.6084    1.6956    3.4437 H   0  0  0  0  0  0
    4.3694    0.5552    2.3225 H   0  0  0  0  0  0
    3.1698   -0.0239    3.4836 H   0  0  0  0  0  0
  1  2  2  0  0  0
  1  6  1  0  0  0
  1 22  1  0  0  0
  2  3  1  0  0  0
  2 19  1  0  0  0
  3  4  2  0  0  0
  3 23  1  0  0  0
  4  5  1  0  0  0
  4  7  1  0  0  0
  5  6  2  0  0  0
  5 11  1  0  0  0
  6 24  1  0  0  0
  7  8  2  0  0  0
  7 12  1  0  0  0
  8  9  1  0  0  0
  9 10  1  0  0  0
  9 21  1  0  0  0
  9 25  1  0  0  0
 10 11  1  0  0  0
 10 13  2  0  0  0
 11 20  1  0  0  0
 12 14  2  0  0  0
 12 18  1  0  0  0
 14 15  1  0  0  0
 14 26  1  0  0  0
 15 16  2  0  0  0
 15 27  1  0  0  0
 16 17  1  0  0  0
 16 28  1  0  0  0
 17 18  2  0  0  0
 17 29  1  0  0  0
 18 30  1  0  0  0
 21 31  1  0  0  0
 21 32  1  0  0  0
 21 33  1  0  0  0
M  END
>  <Name>
Ro06-7263

>  <Family>
A.1

>  <IC50_uM>
0.049000

>  <set>
1

$$$$
Oxazepam
  Cerius2 12180215283D 1   1.00000                          
 Structure written by MMmdl.
 31 33  0  0  0  0  0  0  0  0999 V2000
   -2.1084    2.5057   -0.1874 C   0  0  0  0  0  0
   -2.3422    1.1478   -0.0005 C   0  0  0  0  0  0
   -1.2780    0.2713    0.1979 C   0  0  0  0  0  0
    0.0416    0.7555    0.2195 C   0  0  0  0  0  0
    0.2777    2.1368    0.1060 C   0  0  0  0  0  0
   -0.8018    2.9964   -0.1402 C   0  0  0  0  0  0
    1.1568   -0.2446    0.2399 C   0  0  0  0  0  0
    2.2377   -0.1471    0.9430 N   0  0  0  0  0  0
    2.4105    1.0156    1.8003 C   0  0  0  0  0  0
    2.6319    2.2635    0.8947 C   0  0  0  0  0  0
    1.5408    2.7428    0.2119 N   0  0  0  0  0  0
    1.0373   -1.4541   -0.6376 C   0  0  0  0  0  0
    3.7141    2.8599    0.8292 O   0  0  0  0  0  0
    1.4756   -2.6936   -0.1552 C   0  0  0  0  0  0
    1.3811   -3.8299   -0.9608 C   0  0  0  0  0  0
    0.8595   -3.7298   -2.2505 C   0  0  0  0  0  0
    0.4368   -2.4939   -2.7402 C   0  0  0  0  0  0
    0.5286   -1.3539   -1.9387 C   0  0  0  0  0  0
   -3.9530    0.5432   -0.0420 Cl  0  0  0  0  0  0
    3.5074    0.8397    2.6917 O   0  0  0  0  0  0
   -2.9338    3.1931   -0.3580 H   0  0  0  0  0  0
   -1.4794   -0.7913    0.3149 H   0  0  0  0  0  0
   -0.6429    4.0671   -0.2623 H   0  0  0  0  0  0
    1.5352    1.1852    2.4376 H   0  0  0  0  0  0
    1.6571    3.6745   -0.1773 H   0  0  0  0  0  0
    1.8847   -2.7824    0.8492 H   0  0  0  0  0  0
    1.7161   -4.7941   -0.5823 H   0  0  0  0  0  0
    0.7875   -4.6167   -2.8781 H   0  0  0  0  0  0
    0.0392   -2.4170   -3.7508 H   0  0  0  0  0  0
    0.2120   -0.3969   -2.3474 H   0  0  0  0  0  0
    4.2308    0.5541    2.0975 H   0  0  0  0  0  0
  1  2  2  0  0  0
  1  6  1  0  0  0
  1 21  1  0  0  0
  2  3  1  0  0  0
  2 19  1  0  0  0
  3  4  2  0  0  0
  3 22  1  0  0  0
  4  5  1  0  0  0
  4  7  1  0  0  0
  5  6  2  0  0  0
  5 11  1  0  0  0
  6 23  1  0  0  0
  7  8  2  0  0  0
  7 12  1  0  0  0
  8  9  1  0  0  0
  9 10  1  0  0  0
  9 20  1  0  0  0
  9 24  1  0  0  0
 10 11  1  0  0  0
 10 13  2  0  0  0
 11 25  1  0  0  0
 12 14  2  0  0  0
 12 18  1  0  0  0
 14 15  1  0  0  0
 14 26  1  0  0  0
 15 16  2  0  0  0
 15 27  1  0  0  0
 16 17  1  0  0  0
 16 28  1  0  0  0
 17 18  2  0  0  0
 17 29  1  0  0  0
 18 30  1  0  0  0
 20 31  1  0  0  0
M  END
>  <Name>
Oxazepam

>  <Family>
A.1

>  <IC50_uM>
0.018000

>  <set>
1

$$$$
Temazepam
  Cerius2 12180215283D 1   1.00000                          
 Structure written by MMmdl.
 34 36  0  0  0  0  0  0  0  0999 V2000
   -2.1353    2.5069   -0.1532 C   0  0  0  0  0  0
   -2.3598    1.1512    0.0400 C   0  0  0  0  0  0
   -1.2862    0.2847    0.2096 C   0  0  0  0  0  0
    0.0327    0.7770    0.1858 C   0  0  0  0  0  0
    0.2816    2.1589    0.0450 C   0  0  0  0  0  0
   -0.8275    3.0036   -0.1525 C   0  0  0  0  0  0
    1.1318   -0.2354    0.2468 C   0  0  0  0  0  0
    2.1680   -0.1453    1.0160 N   0  0  0  0  0  0
    2.2896    1.0503    1.8384 C   0  0  0  0  0  0
    2.6377    2.2288    0.8759 C   0  0  0  0  0  0
    1.5943    2.7331    0.0904 N   0  0  0  0  0  0
    1.0416   -1.4410   -0.6392 C   0  0  0  0  0  0
    3.7780    2.7142    0.8543 O   0  0  0  0  0  0
    1.4918   -2.6773   -0.1591 C   0  0  0  0  0  0
    1.4246   -3.8104   -0.9720 C   0  0  0  0  0  0
    0.9180   -3.7108   -2.2675 C   0  0  0  0  0  0
    0.4827   -2.4786   -2.7551 C   0  0  0  0  0  0
    0.5472   -1.3420   -1.9460 C   0  0  0  0  0  0
   -3.9679    0.5404    0.0559 Cl  0  0  0  0  0  0
    3.2994    0.8912    2.8306 O   0  0  0  0  0  0
    1.8427    3.9647   -0.6559 C   0  0  0  0  0  0
   -2.9681    3.1929   -0.2921 H   0  0  0  0  0  0
   -1.4771   -0.7771    0.3491 H   0  0  0  0  0  0
   -0.7077    4.0789   -0.2710 H   0  0  0  0  0  0
    1.3710    1.2783    2.3897 H   0  0  0  0  0  0
    1.8891   -2.7674    0.8500 H   0  0  0  0  0  0
    1.7690   -4.7716   -0.5945 H   0  0  0  0  0  0
    0.8672   -4.5949   -2.9010 H   0  0  0  0  0  0
    0.0965   -2.4017   -3.7702 H   0  0  0  0  0  0
    0.2207   -0.3886   -2.3553 H   0  0  0  0  0  0
    4.0682    0.5736    2.3144 H   0  0  0  0  0  0
    2.9110    4.1022   -0.8477 H   0  0  0  0  0  0
    1.4930    4.8164   -0.0642 H   0  0  0  0  0  0
    1.3329    3.9323   -1.6241 H   0  0  0  0  0  0
  1  2  2  0  0  0
  1  6  1  0  0  0
  1 22  1  0  0  0
  2  3  1  0  0  0
  2 19  1  0  0  0
  3  4  2  0  0  0
  3 23  1  0  0  0
  4  5  1  0  0  0
  4  7  1  0  0  0
  5  6  2  0  0  0
  5 11  1  0  0  0
  6 24  1  0  0  0
  7  8  2  0  0  0
  7 12  1  0  0  0
  8  9  1  0  0  0
  9 10  1  0  0  0
  9 20  1  0  0  0
  9 25  1  0  0  0
 10 11  1  0  0  0
 10 13  2  0  0  0
 11 21  1  0  0  0
 12 14  2  0  0  0
 12 18  1  0  0  0
 14 15  1  0  0  0
 14 26  1  0  0  0
 15 16  2  0  0  0
 15 27  1  0  0  0
 16 17  1  0  0  0
 16 28  1  0  0  0
 17 18  2  0  0  0
 17 29  1  0  0  0
 18 30  1  0  0  0
 20 31  1  0  0  0
 21 32  1  0  0  0
 21 33  1  0  0  0
 21 34  1  0  0  0
M  END
>  <Name>
Temazepam

>  <Family>
A.1

>  <IC50_uM>
0.016000

>  <set>
1

$$$$
Lorazepam
  Cerius2 12180215283D 1   1.00000                          
 Structure written by MMmdl.
 31 33  0  0  0  0  0  0  0  0999 V2000
   -2.1158    2.5034   -0.1467 C   0  0  0  0  0  0
   -2.3335    1.1355   -0.0320 C   0  0  0  0  0  0
   -1.2608    0.2634    0.1396 C   0  0  0  0  0  0
    0.0525    0.7616    0.2094 C   0  0  0  0  0  0
    0.2723    2.1502    0.1565 C   0  0  0  0  0  0
   -0.8166    3.0068   -0.0596 C   0  0  0  0  0  0
    1.1786   -0.2260    0.1941 C   0  0  0  0  0  0
    2.2736   -0.1414    0.8756 N   0  0  0  0  0  0
    2.4532    0.9915    1.7703 C   0  0  0  0  0  0
    2.6395    2.2760    0.9133 C   0  0  0  0  0  0
    1.5280    2.7692    0.2773 N   0  0  0  0  0  0
    1.0392   -1.4306   -0.6774 C   0  0  0  0  0  0
    3.7127    2.8887    0.8498 O   0  0  0  0  0  0
    1.4760   -2.6561   -0.1525 C   0  0  0  0  0  0
    1.3586   -3.8226   -0.9087 C   0  0  0  0  0  0
    0.8156   -3.7692   -2.1913 C   0  0  0  0  0  0
    0.3970   -2.5481   -2.7247 C   0  0  0  0  0  0
    0.5112   -1.3738   -1.9743 C   0  0  0  0  0  0
   -3.9350    0.5129   -0.1292 Cl  0  0  0  0  0  0
    3.5703    0.7949    2.6317 O   0  0  0  0  0  0
    0.0278    0.1060   -2.7241 Cl  0  0  0  0  0  0
   -2.9478    3.1881   -0.2956 H   0  0  0  0  0  0
   -1.4553   -0.8046    0.2019 H   0  0  0  0  0  0
   -0.6700    4.0836   -0.1332 H   0  0  0  0  0  0
    1.5896    1.1254    2.4318 H   0  0  0  0  0  0
    1.6260    3.7177   -0.0743 H   0  0  0  0  0  0
    1.9002   -2.7070    0.8487 H   0  0  0  0  0  0
    1.6914   -4.7741   -0.4969 H   0  0  0  0  0  0
    0.7250   -4.6794   -2.7820 H   0  0  0  0  0  0
   -0.0109   -2.5217   -3.7333 H   0  0  0  0  0  0
    4.2837    0.5380    2.0128 H   0  0  0  0  0  0
  1  2  2  0  0  0
  1  6  1  0  0  0
  1 22  1  0  0  0
  2  3  1  0  0  0
  2 19  1  0  0  0
  3  4  2  0  0  0
  3 23  1  0  0  0
  4  5  1  0  0  0
  4  7  1  0  0  0
  5  6  2  0  0  0
  5 11  1  0  0  0
  6 24  1  0  0  0
  7  8  2  0  0  0
  7 12  1  0  0  0
  8  9  1  0  0  0
  9 10  1  0  0  0
  9 20  1  0  0  0
  9 25  1  0  0  0
 10 11  1  0  0  0
 10 13  2  0  0  0
 11 26  1  0  0  0
 12 14  2  0  0  0
 12 18  1  0  0  0
 14 15  1  0  0  0
 14 27  1  0  0  0
 15 16  2  0  0  0
 15 28  1  0  0  0
 16 17  1  0  0  0
 16 29  1  0  0  0
 17 18  2  0  0  0
 17 30  1  0  0  0
 18 21  1  0  0  0
 20 31  1  0  0  0
M  END
>  <Name>
Lorazepam

>  <Family>
A.1

>  <IC50_uM>
0.003500

>  <set>
1

$$$$
Oxazepam-hemisuccinate
  Cerius2 12180215283D 1   1.00000                          
 Structure written by MMmdl.
 42 44  0  0  0  0  0  0  0  0999 V2000
   -2.0986    2.5178   -0.1817 C   0  0  0  0  0  0
   -2.3443    1.1616    0.0059 C   0  0  0  0  0  0
   -1.2869    0.2769    0.2032 C   0  0  0  0  0  0
    0.0358    0.7524    0.2179 C   0  0  0  0  0  0
    0.2836    2.1303    0.0971 C   0  0  0  0  0  0
   -0.7881    2.9994   -0.1451 C   0  0  0  0  0  0
    1.1449   -0.2499    0.2388 C   0  0  0  0  0  0
    2.2174   -0.1536    0.9473 N   0  0  0  0  0  0
    2.4163    1.0120    1.8130 C   0  0  0  0  0  0
    2.6309    2.2535    0.9020 C   0  0  0  0  0  0
    1.5534    2.7157    0.1850 N   0  0  0  0  0  0
    1.0310   -1.4586   -0.6400 C   0  0  0  0  0  0
    3.6875    2.8893    0.8482 O   0  0  0  0  0  0
    0.4970   -1.3688   -1.9315 C   0  0  0  0  0  0
    0.4160   -2.5096   -2.7330 C   0  0  0  0  0  0
    0.8764   -3.7357   -2.2540 C   0  0  0  0  0  0
    1.4254   -3.8247   -0.9754 C   0  0  0  0  0  0
    1.5084   -2.6880   -0.1703 C   0  0  0  0  0  0
   -3.9595    0.5715   -0.0377 Cl  0  0  0  0  0  0
    3.5429    0.8604    2.6856 O   0  0  0  0  0  0
    3.6026    1.7709    3.6888 C   0  0  0  0  0  0
    2.7359    2.5947    3.9511 O   0  0  0  0  0  0
    4.8712    1.6050    4.4762 C   0  0  0  0  0  0
    4.5459    1.1393    5.8855 C   0  0  0  0  0  0
    5.7884    0.6982    6.6016 C   0  0  0  0  0  0
    6.9428    0.8935    6.2647 O   0  0  0  0  0  0
    5.5077    0.0249    7.7329 O   0  0  0  0  0  0
   -2.9208    3.2098   -0.3457 H   0  0  0  0  0  0
   -1.4951   -0.7843    0.3238 H   0  0  0  0  0  0
   -0.6234    4.0676   -0.2748 H   0  0  0  0  0  0
    1.5234    1.1585    2.4353 H   0  0  0  0  0  0
    1.6988    3.6520   -0.1736 H   0  0  0  0  0  0
    0.1594   -0.4192   -2.3376 H   0  0  0  0  0  0
    0.0061   -2.4396   -3.7368 H   0  0  0  0  0  0
    0.8215   -4.6208   -2.8826 H   0  0  0  0  0  0
    1.7985   -4.7775   -0.6079 H   0  0  0  0  0  0
    1.9509   -2.7631    0.8207 H   0  0  0  0  0  0
    5.4056    2.5616    4.4797 H   0  0  0  0  0  0
    5.5245    0.8859    3.9671 H   0  0  0  0  0  0
    3.8515    0.2914    5.8459 H   0  0  0  0  0  0
    4.0762    1.9455    6.4594 H   0  0  0  0  0  0
    6.3877   -0.2082    8.0975 H   0  0  0  0  0  0
  1  2  2  0  0  0
  1  6  1  0  0  0
  1 28  1  0  0  0
  2  3  1  0  0  0
  2 19  1  0  0  0
  3  4  2  0  0  0
  3 29  1  0  0  0
  4  5  1  0  0  0
  4  7  1  0  0  0
  5  6  2  0  0  0
  5 11  1  0  0  0
  6 30  1  0  0  0
  7  8  2  0  0  0
  7 12  1  0  0  0
  8  9  1  0  0  0
  9 10  1  0  0  0
  9 20  1  0  0  0
  9 31  1  0  0  0
 10 11  1  0  0  0
 10 13  2  0  0  0
 11 32  1  0  0  0
 12 14  2  0  0  0
 12 18  1  0  0  0
 14 15  1  0  0  0
 14 33  1  0  0  0
 15 16  2  0  0  0
 15 34  1  0  0  0
 16 17  1  0  0  0
 16 35  1  0  0  0
 17 18  2  0  0  0
 17 36  1  0  0  0
 18 37  1  0  0  0
 20 21  1  0  0  0
 21 22  2  0  0  0
 21 23  1  0  0  0
 23 24  1  0  0  0
 23 38  1  0  0  0
 23 39  1  0  0  0
 24 25  1  0  0  0
 24 40  1  0  0  0
 24 41  1  0  0  0
 25 26  2  0  0  0
 25 27  1  0  0  0
 27 42  1  0  0  0
M  END
>  <Name>
Oxazepam-hemisuccinate

>  <Family>
A.1

>  <IC50_uM>
0.330000

>  <set>
2

$$$$
Camazepam
  Cerius2 12180215283D 1   1.00000                          
 Structure written by MMmdl.
 44 46  0  0  0  0  0  0  0  0999 V2000
   -2.1311    2.4999   -0.1385 C   0  0  0  0  0  0
   -2.3470    1.1389    0.0259 C   0  0  0  0  0  0
   -1.2681    0.2750    0.1709 C   0  0  0  0  0  0
    0.0472    0.7757    0.1565 C   0  0  0  0  0  0
    0.2868    2.1621    0.0403 C   0  0  0  0  0  0
   -0.8269    3.0046   -0.1360 C   0  0  0  0  0  0
    1.1508   -0.2297    0.2218 C   0  0  0  0  0  0
    2.1837   -0.1358    0.9943 N   0  0  0  0  0  0
    2.2837    1.0556    1.8395 C   0  0  0  0  0  0
    2.6374    2.2369    0.8902 C   0  0  0  0  0  0
    1.5951    2.7440    0.1004 N   0  0  0  0  0  0
    1.0575   -1.4403   -0.6523 C   0  0  0  0  0  0
    3.7703    2.7402    0.8769 O   0  0  0  0  0  0
    0.5476   -1.3484   -1.9523 C   0  0  0  0  0  0
    0.4513   -2.4945   -2.7449 C   0  0  0  0  0  0
    0.8708   -3.7272   -2.2443 C   0  0  0  0  0  0
    1.3962   -3.8177   -0.9556 C   0  0  0  0  0  0
    1.4953   -2.6759   -0.1590 C   0  0  0  0  0  0
   -3.9509    0.5186    0.0480 Cl  0  0  0  0  0  0
    1.8362    3.9911   -0.6243 C   0  0  0  0  0  0
    3.3100    1.0052    2.8464 O   0  0  0  0  0  0
    3.2036    2.0136    3.7451 C   0  0  0  0  0  0
    2.2501    2.7855    3.7274 O   0  0  0  0  0  0
    4.2024    2.0320    4.7046 N   0  0  0  0  0  0
    5.2451    1.0185    4.8307 C   0  0  0  0  0  0
    4.2354    3.1071    5.6848 C   0  0  0  0  0  0
   -2.9686    3.1839   -0.2523 H   0  0  0  0  0  0
   -1.4524   -0.7902    0.2907 H   0  0  0  0  0  0
   -0.7137    4.0829   -0.2286 H   0  0  0  0  0  0
    1.3401    1.2808    2.3536 H   0  0  0  0  0  0
    0.2290   -0.3942   -2.3663 H   0  0  0  0  0  0
    0.0524   -2.4240   -3.7553 H   0  0  0  0  0  0
    0.7918   -4.6200   -2.8633 H   0  0  0  0  0  0
    1.7302   -4.7796   -0.5702 H   0  0  0  0  0  0
    1.9008   -2.7583    0.8475 H   0  0  0  0  0  0
    2.9037    4.1419   -0.8083 H   0  0  0  0  0  0
    1.4767    4.8265   -0.0167 H   0  0  0  0  0  0
    1.3290    3.9771   -1.5945 H   0  0  0  0  0  0
    5.2461    0.6354    5.8559 H   0  0  0  0  0  0
    6.2105    1.4872    4.6180 H   0  0  0  0  0  0
    5.0948    0.1802    4.1469 H   0  0  0  0  0  0
    4.0809    2.6823    6.6810 H   0  0  0  0  0  0
    3.4622    3.8560    5.4952 H   0  0  0  0  0  0
    5.2149    3.5926    5.6407 H   0  0  0  0  0  0
  1  2  2  0  0  0
  1  6  1  0  0  0
  1 27  1  0  0  0
  2  3  1  0  0  0
  2 19  1  0  0  0
  3  4  2  0  0  0
  3 28  1  0  0  0
  4  5  1  0  0  0
  4  7  1  0  0  0
  5  6  2  0  0  0
  5 11  1  0  0  0
  6 29  1  0  0  0
  7  8  2  0  0  0
  7 12  1  0  0  0
  8  9  1  0  0  0
  9 10  1  0  0  0
  9 21  1  0  0  0
  9 30  1  0  0  0
 10 11  1  0  0  0
 10 13  2  0  0  0
 11 20  1  0  0  0
 12 14  2  0  0  0
 12 18  1  0  0  0
 14 15  1  0  0  0
 14 31  1  0  0  0
 15 16  2  0  0  0
 15 32  1  0  0  0
 16 17  1  0  0  0
 16 33  1  0  0  0
 17 18  2  0  0  0
 17 34  1  0  0  0
 18 35  1  0  0  0
 20 36  1  0  0  0
 20 37  1  0  0  0
 20 38  1  0  0  0
 21 22  1  0  0  0
 22 23  2  0  0  0
 22 24  1  0  0  0
 24 25  1  0  0  0
 24 26  1  0  0  0
 25 39  1  0  0  0
 25 40  1  0  0  0
 25 41  1  0  0  0
 26 42  1  0  0  0
 26 43  1  0  0  0
 26 44  1  0  0  0
M  END
>  <Name>
Camazepam

>  <Family>
A.1

>  <IC50_uM>
0.900000

>  <set>
2

$$$$
Ro20-7078
  Cerius2 12180215283D 1   1.00000                          
 Structure written by MMmdl.
 33 35  0  0  0  0  0  0  0  0999 V2000
   -2.1337    2.5049   -0.1469 C   0  0  0  0  0  0
   -2.3553    1.1468    0.0312 C   0  0  0  0  0  0
   -1.2802    0.2811    0.1960 C   0  0  0  0  0  0
    0.0381    0.7764    0.1810 C   0  0  0  0  0  0
    0.2842    2.1607    0.0536 C   0  0  0  0  0  0
   -0.8271    3.0046   -0.1371 C   0  0  0  0  0  0
    1.1374   -0.2365    0.2368 C   0  0  0  0  0  0
    2.1747   -0.1499    1.0050 N   0  0  0  0  0  0
    2.2867    1.0597    1.8187 C   0  0  0  0  0  0
    2.6475    2.2338    0.8875 C   0  0  0  0  0  0
    1.5956    2.7402    0.1039 N   0  0  0  0  0  0
    1.0424   -1.4423   -0.6402 C   0  0  0  0  0  0
    3.7790    2.7361    0.8494 O   0  0  0  0  0  0
    1.4902   -2.6778   -0.1562 C   0  0  0  0  0  0
    1.4133   -3.8139   -0.9660 C   0  0  0  0  0  0
    0.9009   -3.7188   -2.2611 C   0  0  0  0  0  0
    0.4700   -2.4863   -2.7523 C   0  0  0  0  0  0
    0.5467   -1.3550   -1.9438 C   0  0  0  0  0  0
   -3.9619    0.5318    0.0354 Cl  0  0  0  0  0  0
    1.8376    3.9772   -0.6372 C   0  0  0  0  0  0
    3.6064    0.7737    2.9926 Cl  0  0  0  0  0  0
    0.1546   -0.1781   -2.4550 F   0  0  0  0  0  0
   -2.9677    3.1904   -0.2809 H   0  0  0  0  0  0
   -1.4715   -0.7818    0.3271 H   0  0  0  0  0  0
   -0.7099    4.0814   -0.2438 H   0  0  0  0  0  0
    1.3934    1.2740    2.4136 H   0  0  0  0  0  0
    1.8921   -2.7648    0.8514 H   0  0  0  0  0  0
    1.7552   -4.7755   -0.5862 H   0  0  0  0  0  0
    0.8438   -4.6056   -2.8902 H   0  0  0  0  0  0
    0.0812   -2.4029   -3.7635 H   0  0  0  0  0  0
    2.9041    4.1168   -0.8372 H   0  0  0  0  0  0
    1.4919    4.8247   -0.0372 H   0  0  0  0  0  0
    1.3206    3.9508   -1.6017 H   0  0  0  0  0  0
  1  2  2  0  0  0
  1  6  1  0  0  0
  1 23  1  0  0  0
  2  3  1  0  0  0
  2 19  1  0  0  0
  3  4  2  0  0  0
  3 24  1  0  0  0
  4  5  1  0  0  0
  4  7  1  0  0  0
  5  6  2  0  0  0
  5 11  1  0  0  0
  6 25  1  0  0  0
  7  8  2  0  0  0
  7 12  1  0  0  0
  8  9  1  0  0  0
  9 10  1  0  0  0
  9 21  1  0  0  0
  9 26  1  0  0  0
 10 11  1  0  0  0
 10 13  2  0  0  0
 11 20  1  0  0  0
 12 14  2  0  0  0
 12 18  1  0  0  0
 14 15  1  0  0  0
 14 27  1  0  0  0
 15 16  2  0  0  0
 15 28  1  0  0  0
 16 17  1  0  0  0
 16 29  1  0  0  0
 17 18  2  0  0  0
 17 30  1  0  0  0
 18 22  1  0  0  0
 20 31  1  0  0  0
 20 32  1  0  0  0
 20 33  1  0  0  0
M  END
>  <Name>
Ro20-7078

>  <Family>
A.1

>  <IC50_uM>
0.005300

>  <set>
1

$$$$
Clorazepate
  Cerius2 12180215283D 1   1.00000                          
 Structure written by MMmdl.
 33 35  0  0  0  0  0  0  0  0999 V2000
   -2.1085    2.5071   -0.1799 C   0  0  0  0  0  0
   -2.3417    1.1476   -0.0050 C   0  0  0  0  0  0
   -1.2772    0.2701    0.1884 C   0  0  0  0  0  0
    0.0423    0.7546    0.2165 C   0  0  0  0  0  0
    0.2772    2.1373    0.1162 C   0  0  0  0  0  0
   -0.8024    2.9982   -0.1254 C   0  0  0  0  0  0
    1.1582   -0.2451    0.2333 C   0  0  0  0  0  0
    2.2417   -0.1453    0.9330 N   0  0  0  0  0  0
    2.4112    1.0430    1.7948 C   0  0  0  0  0  0
    2.6352    2.2633    0.9075 C   0  0  0  0  0  0
    1.5399    2.7442    0.2291 N   0  0  0  0  0  0
    1.0371   -1.4568   -0.6409 C   0  0  0  0  0  0
    3.7147    2.8576    0.8193 O   0  0  0  0  0  0
    1.4751   -2.6951   -0.1557 C   0  0  0  0  0  0
    1.3788   -3.8336   -0.9579 C   0  0  0  0  0  0
    0.8559   -3.7366   -2.2473 C   0  0  0  0  0  0
    0.4337   -2.5017   -2.7401 C   0  0  0  0  0  0
    0.5274   -1.3596   -1.9419 C   0  0  0  0  0  0
   -3.9519    0.5422   -0.0547 Cl  0  0  0  0  0  0
    3.5888    0.8062    2.7345 C   0  0  0  0  0  0
    3.8941    1.4522    3.7304 O   0  0  0  0  0  0
    4.3514   -0.2472    2.3475 O   0  0  0  0  0  0
   -2.9341    3.1953   -0.3465 H   0  0  0  0  0  0
   -1.4785   -0.7933    0.2969 H   0  0  0  0  0  0
   -0.6440    4.0699   -0.2379 H   0  0  0  0  0  0
    1.5294    1.1794    2.4340 H   0  0  0  0  0  0
    1.6555    3.6759   -0.1610 H   0  0  0  0  0  0
    1.8856   -2.7809    0.8485 H   0  0  0  0  0  0
    1.7135   -4.7970   -0.5771 H   0  0  0  0  0  0
    0.7824   -4.6253   -2.8724 H   0  0  0  0  0  0
    0.0354   -2.4273   -3.7505 H   0  0  0  0  0  0
    0.2114   -0.4033   -2.3526 H   0  0  0  0  0  0
    5.0834   -0.3051    3.0084 H   0  0  0  0  0  0
  1  2  2  0  0  0
  1  6  1  0  0  0
  1 23  1  0  0  0
  2  3  1  0  0  0
  2 19  1  0  0  0
  3  4  2  0  0  0
  3 24  1  0  0  0
  4  5  1  0  0  0
  4  7  1  0  0  0
  5  6  2  0  0  0
  5 11  1  0  0  0
  6 25  1  0  0  0
  7  8  2  0  0  0
  7 12  1  0  0  0
  8  9  1  0  0  0
  9 10  1  0  0  0
  9 20  1  0  0  0
  9 26  1  0  0  0
 10 11  1  0  0  0
 10 13  2  0  0  0
 11 27  1  0  0  0
 12 14  2  0  0  0
 12 18  1  0  0  0
 14 15  1  0  0  0
 14 28  1  0  0  0
 15 16  2  0  0  0
 15 29  1  0  0  0
 16 17  1  0  0  0
 16 30  1  0  0  0
 17 18  2  0  0  0
 17 31  1  0  0  0
 18 32  1  0  0  0
 20 21  2  0  0  0
 20 22  1  0  0  0
 22 33  1  0  0  0
M  END
>  <Name>
Clorazepate

>  <Family>
A.1

>  <IC50_uM>
0.059000

>  <set>
2

$$$$
Ro11-8125
  Cerius2 12180215283D 1   1.00000                          
 Structure written by MMmdl.
 27 29  0  0  0  0  0  0  0  0999 V2000
    0.2680    2.0157    0.2415 C   0  0  0  0  0  0
    0.1270    0.6460    0.1664 C   0  0  0  0  0  0
    1.2418   -0.3014    0.1723 C   0  0  0  0  0  0
    2.3622   -0.1177    0.7862 N   0  0  0  0  0  0
    2.5117    1.0218    1.6936 C   0  0  0  0  0  0
    2.5447    2.3591    0.9647 C   0  0  0  0  0  0
    1.3663    2.8119    0.4343 N   0  0  0  0  0  0
   -1.1707    2.8747   -0.0230 S   0  0  0  0  0  0
   -2.0718    1.4286   -0.1312 C   0  0  0  0  0  0
   -1.2633    0.3168   -0.0294 C   0  0  0  0  0  0
    3.5614    3.0615    0.9329 O   0  0  0  0  0  0
    1.0796   -1.5317   -0.6357 C   0  0  0  0  0  0
    1.5762   -2.7359   -0.1170 C   0  0  0  0  0  0
    1.4327   -3.9160   -0.8468 C   0  0  0  0  0  0
    0.7953   -3.8955   -2.0874 C   0  0  0  0  0  0
    0.3001   -2.6950   -2.6034 C   0  0  0  0  0  0
    0.4391   -1.5079   -1.8792 C   0  0  0  0  0  0
   -0.1587   -0.0490   -2.5854 Cl  0  0  0  0  0  0
    3.4643    0.9095    2.2238 H   0  0  0  0  0  0
    1.7315    1.0295    2.4645 H   0  0  0  0  0  0
    1.3042    3.7907    0.1750 H   0  0  0  0  0  0
   -3.1426    1.4561   -0.2894 H   0  0  0  0  0  0
   -1.6538   -0.6918   -0.1151 H   0  0  0  0  0  0
    2.0687   -2.7612    0.8530 H   0  0  0  0  0  0
    1.8165   -4.8535   -0.4476 H   0  0  0  0  0  0
    0.6842   -4.8173   -2.6565 H   0  0  0  0  0  0
   -0.1899   -2.6957   -3.5751 H   0  0  0  0  0  0
  1  2  2  0  0  0
  1  7  1  0  0  0
  1  8  1  0  0  0
  2  3  1  0  0  0
  2 10  1  0  0  0
  3  4  2  0  0  0
  3 12  1  0  0  0
  4  5  1  0  0  0
  5  6  1  0  0  0
  5 19  1  0  0  0
  5 20  1  0  0  0
  6  7  1  0  0  0
  6 11  2  0  0  0
  7 21  1  0  0  0
  8  9  1  0  0  0
  9 10  2  0  0  0
  9 22  1  0  0  0
 10 23  1  0  0  0
 12 13  2  0  0  0
 12 17  1  0  0  0
 13 14  1  0  0  0
 13 24  1  0  0  0
 14 15  2  0  0  0
 14 25  1  0  0  0
 15 16  1  0  0  0
 15 26  1  0  0  0
 16 17  2  0  0  0
 16 27  1  0  0  0
 17 18  1  0  0  0
M  END
>  <Name>
Ro11-8125

>  <Family>
A.2

>  <IC50_uM>
0.037000

>  <set>
2

$$$$
Ro08-6739
  Cerius2 12180215283D 1   1.00000                          
 Structure written by MMmdl.
 27 29  0  0  0  0  0  0  0  0999 V2000
    0.1715    1.9528    0.2952 C   0  0  0  0  0  0
    0.0710    0.5773    0.2204 C   0  0  0  0  0  0
    1.2182   -0.3305    0.1449 C   0  0  0  0  0  0
    2.3404   -0.1198    0.7493 N   0  0  0  0  0  0
    2.4828    1.0179    1.6600 C   0  0  0  0  0  0
    2.4612    2.3577    0.9311 C   0  0  0  0  0  0
    1.2549    2.7797    0.4365 N   0  0  0  0  0  0
   -1.3111    2.7635    0.1250 S   0  0  0  0  0  0
   -2.1463    1.2950    0.0973 C   0  0  0  0  0  0
   -1.3211    0.2012    0.1518 C   0  0  0  0  0  0
    3.4589    3.0846    0.8678 O   0  0  0  0  0  0
    1.0948   -1.5578   -0.6972 C   0  0  0  0  0  0
    0.5835   -1.4976   -2.0002 C   0  0  0  0  0  0
    0.4932   -2.6605   -2.7684 C   0  0  0  0  0  0
    0.9205   -3.8804   -2.2441 C   0  0  0  0  0  0
    1.4453   -3.9419   -0.9535 C   0  0  0  0  0  0
    1.5384   -2.7824   -0.1814 C   0  0  0  0  0  0
   -3.8589    1.2872   -0.0208 Cl  0  0  0  0  0  0
    3.4525    0.9301    2.1630 H   0  0  0  0  0  0
    1.7241    1.0018    2.4517 H   0  0  0  0  0  0
    1.1573    3.7575    0.1837 H   0  0  0  0  0  0
   -1.6839   -0.8194    0.1118 H   0  0  0  0  0  0
    0.2651   -0.5531   -2.4361 H   0  0  0  0  0  0
    0.0938   -2.6137   -3.7801 H   0  0  0  0  0  0
    0.8496   -4.7853   -2.8458 H   0  0  0  0  0  0
    1.7842   -4.8938   -0.5483 H   0  0  0  0  0  0
    1.9509   -2.8414    0.8241 H   0  0  0  0  0  0
  1  2  2  0  0  0
  1  7  1  0  0  0
  1  8  1  0  0  0
  2  3  1  0  0  0
  2 10  1  0  0  0
  3  4  2  0  0  0
  3 12  1  0  0  0
  4  5  1  0  0  0
  5  6  1  0  0  0
  5 19  1  0  0  0
  5 20  1  0  0  0
  6  7  1  0  0  0
  6 11  2  0  0  0
  7 21  1  0  0  0
  8  9  1  0  0  0
  9 10  2  0  0  0
  9 18  1  0  0  0
 10 22  1  0  0  0
 12 13  2  0  0  0
 12 17  1  0  0  0
 13 14  1  0  0  0
 13 23  1  0  0  0
 14 15  2  0  0  0
 14 24  1  0  0  0
 15 16  1  0  0  0
 15 25  1  0  0  0
 16 17  2  0  0  0
 16 26  1  0  0  0
 17 27  1  0  0  0
M  END
>  <Name>
Ro08-6739

>  <Family>
A.2

>  <IC50_uM>
0.070000

>  <set>
2

$$$$
Ro08-9212
  Cerius2 12180215283D 1   1.00000                          
 Structure written by MMmdl.
 27 29  0  0  0  0  0  0  0  0999 V2000
    0.1752    1.9301    0.3173 C   0  0  0  0  0  0
    0.0982    0.5538    0.2303 C   0  0  0  0  0  0
    1.2577   -0.3357    0.1681 C   0  0  0  0  0  0
    2.3970   -0.1018    0.7269 N   0  0  0  0  0  0
    2.5373    1.0338    1.6406 C   0  0  0  0  0  0
    2.4667    2.3792    0.9291 C   0  0  0  0  0  0
    1.2412    2.7783    0.4658 N   0  0  0  0  0  0
   -1.3195    2.7177    0.1380 S   0  0  0  0  0  0
   -2.1265    1.2366    0.0500 C   0  0  0  0  0  0
   -1.2834    0.1562    0.0982 C   0  0  0  0  0  0
    3.4444    3.1319    0.8554 O   0  0  0  0  0  0
    1.1155   -1.5643   -0.6459 C   0  0  0  0  0  0
    1.6969   -2.7471   -0.1681 C   0  0  0  0  0  0
    1.5771   -3.9247   -0.9061 C   0  0  0  0  0  0
    0.8793   -3.9229   -2.1139 C   0  0  0  0  0  0
    0.2997   -2.7435   -2.5892 C   0  0  0  0  0  0
    0.4145   -1.5591   -1.8565 C   0  0  0  0  0  0
   -3.8348    1.2022   -0.1170 Cl  0  0  0  0  0  0
   -0.2882   -0.1240   -2.5127 Cl  0  0  0  0  0  0
    3.5205    0.9631    2.1197 H   0  0  0  0  0  0
    1.7985    0.9944    2.4504 H   0  0  0  0  0  0
    1.1186    3.7560    0.2240 H   0  0  0  0  0  0
   -1.6291   -0.8678    0.0182 H   0  0  0  0  0  0
    2.2372   -2.7582    0.7764 H   0  0  0  0  0  0
    2.0267   -4.8459   -0.5386 H   0  0  0  0  0  0
    0.7868   -4.8428   -2.6893 H   0  0  0  0  0  0
   -0.2366   -2.7583   -3.5359 H   0  0  0  0  0  0
  1  2  2  0  0  0
  1  7  1  0  0  0
  1  8  1  0  0  0
  2  3  1  0  0  0
  2 10  1  0  0  0
  3  4  2  0  0  0
  3 12  1  0  0  0
  4  5  1  0  0  0
  5  6  1  0  0  0
  5 20  1  0  0  0
  5 21  1  0  0  0
  6  7  1  0  0  0
  6 11  2  0  0  0
  7 22  1  0  0  0
  8  9  1  0  0  0
  9 10  2  0  0  0
  9 18  1  0  0  0
 10 23  1  0  0  0
 12 13  2  0  0  0
 12 17  1  0  0  0
 13 14  1  0  0  0
 13 24  1  0  0  0
 14 15  2  0  0  0
 14 25  1  0  0  0
 15 16  1  0  0  0
 15 26  1  0  0  0
 16 17  2  0  0  0
 16 27  1  0  0  0
 17 19  1  0  0  0
M  END
>  <Name>
Ro08-9212

>  <Family>
A.2

>  <IC50_uM>
0.003900

>  <set>
1

$$$$
Ro10-2643
  Cerius2 12180215283D 1   1.00000                          
 Structure written by MMmdl.
 27 29  0  0  0  0  0  0  0  0999 V2000
    0.3456    2.2028    0.1177 C   0  0  0  0  0  0
    0.1825    0.8259    0.0651 C   0  0  0  0  0  0
    1.2000   -0.2128    0.1694 C   0  0  0  0  0  0
    2.2827   -0.1207    0.8713 N   0  0  0  0  0  0
    2.4451    1.0352    1.7574 C   0  0  0  0  0  0
    2.6379    2.3368    0.9904 C   0  0  0  0  0  0
    1.5366    2.8663    0.3679 N   0  0  0  0  0  0
   -0.8598    2.8978   -0.2093 C   0  0  0  0  0  0
   -1.9013    2.0310   -0.3999 C   0  0  0  0  0  0
   -1.4613    0.4106   -0.2421 S   0  0  0  0  0  0
    1.0363   -1.4476   -0.6403 C   0  0  0  0  0  0
    1.4089   -2.6702   -0.0639 C   0  0  0  0  0  0
    1.2606   -3.8514   -0.7907 C   0  0  0  0  0  0
    0.7407   -3.8137   -2.0846 C   0  0  0  0  0  0
    0.3671   -2.5949   -2.6572 C   0  0  0  0  0  0
    0.5118   -1.4064   -1.9367 C   0  0  0  0  0  0
    0.0654    0.0737   -2.7075 Cl  0  0  0  0  0  0
    3.7122    2.9481    0.9981 O   0  0  0  0  0  0
   -3.5270    2.4416   -0.7698 Cl  0  0  0  0  0  0
    3.3413    0.8723    2.3668 H   0  0  0  0  0  0
    1.6084    1.1278    2.4605 H   0  0  0  0  0  0
    1.6058    3.8386    0.0808 H   0  0  0  0  0  0
   -0.9580    3.9751   -0.2694 H   0  0  0  0  0  0
    1.8082   -2.7084    0.9476 H   0  0  0  0  0  0
    1.5486   -4.8034   -0.3474 H   0  0  0  0  0  0
    0.6258   -4.7367   -2.6509 H   0  0  0  0  0  0
   -0.0331   -2.5828   -3.6690 H   0  0  0  0  0  0
  1  2  2  0  0  0
  1  7  1  0  0  0
  1  8  1  0  0  0
  2  3  1  0  0  0
  2 10  1  0  0  0
  3  4  2  0  0  0
  3 11  1  0  0  0
  4  5  1  0  0  0
  5  6  1  0  0  0
  5 20  1  0  0  0
  5 21  1  0  0  0
  6  7  1  0  0  0
  6 18  2  0  0  0
  7 22  1  0  0  0
  8  9  2  0  0  0
  8 23  1  0  0  0
  9 10  1  0  0  0
  9 19  1  0  0  0
 11 12  2  0  0  0
 11 16  1  0  0  0
 12 13  1  0  0  0
 12 24  1  0  0  0
 13 14  2  0  0  0
 13 25  1  0  0  0
 14 15  1  0  0  0
 14 26  1  0  0  0
 15 16  2  0  0  0
 15 27  1  0  0  0
 16 17  1  0  0  0
M  END
>  <Name>
Ro10-2643

>  <Family>
A.3

>  <IC50_uM>
0.009400

>  <set>
1

$$$$
Premazepam
  Cerius2 12180215283D 1   1.00000                          
 Structure written by MMmdl.
 34 36  0  0  0  0  0  0  0  0999 V2000
    0.3950    2.2062    0.0530 C   0  0  0  0  0  0
    0.1497    0.8020    0.0459 C   0  0  0  0  0  0
    1.1634   -0.2505    0.1550 C   0  0  0  0  0  0
    2.2117   -0.1399    0.9045 N   0  0  0  0  0  0
    2.3680    1.0381    1.7635 C   0  0  0  0  0  0
    2.6430    2.3114    0.9632 C   0  0  0  0  0  0
    1.5821    2.8617    0.2879 N   0  0  0  0  0  0
   -0.7715    2.8453   -0.2826 C   0  0  0  0  0  0
   -1.7568    1.8989   -0.3724 N   0  0  0  0  0  0
   -1.2261    0.6473   -0.1324 C   0  0  0  0  0  0
    3.7410    2.8782    0.9890 O   0  0  0  0  0  0
    1.0302   -1.4791   -0.6811 C   0  0  0  0  0  0
   -2.0818   -0.5771   -0.1132 C   0  0  0  0  0  0
   -3.1435    2.1931   -0.6761 C   0  0  0  0  0  0
    0.5176   -1.4169   -1.9836 C   0  0  0  0  0  0
    0.4216   -2.5791   -2.7517 C   0  0  0  0  0  0
    0.8464   -3.8003   -2.2282 C   0  0  0  0  0  0
    1.3743   -3.8636   -0.9388 C   0  0  0  0  0  0
    1.4733   -2.7046   -0.1667 C   0  0  0  0  0  0
    3.2306    0.8674    2.4177 H   0  0  0  0  0  0
    1.5057    1.1786    2.4264 H   0  0  0  0  0  0
    1.6781    3.8211   -0.0300 H   0  0  0  0  0  0
   -0.9944    3.8966   -0.4220 H   0  0  0  0  0  0
   -3.0354   -0.3848    0.3888 H   0  0  0  0  0  0
   -1.5978   -1.3920    0.4328 H   0  0  0  0  0  0
   -2.2907   -0.9143   -1.1331 H   0  0  0  0  0  0
   -3.4676    1.5418   -1.4916 H   0  0  0  0  0  0
   -3.2353    3.2379   -0.9838 H   0  0  0  0  0  0
   -3.7353    2.0158    0.2252 H   0  0  0  0  0  0
    0.1964   -0.4705   -2.4134 H   0  0  0  0  0  0
    0.0186   -2.5311   -3.7620 H   0  0  0  0  0  0
    0.7710   -4.7050   -2.8296 H   0  0  0  0  0  0
    1.7116   -4.8167   -0.5349 H   0  0  0  0  0  0
    1.8889   -2.7640    0.8373 H   0  0  0  0  0  0
  1  2  1  0  0  0
  1  7  1  0  0  0
  1  8  2  0  0  0
  2  3  1  0  0  0
  2 10  2  0  0  0
  3  4  2  0  0  0
  3 12  1  0  0  0
  4  5  1  0  0  0
  5  6  1  0  0  0
  5 20  1  0  0  0
  5 21  1  0  0  0
  6  7  1  0  0  0
  6 11  2  0  0  0
  7 22  1  0  0  0
  8  9  1  0  0  0
  8 23  1  0  0  0
  9 10  1  0  0  0
  9 14  1  0  0  0
 10 13  1  0  0  0
 12 15  2  0  0  0
 12 19  1  0  0  0
 13 24  1  0  0  0
 13 25  1  0  0  0
 13 26  1  0  0  0
 14 27  1  0  0  0
 14 28  1  0  0  0
 14 29  1  0  0  0
 15 16  1  0  0  0
 15 30  1  0  0  0
 16 17  2  0  0  0
 16 31  1  0  0  0
 17 18  1  0  0  0
 17 32  1  0  0  0
 18 19  2  0  0  0
 18 33  1  0  0  0
 19 34  1  0  0  0
M  END
>  <Name>
Premazepam

>  <Family>
A.4

>  <IC50_uM>
0.170000

>  <set>
2

$$$$
Ro05-3395
  Cerius2 12180215283D 1   1.00000                          
 Structure written by MMmdl.
 32 34  0  0  0  0  0  0  0  0999 V2000
   -2.0714    2.5092   -0.3636 C   0  0  0  0  0  0
   -2.3494    1.1650   -0.2041 C   0  0  0  0  0  0
   -1.3129    0.2831    0.1001 C   0  0  0  0  0  0
    0.0373    0.7070    0.2504 C   0  0  0  0  0  0
    0.2891    2.0864    0.1597 C   0  0  0  0  0  0
   -0.7661    2.9610   -0.1820 C   0  0  0  0  0  0
    1.0618   -0.4012    0.5007 C   0  0  0  0  0  0
    2.4733   -0.0164    0.4624 N   0  0  0  0  0  0
    2.8014    0.9350    1.5143 C   0  0  0  0  0  0
    2.6558    2.3473    0.9989 C   0  0  0  0  0  0
    1.5036    2.7489    0.3992 N   0  0  0  0  0  0
    0.9121   -1.5838   -0.4694 C   0  0  0  0  0  0
    3.5479    3.1842    1.1730 O   0  0  0  0  0  0
   -3.3634    0.7944   -0.3290 H   0  0  0  0  0  0
    0.3952   -1.3939   -1.7634 C   0  0  0  0  0  0
    0.2834   -2.4659   -2.6497 C   0  0  0  0  0  0
    0.6910   -3.7394   -2.2574 C   0  0  0  0  0  0
    1.2108   -3.9430   -0.9800 C   0  0  0  0  0  0
    1.3245   -2.8725   -0.0906 C   0  0  0  0  0  0
   -2.8636    3.2103   -0.6113 H   0  0  0  0  0  0
   -1.5677   -0.7722    0.1975 H   0  0  0  0  0  0
   -0.5841    4.0294   -0.2848 H   0  0  0  0  0  0
    3.8575    0.8001    1.7774 H   0  0  0  0  0  0
    2.2230    0.8032    2.4351 H   0  0  0  0  0  0
    0.0862   -0.3999   -2.0831 H   0  0  0  0  0  0
   -0.1162   -2.3039   -3.6475 H   0  0  0  0  0  0
    0.6087   -4.5724   -2.9506 H   0  0  0  0  0  0
    1.5317   -4.9367   -0.6785 H   0  0  0  0  0  0
    1.7379   -3.0518    0.8992 H   0  0  0  0  0  0
    0.8440   -0.7807    1.5099 H   0  0  0  0  0  0
    3.0272   -0.8608    0.5983 H   0  0  0  0  0  0
    1.5411    3.7374    0.1852 H   0  0  0  0  0  0
  1  2  2  0  0  0
  1  6  1  0  0  0
  1 20  1  0  0  0
  2  3  1  0  0  0
  2 14  1  0  0  0
  3  4  2  0  0  0
  3 21  1  0  0  0
  4  5  1  0  0  0
  4  7  1  0  0  0
  5  6  2  0  0  0
  5 11  1  0  0  0
  6 22  1  0  0  0
  7  8  1  0  0  0
  7 12  1  0  0  0
  7 30  1  0  0  0
  8  9  1  0  0  0
  8 31  1  0  0  0
  9 10  1  0  0  0
  9 23  1  0  0  0
  9 24  1  0  0  0
 10 11  1  0  0  0
 10 13  2  0  0  0
 11 32  1  0  0  0
 12 15  2  0  0  0
 12 19  1  0  0  0
 15 16  1  0  0  0
 15 25  1  0  0  0
 16 17  2  0  0  0
 16 26  1  0  0  0
 17 18  1  0  0  0
 17 27  1  0  0  0
 18 19  2  0  0  0
 18 28  1  0  0  0
 19 29  1  0  0  0
M  END
>  <Name>
Ro05-3395

>  <Family>
A.5

>  <IC50_uM>
>1

>  <set>
1

$$$$
Ro05-2181
  Cerius2 12180215283D 1   1.00000                          
 Structure written by MMmdl.
 32 34  0  0  0  0  0  0  0  0999 V2000
   -2.0714    2.5092   -0.3636 C   0  0  0  0  0  0
   -2.3494    1.1650   -0.2041 C   0  0  0  0  0  0
   -1.3129    0.2831    0.1001 C   0  0  0  0  0  0
    0.0373    0.7070    0.2504 C   0  0  0  0  0  0
    0.2891    2.0864    0.1597 C   0  0  0  0  0  0
   -0.7661    2.9610   -0.1820 C   0  0  0  0  0  0
    1.0618   -0.4012    0.5007 C   0  0  0  0  0  0
    2.4733   -0.0164    0.4624 N   0  0  0  0  0  0
    2.8014    0.9350    1.5143 C   0  0  0  0  0  0
    2.6558    2.3473    0.9989 C   0  0  0  0  0  0
    1.5036    2.7489    0.3992 N   0  0  0  0  0  0
    0.9121   -1.5838   -0.4694 C   0  0  0  0  0  0
    3.5479    3.1842    1.1730 O   0  0  0  0  0  0
   -3.9545    0.5784   -0.4017 Cl  0  0  0  0  0  0
    0.3952   -1.3939   -1.7634 C   0  0  0  0  0  0
    0.2834   -2.4659   -2.6497 C   0  0  0  0  0  0
    0.6910   -3.7394   -2.2574 C   0  0  0  0  0  0
    1.2108   -3.9430   -0.9800 C   0  0  0  0  0  0
    1.3245   -2.8725   -0.0906 C   0  0  0  0  0  0
   -2.8636    3.2103   -0.6113 H   0  0  0  0  0  0
   -1.5677   -0.7722    0.1975 H   0  0  0  0  0  0
   -0.5841    4.0294   -0.2848 H   0  0  0  0  0  0
    3.8575    0.8001    1.7774 H   0  0  0  0  0  0
    2.2230    0.8032    2.4351 H   0  0  0  0  0  0
    0.0862   -0.3999   -2.0831 H   0  0  0  0  0  0
   -0.1162   -2.3039   -3.6475 H   0  0  0  0  0  0
    0.6087   -4.5724   -2.9506 H   0  0  0  0  0  0
    1.5317   -4.9367   -0.6785 H   0  0  0  0  0  0
    1.7379   -3.0518    0.8992 H   0  0  0  0  0  0
    0.8440   -0.7807    1.5099 H   0  0  0  0  0  0
    3.0272   -0.8608    0.5983 H   0  0  0  0  0  0
    1.5411    3.7374    0.1852 H   0  0  0  0  0  0
  1  2  2  0  0  0
  1  6  1  0  0  0
  1 20  1  0  0  0
  2  3  1  0  0  0
  2 14  1  0  0  0
  3  4  2  0  0  0
  3 21  1  0  0  0
  4  5  1  0  0  0
  4  7  1  0  0  0
  5  6  2  0  0  0
  5 11  1  0  0  0
  6 22  1  0  0  0
  7  8  1  0  0  0
  7 12  1  0  0  0
  7 30  1  0  0  0
  8  9  1  0  0  0
  8 31  1  0  0  0
  9 10  1  0  0  0
  9 23  1  0  0  0
  9 24  1  0  0  0
 10 11  1  0  0  0
 10 13  2  0  0  0
 11 32  1  0  0  0
 12 15  2  0  0  0
 12 19  1  0  0  0
 15 16  1  0  0  0
 15 25  1  0  0  0
 16 17  2  0  0  0
 16 26  1  0  0  0
 17 18  1  0  0  0
 17 27  1  0  0  0
 18 19  2  0  0  0
 18 28  1  0  0  0
 19 29  1  0  0  0
M  END
>  <Name>
Ro05-2181

>  <Family>
A.5

>  <IC50_uM>
>5

>  <set>
1

$$$$
Ro05-2881
  Cerius2 12180215283D 1   1.00000                          
 Structure written by MMmdl.
 35 37  0  0  0  0  0  0  0  0999 V2000
   -2.0714    2.5092   -0.3636 C   0  0  0  0  0  0
   -2.3494    1.1650   -0.2041 C   0  0  0  0  0  0
   -1.3129    0.2831    0.1001 C   0  0  0  0  0  0
    0.0373    0.7070    0.2504 C   0  0  0  0  0  0
    0.2891    2.0864    0.1597 C   0  0  0  0  0  0
   -0.7661    2.9610   -0.1820 C   0  0  0  0  0  0
    1.0618   -0.4012    0.5007 C   0  0  0  0  0  0
    2.4733   -0.0164    0.4624 N   0  0  0  0  0  0
    2.8014    0.9350    1.5143 C   0  0  0  0  0  0
    2.6558    2.3473    0.9989 C   0  0  0  0  0  0
    1.5036    2.7489    0.3992 N   0  0  0  0  0  0
    0.9121   -1.5838   -0.4694 C   0  0  0  0  0  0
    3.5479    3.1842    1.1730 O   0  0  0  0  0  0
   -3.9545    0.5784   -0.4017 Cl  0  0  0  0  0  0
    0.3952   -1.3939   -1.7634 C   0  0  0  0  0  0
    0.2834   -2.4659   -2.6497 C   0  0  0  0  0  0
    0.6910   -3.7394   -2.2574 C   0  0  0  0  0  0
    1.2108   -3.9430   -0.9800 C   0  0  0  0  0  0
    1.3245   -2.8725   -0.0906 C   0  0  0  0  0  0
   -2.8636    3.2103   -0.6113 H   0  0  0  0  0  0
   -1.5677   -0.7722    0.1975 H   0  0  0  0  0  0
   -0.5841    4.0294   -0.2848 H   0  0  0  0  0  0
    3.8575    0.8001    1.7774 H   0  0  0  0  0  0
    2.2230    0.8032    2.4351 H   0  0  0  0  0  0
    0.0862   -0.3999   -2.0831 H   0  0  0  0  0  0
   -0.1162   -2.3039   -3.6475 H   0  0  0  0  0  0
    0.6087   -4.5724   -2.9506 H   0  0  0  0  0  0
    1.5317   -4.9367   -0.6785 H   0  0  0  0  0  0
    1.7379   -3.0518    0.8992 H   0  0  0  0  0  0
    0.8440   -0.7807    1.5099 H   0  0  0  0  0  0
    3.0272   -0.8608    0.5983 H   0  0  0  0  0  0
    1.5578    4.1761    0.0902 C   0  0  0  0  0  0
    2.5602    4.5641    0.3242 H   0  0  0  0  0  0
    1.3459    4.3282   -0.9784 H   0  0  0  0  0  0
    0.8081    4.7103    0.6923 H   0  0  0  0  0  0
  1  2  2  0  0  0
  1  6  1  0  0  0
  1 20  1  0  0  0
  2  3  1  0  0  0
  2 14  1  0  0  0
  3  4  2  0  0  0
  3 21  1  0  0  0
  4  5  1  0  0  0
  4  7  1  0  0  0
  5  6  2  0  0  0
  5 11  1  0  0  0
  6 22  1  0  0  0
  7  8  1  0  0  0
  7 12  1  0  0  0
  7 30  1  0  0  0
  8  9  1  0  0  0
  8 31  1  0  0  0
  9 10  1  0  0  0
  9 23  1  0  0  0
  9 24  1  0  0  0
 10 11  1  0  0  0
 10 13  2  0  0  0
 11 32  1  0  0  0
 12 15  2  0  0  0
 12 19  1  0  0  0
 15 16  1  0  0  0
 15 25  1  0  0  0
 16 17  2  0  0  0
 16 26  1  0  0  0
 17 18  1  0  0  0
 17 27  1  0  0  0
 18 19  2  0  0  0
 18 28  1  0  0  0
 19 29  1  0  0  0
 32 33  1  0  0  0
 32 34  1  0  0  0
 32 35  1  0  0  0
M  END
>  <Name>
Ro05-2881

>  <Family>
A.5

>  <IC50_uM>
>1

>  <set>
2

$$$$
Ro05-3636
  Cerius2 12180215283D 1   1.00000                          
 Structure written by MMmdl.
 38 40  0  0  0  0  0  0  0  0999 V2000
   -2.0714    2.5092   -0.3636 C   0  0  0  0  0  0
   -2.3494    1.1650   -0.2041 C   0  0  0  0  0  0
   -1.3129    0.2831    0.1001 C   0  0  0  0  0  0
    0.0373    0.7070    0.2504 C   0  0  0  0  0  0
    0.2891    2.0864    0.1597 C   0  0  0  0  0  0
   -0.7661    2.9610   -0.1820 C   0  0  0  0  0  0
    1.0618   -0.4012    0.5007 C   0  0  0  0  0  0
    2.4733   -0.0164    0.4624 N   0  0  0  0  0  0
    2.8014    0.9350    1.5143 C   0  0  0  0  0  0
    2.6558    2.3473    0.9989 C   0  0  0  0  0  0
    1.5036    2.7489    0.3992 N   0  0  0  0  0  0
    0.9121   -1.5838   -0.4694 C   0  0  0  0  0  0
    3.5479    3.1842    1.1730 O   0  0  0  0  0  0
   -3.9545    0.5784   -0.4017 Cl  0  0  0  0  0  0
    0.3952   -1.3939   -1.7634 C   0  0  0  0  0  0
    0.2834   -2.4659   -2.6497 C   0  0  0  0  0  0
    0.6910   -3.7394   -2.2574 C   0  0  0  0  0  0
    1.2108   -3.9430   -0.9800 C   0  0  0  0  0  0
    1.3245   -2.8725   -0.0906 C   0  0  0  0  0  0
   -2.8636    3.2103   -0.6113 H   0  0  0  0  0  0
   -1.5677   -0.7722    0.1975 H   0  0  0  0  0  0
   -0.5841    4.0294   -0.2848 H   0  0  0  0  0  0
    3.8575    0.8001    1.7774 H   0  0  0  0  0  0
    2.2230    0.8032    2.4351 H   0  0  0  0  0  0
    0.0149   -0.1707   -2.1568 F   0  0  0  0  0  0
   -0.1162   -2.3039   -3.6475 H   0  0  0  0  0  0
    0.6087   -4.5724   -2.9506 H   0  0  0  0  0  0
    1.5317   -4.9367   -0.6785 H   0  0  0  0  0  0
    1.7379   -3.0518    0.8992 H   0  0  0  0  0  0
    0.8440   -0.7807    1.5099 H   0  0  0  0  0  0
    3.2670   -1.2263    0.6571 C   0  0  0  0  0  0
    1.5578    4.1761    0.0902 C   0  0  0  0  0  0
    2.5602    4.5641    0.3242 H   0  0  0  0  0  0
    1.3459    4.3282   -0.9784 H   0  0  0  0  0  0
    0.8081    4.7103    0.6923 H   0  0  0  0  0  0
    4.3367   -0.9708    0.6335 H   0  0  0  0  0  0
    3.0186   -1.6752    1.6301 H   0  0  0  0  0  0
    3.0437   -1.9444   -0.1457 H   0  0  0  0  0  0
  1  2  2  0  0  0
  1  6  1  0  0  0
  1 20  1  0  0  0
  2  3  1  0  0  0
  2 14  1  0  0  0
  3  4  2  0  0  0
  3 21  1  0  0  0
  4  5  1  0  0  0
  4  7  1  0  0  0
  5  6  2  0  0  0
  5 11  1  0  0  0
  6 22  1  0  0  0
  7  8  1  0  0  0
  7 12  1  0  0  0
  7 30  1  0  0  0
  8  9  1  0  0  0
  8 31  1  0  0  0
  9 10  1  0  0  0
  9 23  1  0  0  0
  9 24  1  0  0  0
 10 11  1  0  0  0
 10 13  2  0  0  0
 11 32  1  0  0  0
 12 15  2  0  0  0
 12 19  1  0  0  0
 15 16  1  0  0  0
 15 25  1  0  0  0
 16 17  2  0  0  0
 16 26  1  0  0  0
 17 18  1  0  0  0
 17 27  1  0  0  0
 18 19  2  0  0  0
 18 28  1  0  0  0
 19 29  1  0  0  0
 31 36  1  0  0  0
 31 37  1  0  0  0
 31 38  1  0  0  0
 32 33  1  0  0  0
 32 34  1  0  0  0
 32 35  1  0  0  0
M  END
>  <Name>
Ro05-3636

>  <Family>
A.5

>  <IC50_uM>
>1

>  <set>
1

$$$$
Ro15-8852
  Cerius2 12180215283D 1   1.00000                          
 Structure written by MMmdl.
 37 39  0  0  0  0  0  0  0  0999 V2000
   -2.0714    2.5092   -0.3636 C   0  0  0  0  0  0
   -2.3494    1.1650   -0.2041 C   0  0  0  0  0  0
   -1.3129    0.2831    0.1001 C   0  0  0  0  0  0
    0.0373    0.7070    0.2504 C   0  0  0  0  0  0
    0.2891    2.0864    0.1597 C   0  0  0  0  0  0
   -0.7661    2.9610   -0.1820 C   0  0  0  0  0  0
    1.0618   -0.4012    0.5007 C   0  0  0  0  0  0
    2.4733   -0.0164    0.4624 N   0  0  0  0  0  0
    2.8014    0.9350    1.5143 C   0  0  0  0  0  0
    2.6558    2.3473    0.9989 C   0  0  0  0  0  0
    1.5036    2.7489    0.3992 N   0  0  0  0  0  0
    0.9121   -1.5838   -0.4694 C   0  0  0  0  0  0
    3.5479    3.1842    1.1730 O   0  0  0  0  0  0
    0.3952   -1.3939   -1.7634 C   0  0  0  0  0  0
    0.2834   -2.4659   -2.6497 C   0  0  0  0  0  0
    0.6910   -3.7394   -2.2574 C   0  0  0  0  0  0
    1.2108   -3.9430   -0.9800 C   0  0  0  0  0  0
    1.3245   -2.8725   -0.0906 C   0  0  0  0  0  0
   -2.8636    3.2103   -0.6113 H   0  0  0  0  0  0
   -1.5677   -0.7722    0.1975 H   0  0  0  0  0  0
   -0.5841    4.0294   -0.2848 H   0  0  0  0  0  0
    3.8575    0.8001    1.7774 H   0  0  0  0  0  0
    2.2230    0.8032    2.4351 H   0  0  0  0  0  0
   -0.0929    0.1762   -2.2684 Cl  0  0  0  0  0  0
   -0.1162   -2.3039   -3.6475 H   0  0  0  0  0  0
    0.6087   -4.5724   -2.9506 H   0  0  0  0  0  0
    1.5317   -4.9367   -0.6785 H   0  0  0  0  0  0
    1.7379   -3.0518    0.8992 H   0  0  0  0  0  0
    0.8440   -0.7807    1.5099 H   0  0  0  0  0  0
    3.2670   -1.2263    0.6571 C   0  0  0  0  0  0
    4.3367   -0.9708    0.6335 H   0  0  0  0  0  0
    3.0186   -1.6752    1.6301 H   0  0  0  0  0  0
    3.0437   -1.9444   -0.1457 H   0  0  0  0  0  0
    1.6249    3.7125    0.0985 H   0  0  0  0  0  0
   -3.7276    0.6765   -0.3553 N   0  3  0  0  0  0
   -3.9412   -0.5472   -0.2162 O   0  0  0  0  0  0
   -4.6007    1.5327   -0.6142 O   0  5  0  0  0  0
  1  2  2  0  0  0
  1  6  1  0  0  0
  1 19  1  0  0  0
  2  3  1  0  0  0
  2 35  1  0  0  0
  3  4  2  0  0  0
  3 20  1  0  0  0
  4  5  1  0  0  0
  4  7  1  0  0  0
  5  6  2  0  0  0
  5 11  1  0  0  0
  6 21  1  0  0  0
  7  8  1  0  0  0
  7 12  1  0  0  0
  7 29  1  0  0  0
  8  9  1  0  0  0
  8 30  1  0  0  0
  9 10  1  0  0  0
  9 22  1  0  0  0
  9 23  1  0  0  0
 10 11  1  0  0  0
 10 13  2  0  0  0
 11 34  1  0  0  0
 12 14  2  0  0  0
 12 18  1  0  0  0
 14 15  1  0  0  0
 14 24  1  0  0  0
 15 16  2  0  0  0
 15 25  1  0  0  0
 16 17  1  0  0  0
 16 26  1  0  0  0
 17 18  2  0  0  0
 17 27  1  0  0  0
 18 28  1  0  0  0
 30 31  1  0  0  0
 30 32  1  0  0  0
 30 33  1  0  0  0
 35 36  2  0  0  0
 35 37  1  0  0  0
M  CHG  2  35   1  37  -1
M  END
>  <Name>
Ro15-8852

>  <Family>
A.5

>  <IC50_uM>
0.726000

>  <set>
2

$$$$
Chlordiazepoxide
  Cerius2 12180215283D 1   1.00000                          
 Structure written by MMmdl.
 35 37  0  0  0  0  0  0  0  0999 V2000
   -0.0915    2.0864   -0.0352 C   0  0  0  0  0  0
   -0.1998    0.6829    0.0453 C   0  0  0  0  0  0
    0.9986   -0.2007    0.0733 C   0  0  0  0  0  0
    2.0635    0.1345    0.7868 N   0  3  0  0  0  0
    2.1224    1.3680    1.5942 C   0  0  0  0  0  0
    2.1404    2.5130    0.6061 C   0  0  0  0  0  0
    1.1129    2.8066   -0.1397 N   0  0  0  0  0  0
   -1.2698    2.8452   -0.0711 C   0  0  0  0  0  0
   -2.5269    2.2389   -0.0088 C   0  0  0  0  0  0
   -2.6178    0.8550    0.0837 C   0  0  0  0  0  0
   -1.4646    0.0738    0.1107 C   0  0  0  0  0  0
    0.9877   -1.4561   -0.7121 C   0  0  0  0  0  0
    0.4821   -1.4376   -2.0153 C   0  0  0  0  0  0
    0.4282   -2.6221   -2.7511 C   0  0  0  0  0  0
    0.8709   -3.8183   -2.1842 C   0  0  0  0  0  0
    1.3679   -3.8346   -0.8800 C   0  0  0  0  0  0
    1.4252   -2.6535   -0.1389 C   0  0  0  0  0  0
    3.1096   -0.6188    0.8050 O   0  5  0  0  0  0
   -4.1640    0.1031    0.1654 Cl  0  0  0  0  0  0
    3.2989    3.2485    0.5155 N   0  0  0  0  0  0
    3.4607    4.4223   -0.3099 C   0  0  0  0  0  0
    3.0349    1.3505    2.1980 H   0  0  0  0  0  0
    1.2597    1.4116    2.2643 H   0  0  0  0  0  0
   -1.2082    3.9296   -0.1494 H   0  0  0  0  0  0
   -3.4223    2.8553   -0.0346 H   0  0  0  0  0  0
   -1.5582   -1.0061    0.1922 H   0  0  0  0  0  0
    0.1331   -0.5109   -2.4656 H   0  0  0  0  0  0
    0.0389   -2.6134   -3.7676 H   0  0  0  0  0  0
    0.8267   -4.7413   -2.7602 H   0  0  0  0  0  0
    1.7086   -4.7700   -0.4395 H   0  0  0  0  0  0
    1.8052   -2.6766    0.8800 H   0  0  0  0  0  0
    4.1173    2.9724    1.0584 H   0  0  0  0  0  0
    4.4746    4.8182   -0.1994 H   0  0  0  0  0  0
    2.7554    5.2047   -0.0134 H   0  0  0  0  0  0
    3.3033    4.1784   -1.3650 H   0  0  0  0  0  0
  1  2  2  0  0  0
  1  7  1  0  0  0
  1  8  1  0  0  0
  2  3  1  0  0  0
  2 11  1  0  0  0
  3  4  2  0  0  0
  3 12  1  0  0  0
  4  5  1  0  0  0
  4 18  1  0  0  0
  5  6  1  0  0  0
  5 22  1  0  0  0
  5 23  1  0  0  0
  6  7  2  0  0  0
  6 20  1  0  0  0
  8  9  2  0  0  0
  8 24  1  0  0  0
  9 10  1  0  0  0
  9 25  1  0  0  0
 10 11  2  0  0  0
 10 19  1  0  0  0
 11 26  1  0  0  0
 12 13  2  0  0  0
 12 17  1  0  0  0
 13 14  1  0  0  0
 13 27  1  0  0  0
 14 15  2  0  0  0
 14 28  1  0  0  0
 15 16  1  0  0  0
 15 29  1  0  0  0
 16 17  2  0  0  0
 16 30  1  0  0  0
 17 31  1  0  0  0
 20 21  1  0  0  0
 20 32  1  0  0  0
 21 33  1  0  0  0
 21 34  1  0  0  0
 21 35  1  0  0  0
M  CHG  2   4   1  18  -1
M  END
>  <Name>
Chlordiazepoxide

>  <Family>
A.6

>  <IC50_uM>
0.352000

>  <set>
2

$$$$
Demoxepam
  Cerius2 12180215283D 1   1.00000                          
 Structure written by MMmdl.
 31 33  0  0  0  0  0  0  0  0999 V2000
    0.2855    2.1282    0.1418 C   0  0  0  0  0  0
    0.0734    0.7384    0.2120 C   0  0  0  0  0  0
    1.1901   -0.2524    0.2054 C   0  0  0  0  0  0
    2.2914   -0.0611    0.9122 N   0  3  0  0  0  0
    2.4730    1.0893    1.7958 C   0  0  0  0  0  0
    2.6413    2.2955    0.9249 C   0  0  0  0  0  0
    1.5373    2.7562    0.2619 N   0  0  0  0  0  0
   -0.8064    2.9776   -0.0900 C   0  0  0  0  0  0
   -2.1032    2.4683   -0.1759 C   0  0  0  0  0  0
   -2.3145    1.1009   -0.0475 C   0  0  0  0  0  0
   -1.2374    0.2360    0.1372 C   0  0  0  0  0  0
    1.0668   -1.4620   -0.6449 C   0  0  0  0  0  0
    0.5109   -1.3423   -1.9222 C   0  0  0  0  0  0
    0.3535   -2.4803   -2.7142 C   0  0  0  0  0  0
    0.7442   -3.7296   -2.2292 C   0  0  0  0  0  0
    1.2927   -3.8460   -0.9509 C   0  0  0  0  0  0
    1.4536   -2.7123   -0.1534 C   0  0  0  0  0  0
    3.7076    2.9176    0.8710 O   0  0  0  0  0  0
   -3.9130    0.4696   -0.1445 Cl  0  0  0  0  0  0
    3.2627   -0.9077    0.8598 O   0  5  0  0  0  0
    3.3755    0.9378    2.3968 H   0  0  0  0  0  0
    1.6185    1.1809    2.4719 H   0  0  0  0  0  0
    1.6298    3.6973   -0.1131 H   0  0  0  0  0  0
   -0.6637    4.0540   -0.1753 H   0  0  0  0  0  0
   -2.9375    3.1475   -0.3354 H   0  0  0  0  0  0
   -1.4271   -0.8326    0.2042 H   0  0  0  0  0  0
    0.2014   -0.3735   -2.3079 H   0  0  0  0  0  0
   -0.0761   -2.3939   -3.7107 H   0  0  0  0  0  0
    0.6190   -4.6161   -2.8491 H   0  0  0  0  0  0
    1.5928   -4.8224   -0.5747 H   0  0  0  0  0  0
    1.8738   -2.8116    0.8448 H   0  0  0  0  0  0
  1  2  2  0  0  0
  1  7  1  0  0  0
  1  8  1  0  0  0
  2  3  1  0  0  0
  2 11  1  0  0  0
  3  4  2  0  0  0
  3 12  1  0  0  0
  4  5  1  0  0  0
  4 20  1  0  0  0
  5  6  1  0  0  0
  5 21  1  0  0  0
  5 22  1  0  0  0
  6  7  1  0  0  0
  6 18  2  0  0  0
  7 23  1  0  0  0
  8  9  2  0  0  0
  8 24  1  0  0  0
  9 10  1  0  0  0
  9 25  1  0  0  0
 10 11  2  0  0  0
 10 19  1  0  0  0
 11 26  1  0  0  0
 12 13  2  0  0  0
 12 17  1  0  0  0
 13 14  1  0  0  0
 13 27  1  0  0  0
 14 15  2  0  0  0
 14 28  1  0  0  0
 15 16  1  0  0  0
 15 29  1  0  0  0
 16 17  2  0  0  0
 16 30  1  0  0  0
 17 31  1  0  0  0
M  CHG  2   4   1  20  -1
M  END
>  <Name>
Demoxepam

>  <Family>
A.7

>  <IC50_uM>
0.310000

>  <set>
1

$$$$
Medazepam
  Cerius2 12180215283D 1   1.00000                          
 Structure written by MMmdl.
 34 36  0  0  0  0  0  0  0  0999 V2000
    0.2889    2.1492    0.0122 C   0  0  0  0  0  0
    0.0072    0.7717    0.1651 C   0  0  0  0  0  0
    1.1131   -0.2345    0.2486 C   0  0  0  0  0  0
    2.1257   -0.1377    1.0541 N   0  0  0  0  0  0
    2.1836    1.0590    1.9055 C   0  0  0  0  0  0
    2.5312    2.3056    1.0842 C   0  0  0  0  0  0
    1.5868    2.6442   -0.0048 N   0  0  0  0  0  0
   -0.8170    3.0062   -0.1374 C   0  0  0  0  0  0
   -2.1338    2.5303   -0.1016 C   0  0  0  0  0  0
   -2.3758    1.1759    0.0843 C   0  0  0  0  0  0
   -1.3139    0.2914    0.2197 C   0  0  0  0  0  0
    1.0518   -1.4339   -0.6486 C   0  0  0  0  0  0
    0.5699   -1.3349   -1.9606 C   0  0  0  0  0  0
    0.5284   -2.4672   -2.7774 C   0  0  0  0  0  0
    0.9737   -3.6967   -2.2927 C   0  0  0  0  0  0
    1.4673   -3.7976   -0.9925 C   0  0  0  0  0  0
    1.5113   -2.6685   -0.1721 C   0  0  0  0  0  0
   -3.9929    0.5917    0.1404 Cl  0  0  0  0  0  0
    1.9015    3.8625   -0.7533 C   0  0  0  0  0  0
    2.9735    0.9000    2.6487 H   0  0  0  0  0  0
    1.2578    1.1891    2.4799 H   0  0  0  0  0  0
    3.5268    2.1725    0.6426 H   0  0  0  0  0  0
    2.5934    3.1602    1.7693 H   0  0  0  0  0  0
   -0.6776    4.0788   -0.2605 H   0  0  0  0  0  0
   -2.9583    3.2314   -0.2109 H   0  0  0  0  0  0
   -1.5105   -0.7682    0.3641 H   0  0  0  0  0  0
    0.2361   -0.3829   -2.3675 H   0  0  0  0  0  0
    0.1524   -2.3886   -3.7962 H   0  0  0  0  0  0
    0.9409   -4.5776   -2.9320 H   0  0  0  0  0  0
    1.8195   -4.7567   -0.6166 H   0  0  0  0  0  0
    1.8979   -2.7601    0.8410 H   0  0  0  0  0  0
    2.9818    3.9401   -0.9184 H   0  0  0  0  0  0
    1.5814    4.7535   -0.2028 H   0  0  0  0  0  0
    1.4264    3.8550   -1.7406 H   0  0  0  0  0  0
  1  2  2  0  0  0
  1  7  1  0  0  0
  1  8  1  0  0  0
  2  3  1  0  0  0
  2 11  1  0  0  0
  3  4  2  0  0  0
  3 12  1  0  0  0
  4  5  1  0  0  0
  5  6  1  0  0  0
  5 20  1  0  0  0
  5 21  1  0  0  0
  6  7  1  0  0  0
  6 22  1  0  0  0
  6 23  1  0  0  0
  7 19  1  0  0  0
  8  9  2  0  0  0
  8 24  1  0  0  0
  9 10  1  0  0  0
  9 25  1  0  0  0
 10 11  2  0  0  0
 10 18  1  0  0  0
 11 26  1  0  0  0
 12 13  2  0  0  0
 12 17  1  0  0  0
 13 14  1  0  0  0
 13 27  1  0  0  0
 14 15  2  0  0  0
 14 28  1  0  0  0
 15 16  1  0  0  0
 15 29  1  0  0  0
 16 17  2  0  0  0
 16 30  1  0  0  0
 17 31  1  0  0  0
 19 32  1  0  0  0
 19 33  1  0  0  0
 19 34  1  0  0  0
M  END
>  <Name>
Medazepam

>  <Family>
A.8

>  <IC50_uM>
0.870000

>  <set>
1

$$$$
Oxazolam
  Cerius2 12180215283D 1   1.00000                          
 Structure written by MMmdl.
 40 43  0  0  0  0  0  0  0  0999 V2000
   -0.6748    2.0139   -1.0987 C   0  0  0  0  0  0
   -0.8900    0.6222   -0.9922 C   0  0  0  0  0  0
    0.2873   -0.3743   -0.8837 C   0  0  0  0  0  0
    1.1434   -0.4416   -2.0850 N   0  0  0  0  0  0
    1.2028    0.7521   -2.9270 C   0  0  0  0  0  0
    1.5772    2.0011   -2.1281 C   0  0  0  0  0  0
    0.5795    2.5767   -1.3807 N   0  0  0  0  0  0
   -1.7346    2.9144   -0.9240 C   0  0  0  0  0  0
   -3.0360    2.4504   -0.7391 C   0  0  0  0  0  0
   -3.2779    1.0834   -0.7113 C   0  0  0  0  0  0
   -2.2228    0.1777   -0.8282 C   0  0  0  0  0  0
   -0.2611   -1.7124   -0.6990 O   0  0  0  0  0  0
    0.3374   -2.5493   -1.6994 C   0  0  0  0  0  0
    0.6488   -1.5966   -2.8322 C   0  0  0  0  0  0
   -0.6234   -3.6565   -2.0827 C   0  0  0  0  0  0
   -4.8836    0.5025   -0.4947 Cl  0  0  0  0  0  0
    2.6928    2.5240   -2.2070 O   0  0  0  0  0  0
    1.1044   -0.1600    0.4153 C   0  0  0  0  0  0
    0.4451   -0.0627    1.6599 C   0  0  0  0  0  0
    1.1573    0.1168    2.8488 C   0  0  0  0  0  0
    2.5461    0.1917    2.8244 C   0  0  0  0  0  0
    3.2232    0.0801    1.6139 C   0  0  0  0  0  0
    2.5118   -0.0995    0.4235 C   0  0  0  0  0  0
    0.2677    0.9412   -3.4698 H   0  0  0  0  0  0
    1.9805    0.6140   -3.6885 H   0  0  0  0  0  0
    0.7527    3.5358   -1.0913 H   0  0  0  0  0  0
   -1.5643    3.9888   -0.9743 H   0  0  0  0  0  0
   -3.8507    3.1623   -0.6306 H   0  0  0  0  0  0
   -2.4435   -0.8852   -0.7478 H   0  0  0  0  0  0
    1.2547   -2.9784   -1.2765 H   0  0  0  0  0  0
    1.3952   -2.0042   -3.5207 H   0  0  0  0  0  0
   -0.2609   -1.3493   -3.3945 H   0  0  0  0  0  0
   -0.2037   -4.2907   -2.8690 H   0  0  0  0  0  0
   -1.5783   -3.2476   -2.4308 H   0  0  0  0  0  0
   -0.8509   -4.2804   -1.2118 H   0  0  0  0  0  0
   -0.6408   -0.1339    1.7152 H   0  0  0  0  0  0
    0.6242    0.1934    3.7949 H   0  0  0  0  0  0
    3.1018    0.3303    3.7500 H   0  0  0  0  0  0
    4.3108    0.1293    1.5930 H   0  0  0  0  0  0
    3.0809   -0.1938   -0.5003 H   0  0  0  0  0  0
  1  2  2  0  0  0
  1  7  1  0  0  0
  1  8  1  0  0  0
  2  3  1  0  0  0
  2 11  1  0  0  0
  3  4  1  0  0  0
  3 12  1  0  0  0
  3 18  1  0  0  0
  4  5  1  0  0  0
  4 14  1  0  0  0
  5  6  1  0  0  0
  5 24  1  0  0  0
  5 25  1  0  0  0
  6  7  1  0  0  0
  6 17  2  0  0  0
  7 26  1  0  0  0
  8  9  2  0  0  0
  8 27  1  0  0  0
  9 10  1  0  0  0
  9 28  1  0  0  0
 10 11  2  0  0  0
 10 16  1  0  0  0
 11 29  1  0  0  0
 12 13  1  0  0  0
 13 14  1  0  0  0
 13 15  1  0  0  0
 13 30  1  0  0  0
 14 31  1  0  0  0
 14 32  1  0  0  0
 15 33  1  0  0  0
 15 34  1  0  0  0
 15 35  1  0  0  0
 18 19  2  0  0  0
 18 23  1  0  0  0
 19 20  1  0  0  0
 19 36  1  0  0  0
 20 21  2  0  0  0
 20 37  1  0  0  0
 21 22  1  0  0  0
 21 38  1  0  0  0
 22 23  2  0  0  0
 22 39  1  0  0  0
 23 40  1  0  0  0
M  END
>  <Name>
Oxazolam

>  <Family>
A.9

>  <IC50_uM>
>1

>  <set>
2

$$$$
Cloxazolam
  Cerius2 12180215283D 1   1.00000                          
 Structure written by MMmdl.
 37 40  0  0  0  0  0  0  0  0999 V2000
   -0.7156    1.3626   -0.7883 C   0  0  0  0  0  0
   -0.6368   -0.0460   -0.7893 C   0  0  0  0  0  0
    0.7218   -0.7786   -0.6943 C   0  0  0  0  0  0
    1.5480   -0.6038   -1.9116 N   0  0  0  0  0  0
    1.3544    0.6259   -2.6835 C   0  0  0  0  0  0
    1.4725    1.8816   -1.8133 C   0  0  0  0  0  0
    0.3976    2.1861   -1.0127 N   0  0  0  0  0  0
   -1.9438    2.0092   -0.5999 C   0  0  0  0  0  0
   -3.1252    1.2727   -0.5313 C   0  0  0  0  0  0
   -3.0775   -0.1110   -0.6435 C   0  0  0  0  0  0
   -1.8525   -0.7670   -0.7715 C   0  0  0  0  0  0
    0.4794   -2.2098   -0.5826 O   0  0  0  0  0  0
    1.1930   -2.8475   -1.6497 C   0  0  0  0  0  0
    1.2906   -1.7917   -2.7201 C   0  0  0  0  0  0
   -4.5350   -1.0248   -0.5875 Cl  0  0  0  0  0  0
    2.4489    2.6348   -1.8753 O   0  0  0  0  0  0
    1.5138   -0.4466    0.6018 C   0  0  0  0  0  0
    0.9815   -0.5919    1.9031 C   0  0  0  0  0  0
    1.7436   -0.2715    3.0396 C   0  0  0  0  0  0
    3.0533    0.1803    2.9180 C   0  0  0  0  0  0
    3.6156    0.3026    1.6574 C   0  0  0  0  0  0
    2.8620   -0.0127    0.5225 C   0  0  0  0  0  0
   -0.6027   -1.2030    2.2389 Cl  0  0  0  0  0  0
    0.3963    0.6501   -3.2183 H   0  0  0  0  0  0
    2.1379    0.6920   -3.4486 H   0  0  0  0  0  0
    0.3723    3.1408   -0.6642 H   0  0  0  0  0  0
   -2.0003    3.0959   -0.5617 H   0  0  0  0  0  0
   -4.0749    1.7890   -0.4136 H   0  0  0  0  0  0
   -1.8471   -1.8550   -0.8029 H   0  0  0  0  0  0
    0.6446   -3.7349   -1.9764 H   0  0  0  0  0  0
    2.1773   -3.1505   -1.2750 H   0  0  0  0  0  0
    2.0892   -2.0024   -3.4371 H   0  0  0  0  0  0
    0.3365   -1.7146   -3.2563 H   0  0  0  0  0  0
    1.3187   -0.3830    4.0362 H   0  0  0  0  0  0
    3.6344    0.4227    3.8054 H   0  0  0  0  0  0
    4.6451    0.6405    1.5491 H   0  0  0  0  0  0
    3.3628    0.0880   -0.4399 H   0  0  0  0  0  0
  1  2  2  0  0  0
  1  7  1  0  0  0
  1  8  1  0  0  0
  2  3  1  0  0  0
  2 11  1  0  0  0
  3  4  1  0  0  0
  3 12  1  0  0  0
  3 17  1  0  0  0
  4  5  1  0  0  0
  4 14  1  0  0  0
  5  6  1  0  0  0
  5 24  1  0  0  0
  5 25  1  0  0  0
  6  7  1  0  0  0
  6 16  2  0  0  0
  7 26  1  0  0  0
  8  9  2  0  0  0
  8 27  1  0  0  0
  9 10  1  0  0  0
  9 28  1  0  0  0
 10 11  2  0  0  0
 10 15  1  0  0  0
 11 29  1  0  0  0
 12 13  1  0  0  0
 13 14  1  0  0  0
 13 30  1  0  0  0
 13 31  1  0  0  0
 14 32  1  0  0  0
 14 33  1  0  0  0
 17 18  2  0  0  0
 17 22  1  0  0  0
 18 19  1  0  0  0
 18 23  1  0  0  0
 19 20  2  0  0  0
 19 34  1  0  0  0
 20 21  1  0  0  0
 20 35  1  0  0  0
 21 22  2  0  0  0
 21 36  1  0  0  0
 22 37  1  0  0  0
M  END
>  <Name>
Cloxazolam

>  <Family>
A.9

>  <IC50_uM>
>1

>  <set>
1

$$$$
Ketazolam
  Cerius2 12180215283D 1   1.00000                          
Structure written by Cerius2 SD Exporter
 43 46  0  0  0  0  0  0  0  0999 V2000
   -0.5400    1.7591   -0.5616 C   0  0  0  0  0  0
   -0.5400    0.3391   -0.5616 C   0  0  0  0  0  0
    0.7376   -0.4408   -0.5616 C   0  0  0  0  0  0
    1.5097   -0.1415   -1.7518 N   0  0  0  0  0  0
    2.3619    0.9924   -1.4510 C   0  0  0  0  0  0
    1.5553    2.2706   -1.5526 C   0  0  0  0  0  0
    0.6247    2.4316   -0.5616 N   0  0  0  0  0  0
   -1.7698    2.4691   -0.5493 C   0  0  0  0  0  0
   -2.9995    1.7590   -0.5370 C   0  0  0  0  0  0
   -2.9995    0.3392   -0.5858 C   0  0  0  0  0  0
   -1.7698   -0.3708   -0.5737 C   0  0  0  0  0  0
   -4.4867   -0.5183   -0.6742 Cl  0  0  0  0  0  0
    1.1083    2.4607   -2.6586 O   0  0  0  0  0  0
    0.4491   -1.8118   -0.5093 O   0  0  0  0  0  0
   -0.1944   -2.2112   -1.6329 C   0  0  0  0  0  0
    0.0771   -1.7538   -2.8596 C   0  0  0  0  0  0
    1.3262   -0.9232   -2.8606 C   0  0  0  0  0  0
    2.0161   -1.0626   -3.8423 O   0  0  0  0  0  0
   -1.2859   -3.2230   -1.4720 C   0  0  0  0  0  0
    1.5260   -0.1069    0.6664 C   0  0  0  0  0  0
    1.0156    0.8279    1.6055 C   0  0  0  0  0  0
    1.7578    1.1355    2.7763 C   0  0  0  0  0  0
    3.0104    0.5081    3.0081 C   0  0  0  0  0  0
    3.5208   -0.4267    2.0691 C   0  0  0  0  0  0
    2.7787   -0.7343    0.8983 C   0  0  0  0  0  0
    0.9252    3.3500    0.5194 C   0  0  0  0  0  0
    3.1937    1.0336   -2.1893 H   0  0  0  0  0  0
    2.7506    0.8952   -0.4126 H   0  0  0  0  0  0
   -1.7700    3.5690   -0.5588 H   0  0  0  0  0  0
   -3.9518    2.3083   -0.4993 H   0  0  0  0  0  0
   -1.7697   -1.4708   -0.5832 H   0  0  0  0  0  0
   -0.2096   -1.6924   -3.9198 H   0  0  0  0  0  0
   -1.7305   -3.4643   -2.4633 H   0  0  0  0  0  0
   -2.0820   -2.8215   -0.8058 H   0  0  0  0  0  0
   -0.8774   -4.1552   -1.0215 H   0  0  0  0  0  0
    0.0409    1.3068    1.4305 H   0  0  0  0  0  0
    1.3580    1.8526    3.5084 H   0  0  0  0  0  0
    3.5809    0.7393    3.9198 H   0  0  0  0  0  0
    4.4868   -0.9197    2.2533 H   0  0  0  0  0  0
    3.1697   -1.4655    0.1755 H   0  0  0  0  0  0
    1.9248    3.8078    0.3461 H   0  0  0  0  0  0
    0.9443    2.7917    1.4820 H   0  0  0  0  0  0
    0.1570    4.1552    0.5423 H   0  0  0  0  0  0
  1  2  2  0  0  0
  1  7  1  0  0  0
  1  8  1  0  0  0
  2  3  1  0  0  0
  2 11  1  0  0  0
  3  4  1  6  0  0
  3 14  1  0  0  0
  3 20  1  1  0  0
  4  5  1  0  0  0
  4 17  1  6  0  0
  5  6  1  0  0  0
  5 27  1  6  0  0
  5 28  1  1  0  0
  6  7  1  1  0  0
  6 13  2  0  0  0
  7 26  1  1  0  0
  8  9  2  0  0  0
  8 29  1  0  0  0
  9 10  1  0  0  0
  9 30  1  0  0  0
 10 11  2  0  0  0
 10 12  1  0  0  0
 11 31  1  0  0  0
 14 15  1  6  0  0
 15 16  2  0  0  0
 15 19  1  0  0  0
 16 17  1  0  0  0
 16 32  1  6  0  0
 17 18  2  0  0  0
 19 33  1  6  0  0
 19 34  1  1  0  0
 19 35  1  0  0  0
 20 21  2  0  0  0
 20 25  1  0  0  0
 21 22  1  1  0  0
 21 36  1  0  0  0
 22 23  2  0  0  0
 22 37  1  1  0  0
 23 24  1  6  0  0
 23 38  1  1  0  0
 24 25  2  0  0  0
 24 39  1  0  0  0
 25 40  1  6  0  0
 26 41  1  0  0  0
 26 42  1  1  0  0
 26 43  1  0  0  0
M  END
>  <Name>
Ketazolam

>  <Family>
A.10

>  <IC50_uM>
>1

>  <set>
2

$$$$
Ro07-4668
  Cerius2 12180215283D 1   1.00000                          
 Structure written by MMmdl.
 33 34  0  0  0  0  0  0  0  0999 V2000
   -1.8954    1.9442    2.7749 C   0  0  0  0  0  0
   -1.7697    0.5652    2.8717 C   0  0  0  0  0  0
   -0.8290   -0.1102    2.1001 C   0  0  0  0  0  0
    0.0006    0.6011    1.2131 C   0  0  0  0  0  0
   -0.1153    2.0101    1.1088 C   0  0  0  0  0  0
   -1.0725    2.6606    1.8999 C   0  0  0  0  0  0
    1.0022   -0.1570    0.3960 C   0  0  0  0  0  0
    2.1021    3.3146   -2.0323 N   0  0  0  0  0  0
    1.8524    4.4277   -1.0946 C   0  0  0  0  0  0
    0.7593    4.0732   -0.0729 C   0  0  0  0  0  0
    0.7143    2.7211    0.2112 N   0  0  0  0  0  0
    0.0645    4.9513    0.4394 O   0  0  0  0  0  0
    2.0065    0.3866   -0.0602 O   0  0  0  0  0  0
    0.7955   -1.5869    0.0963 C   0  0  0  0  0  0
   -2.7796   -0.3128    3.9542 Cl  0  0  0  0  0  0
   -0.1376   -1.9729   -0.8756 C   0  0  0  0  0  0
   -0.3221   -3.3276   -1.1654 C   0  0  0  0  0  0
    0.4236   -4.2961   -0.4933 C   0  0  0  0  0  0
    1.3561   -3.9139    0.4712 C   0  0  0  0  0  0
    1.5465   -2.5613    0.7673 C   0  0  0  0  0  0
    2.6920   -2.1614    1.9997 Cl  0  0  0  0  0  0
   -1.0861   -0.8259   -1.7563 Cl  0  0  0  0  0  0
   -2.6289    2.4777    3.3758 H   0  0  0  0  0  0
   -0.7477   -1.1878    2.2115 H   0  0  0  0  0  0
   -1.2118    3.7365    1.8640 H   0  0  0  0  0  0
    2.8089    3.6346   -2.7035 H   0  0  0  0  0  0
    1.2620    3.2029   -2.6108 H   0  0  0  0  0  0
    1.5373    5.3141   -1.6541 H   0  0  0  0  0  0
    2.7702    4.6563   -0.5444 H   0  0  0  0  0  0
    1.3917    2.1706   -0.3302 H   0  0  0  0  0  0
   -1.0445   -3.6394   -1.9174 H   0  0  0  0  0  0
    0.2775   -5.3507   -0.7213 H   0  0  0  0  0  0
    1.9285   -4.6801    0.9908 H   0  0  0  0  0  0
  1  2  2  0  0  0
  1  6  1  0  0  0
  1 23  1  0  0  0
  2  3  1  0  0  0
  2 15  1  0  0  0
  3  4  2  0  0  0
  3 24  1  0  0  0
  4  5  1  0  0  0
  4  7  1  0  0  0
  5  6  2  0  0  0
  5 11  1  0  0  0
  6 25  1  0  0  0
  7 13  2  0  0  0
  7 14  1  0  0  0
  8  9  1  0  0  0
  8 26  1  0  0  0
  8 27  1  0  0  0
  9 10  1  0  0  0
  9 28  1  0  0  0
  9 29  1  0  0  0
 10 11  1  0  0  0
 10 12  2  0  0  0
 11 30  1  0  0  0
 14 16  2  0  0  0
 14 20  1  0  0  0
 16 17  1  0  0  0
 16 22  1  0  0  0
 17 18  2  0  0  0
 17 31  1  0  0  0
 18 19  1  0  0  0
 18 32  1  0  0  0
 19 20  2  0  0  0
 19 33  1  0  0  0
 20 21  1  0  0  0
M  END
>  <Name>
Ro07-4668

>  <Family>
A.11

>  <IC50_uM>
>1

>  <set>
1

$$$$
Ro11-3129
  Cerius2 12180215283D 1   1.00000                          
 Structure written by MMmdl.
 38 39  0  0  0  0  0  0  0  0999 V2000
   -2.2989    2.2319    2.8790 C   0  0  0  0  0  0
   -2.1387    1.1065    3.6895 C   0  0  0  0  0  0
   -1.0668    0.2378    3.4752 C   0  0  0  0  0  0
   -0.1531    0.4990    2.4369 C   0  0  0  0  0  0
   -0.2856    1.6447    1.6192 C   0  0  0  0  0  0
   -1.3761    2.4943    1.8562 C   0  0  0  0  0  0
    0.9299   -0.5064    2.2750 C   0  0  0  0  0  0
    2.5178    1.5442   -1.2422 N   0  0  0  0  0  0
    1.9804    2.9229   -1.1654 C   0  0  0  0  0  0
    0.7001    2.9542   -0.3104 C   0  0  0  0  0  0
    0.6755    1.9322    0.6249 N   0  0  0  0  0  0
   -0.1447    3.8362   -0.4589 O   0  0  0  0  0  0
    1.6052   -0.8015    3.2597 O   0  0  0  0  0  0
    1.1210   -1.2062    0.9742 C   0  0  0  0  0  0
   -0.0150   -1.5654    0.2287 C   0  0  0  0  0  0
    0.1203   -2.2432   -0.9845 C   0  0  0  0  0  0
    1.3856   -2.5732   -1.4615 C   0  0  0  0  0  0
    2.5191   -2.2253   -0.7264 C   0  0  0  0  0  0
    2.3945   -1.5432    0.4900 C   0  0  0  0  0  0
    3.8621   -1.1039    1.2945 Cl  0  0  0  0  0  0
   -3.0997    0.8344    4.7659 N   0  3  0  0  0  0
   -2.9431   -0.1943    5.4506 O   0  0  0  0  0  0
   -4.0292    1.6433    4.9474 O   0  5  0  0  0  0
    3.7932    1.5449   -1.9545 C   0  0  0  0  0  0
   -3.1266    2.9229    3.0268 H   0  0  0  0  0  0
   -0.9345   -0.6468    4.0949 H   0  0  0  0  0  0
   -1.5395    3.3937    1.2698 H   0  0  0  0  0  0
    1.8548    0.9854   -1.7929 H   0  0  0  0  0  0
    1.7380    3.2961   -2.1661 H   0  0  0  0  0  0
    2.7035    3.5929   -0.6869 H   0  0  0  0  0  0
    1.4864    1.3214    0.5282 H   0  0  0  0  0  0
   -1.0185   -1.3393    0.5840 H   0  0  0  0  0  0
   -0.7655   -2.5187   -1.5550 H   0  0  0  0  0  0
    1.4914   -3.1016   -2.4074 H   0  0  0  0  0  0
    3.5022   -2.4819   -1.1165 H   0  0  0  0  0  0
    4.1658    0.5191   -2.0328 H   0  0  0  0  0  0
    4.5448    2.1286   -1.4133 H   0  0  0  0  0  0
    3.6880    1.9448   -2.9683 H   0  0  0  0  0  0
  1  2  2  0  0  0
  1  6  1  0  0  0
  1 25  1  0  0  0
  2  3  1  0  0  0
  2 21  1  0  0  0
  3  4  2  0  0  0
  3 26  1  0  0  0
  4  5  1  0  0  0
  4  7  1  0  0  0
  5  6  2  0  0  0
  5 11  1  0  0  0
  6 27  1  0  0  0
  7 13  2  0  0  0
  7 14  1  0  0  0
  8  9  1  0  0  0
  8 24  1  0  0  0
  8 28  1  0  0  0
  9 10  1  0  0  0
  9 29  1  0  0  0
  9 30  1  0  0  0
 10 11  1  0  0  0
 10 12  2  0  0  0
 11 31  1  0  0  0
 14 15  2  0  0  0
 14 19  1  0  0  0
 15 16  1  0  0  0
 15 32  1  0  0  0
 16 17  2  0  0  0
 16 33  1  0  0  0
 17 18  1  0  0  0
 17 34  1  0  0  0
 18 19  2  0  0  0
 18 35  1  0  0  0
 19 20  1  0  0  0
 21 22  2  0  0  0
 21 23  1  0  0  0
 24 36  1  0  0  0
 24 37  1  0  0  0
 24 38  1  0  0  0
M  CHG  2  21   1  23  -1
M  END
>  <Name>
Ro11-3129

>  <Family>
A.11

>  <IC50_uM>
0.006500

>  <set>
2

$$$$
Ro03-7355
  Cerius2 12180215283D 1   1.00000                          
 Structure written by MMmdl.
 57 58  0  0  0  0  0  0  0  0999 V2000
   -1.6389    3.1051    3.5369 C   0  0  0  0  0  0
   -2.5214    2.1586    4.0505 C   0  0  0  0  0  0
   -2.0381    0.9929    4.6349 C   0  0  0  0  0  0
   -0.6536    0.7715    4.6981 C   0  0  0  0  0  0
    0.2595    1.7253    4.1955 C   0  0  0  0  0  0
   -0.2588    2.8931    3.6163 C   0  0  0  0  0  0
   -0.2282   -0.5347    5.2517 C   0  0  0  0  0  0
    3.1114    1.4080    0.9374 N   0  0  0  0  0  0
    2.0988    1.8997    1.8653 C   0  0  0  0  0  0
    2.6069    1.8010    3.3185 C   0  0  0  0  0  0
    1.6734    1.6002    4.3408 N   0  0  0  0  0  0
    3.8226    1.8633    3.5577 O   0  0  0  0  0  0
   -0.5205   -0.8027    6.4172 O   0  0  0  0  0  0
    0.5206   -1.5101    4.4089 C   0  0  0  0  0  0
    0.4690   -1.4705    3.0095 C   0  0  0  0  0  0
    1.1929   -2.3969    2.2552 C   0  0  0  0  0  0
    1.9566   -3.3748    2.8913 C   0  0  0  0  0  0
    1.9972   -3.4317    4.2833 C   0  0  0  0  0  0
    1.2802   -2.5035    5.0421 C   0  0  0  0  0  0
   -4.2181    2.4343    3.9642 Cl  0  0  0  0  0  0
    2.1928    1.3423    5.6825 C   0  0  0  0  0  0
    3.1233    1.4316   -0.4245 C   0  0  0  0  0  0
    4.0558    0.8507   -0.9999 O   0  0  0  0  0  0
    2.0695    2.2144   -1.2464 C   0  0  0  0  0  0
    0.6887    1.9028   -0.8255 N   0  0  0  0  0  0
    2.3929    3.7179   -1.2375 C   0  0  0  0  0  0
    1.5473    4.5831   -2.1822 C   0  0  0  0  0  0
    1.7396    4.2389   -3.6622 C   0  0  0  0  0  0
    1.0291    5.2518   -4.5605 C   0  0  0  0  0  0
    1.2239    4.9095   -5.9700 N   0  0  0  0  0  0
   -2.0132    4.0242    3.0903 H   0  0  0  0  0  0
   -2.7298    0.2501    5.0266 H   0  0  0  0  0  0
    0.3986    3.6857    3.2659 H   0  0  0  0  0  0
    3.8841    0.9001    1.3572 H   0  0  0  0  0  0
    1.2110    1.2804    1.7270 H   0  0  0  0  0  0
    1.8814    2.9443    1.6340 H   0  0  0  0  0  0
   -0.1364   -0.7377    2.4828 H   0  0  0  0  0  0
    1.1565   -2.3584    1.1679 H   0  0  0  0  0  0
    2.5174   -4.0962    2.3004 H   0  0  0  0  0  0
    2.5888   -4.1993    4.7793 H   0  0  0  0  0  0
    1.3248   -2.5579    6.1285 H   0  0  0  0  0  0
    2.6181    0.3347    5.7089 H   0  0  0  0  0  0
    1.4209    1.4505    6.4491 H   0  0  0  0  0  0
    2.9929    2.0555    5.9061 H   0  0  0  0  0  0
    2.1751    1.8301   -2.2679 H   0  0  0  0  0  0
    0.0665    2.1280   -1.6079 H   0  0  0  0  0  0
    0.4008    2.5752   -0.1116 H   0  0  0  0  0  0
    3.4526    3.8564   -1.4912 H   0  0  0  0  0  0
    2.2813    4.1185   -0.2237 H   0  0  0  0  0  0
    1.8299    5.6311   -2.0195 H   0  0  0  0  0  0
    0.4860    4.5051   -1.9177 H   0  0  0  0  0  0
    1.3465    3.2352   -3.8633 H   0  0  0  0  0  0
    2.8109    4.2231   -3.8995 H   0  0  0  0  0  0
    1.4284    6.2569   -4.3853 H   0  0  0  0  0  0
   -0.0431    5.2730   -4.3354 H   0  0  0  0  0  0
    0.6666    5.5625   -6.5357 H   0  0  0  0  0  0
    0.7763    4.0022   -6.1488 H   0  0  0  0  0  0
  1  2  2  0  0  0
  1  6  1  0  0  0
  1 31  1  0  0  0
  2  3  1  0  0  0
  2 20  1  0  0  0
  3  4  2  0  0  0
  3 32  1  0  0  0
  4  5  1  0  0  0
  4  7  1  0  0  0
  5  6  2  0  0  0
  5 11  1  0  0  0
  6 33  1  0  0  0
  7 13  2  0  0  0
  7 14  1  0  0  0
  8  9  1  0  0  0
  8 22  1  0  0  0
  8 34  1  0  0  0
  9 10  1  0  0  0
  9 35  1  0  0  0
  9 36  1  0  0  0
 10 11  1  0  0  0
 10 12  2  0  0  0
 11 21  1  0  0  0
 14 15  2  0  0  0
 14 19  1  0  0  0
 15 16  1  0  0  0
 15 37  1  0  0  0
 16 17  2  0  0  0
 16 38  1  0  0  0
 17 18  1  0  0  0
 17 39  1  0  0  0
 18 19  2  0  0  0
 18 40  1  0  0  0
 19 41  1  0  0  0
 21 42  1  0  0  0
 21 43  1  0  0  0
 21 44  1  0  0  0
 22 23  2  0  0  0
 22 24  1  0  0  0
 24 25  1  0  0  0
 24 26  1  0  0  0
 24 45  1  0  0  0
 25 46  1  0  0  0
 25 47  1  0  0  0
 26 27  1  0  0  0
 26 48  1  0  0  0
 26 49  1  0  0  0
 27 28  1  0  0  0
 27 50  1  0  0  0
 27 51  1  0  0  0
 28 29  1  0  0  0
 28 52  1  0  0  0
 28 53  1  0  0  0
 29 30  1  0  0  0
 29 54  1  0  0  0
 29 55  1  0  0  0
 30 56  1  0  0  0
 30 57  1  0  0  0
M  END
>  <Name>
Ro03-7355

>  <Family>
A.11

>  <IC50_uM>
0.420000

>  <set>
1

$$$$
Ro31-0214
  Cerius2 12180215283D 1   1.00000                          
 Structure written by MMmdl.
 46 48  0  0  0  0  0  0  0  0999 V2000
   -1.6350    2.2239    5.1479 C   0  0  0  0  0  0
   -1.3942    1.2478    6.1090 C   0  0  0  0  0  0
   -0.3447    0.3521    5.9465 C   0  0  0  0  0  0
    0.4660    0.4368    4.8034 C   0  0  0  0  0  0
    0.2574    1.4341    3.8244 C   0  0  0  0  0  0
   -0.8129    2.3169    4.0167 C   0  0  0  0  0  0
    1.5253   -0.5901    4.6802 C   0  0  0  0  0  0
    1.7939    1.2967   -0.4858 N   0  0  0  0  0  0
    2.1721    2.1881    0.6048 C   0  0  0  0  0  0
    0.9993    2.3375    1.5880 C   0  0  0  0  0  0
    1.1378    1.5425    2.7165 N   0  0  0  0  0  0
    0.0163    3.0232    1.3041 O   0  0  0  0  0  0
    2.4220   -0.6090    5.5247 O   0  0  0  0  0  0
    1.4863   -1.5738    3.5496 C   0  0  0  0  0  0
    0.3131   -1.8604    2.8595 C   0  0  0  0  0  0
    0.3711   -2.7719    1.8082 C   0  0  0  0  0  0
    1.5844   -3.3680    1.4835 C   0  0  0  0  0  0
    2.7026   -3.0334    2.2277 C   0  0  0  0  0  0
    2.6842   -2.1513    3.2540 N   0  0  0  0  0  0
   -2.5011    1.1371    7.6369 Br  0  0  0  0  0  0
    1.5257    1.5981   -1.7898 C   0  0  0  0  0  0
    1.6953    3.0512   -2.2833 C   0  0  0  0  0  0
    1.1560    0.6908   -2.5462 O   0  0  0  0  0  0
    1.8303    3.0795   -3.7721 N   0  0  0  0  0  0
    1.1447    4.3077   -4.1943 C   0  0  0  0  0  0
   -0.0603    4.3792   -3.2837 C   0  0  0  0  0  0
    0.4800    3.9117   -1.9437 C   0  0  0  0  0  0
   -2.4536    2.9314    5.2672 H   0  0  0  0  0  0
   -0.1577   -0.4182    6.6914 H   0  0  0  0  0  0
   -1.0298    3.1182    3.3166 H   0  0  0  0  0  0
    1.6629    0.3198   -0.2420 H   0  0  0  0  0  0
    2.4437    3.1818    0.2444 H   0  0  0  0  0  0
    3.0458    1.7504    1.0966 H   0  0  0  0  0  0
    1.9750    0.9671    2.7355 H   0  0  0  0  0  0
   -0.6368   -1.4047    3.1178 H   0  0  0  0  0  0
   -0.5275   -3.0179    1.2463 H   0  0  0  0  0  0
    1.6568   -4.0821    0.6687 H   0  0  0  0  0  0
    3.6689   -3.4815    2.0061 H   0  0  0  0  0  0
    2.6121    3.4748   -1.8617 H   0  0  0  0  0  0
    1.2820    2.2815   -4.1240 H   0  0  0  0  0  0
    0.8647    4.2675   -5.2509 H   0  0  0  0  0  0
    1.8049    5.1699   -4.0459 H   0  0  0  0  0  0
   -0.8424    3.6929   -3.6309 H   0  0  0  0  0  0
   -0.4881    5.3845   -3.2302 H   0  0  0  0  0  0
    0.7960    4.7789   -1.3518 H   0  0  0  0  0  0
   -0.2946    3.3813   -1.3814 H   0  0  0  0  0  0
  1  2  2  0  0  0
  1  6  1  0  0  0
  1 28  1  0  0  0
  2  3  1  0  0  0
  2 20  1  0  0  0
  3  4  2  0  0  0
  3 29  1  0  0  0
  4  5  1  0  0  0
  4  7  1  0  0  0
  5  6  2  0  0  0
  5 11  1  0  0  0
  6 30  1  0  0  0
  7 13  2  0  0  0
  7 14  1  0  0  0
  8  9  1  0  0  0
  8 21  1  0  0  0
  8 31  1  0  0  0
  9 10  1  0  0  0
  9 32  1  0  0  0
  9 33  1  0  0  0
 10 11  1  0  0  0
 10 12  2  0  0  0
 11 34  1  0  0  0
 14 15  2  0  0  0
 14 19  1  0  0  0
 15 16  1  0  0  0
 15 35  1  0  0  0
 16 17  2  0  0  0
 16 36  1  0  0  0
 17 18  1  0  0  0
 17 37  1  0  0  0
 18 19  2  0  0  0
 18 38  1  0  0  0
 21 22  1  0  0  0
 21 23  2  0  0  0
 22 24  1  0  0  0
 22 27  1  0  0  0
 22 39  1  0  0  0
 24 25  1  0  0  0
 24 40  1  0  0  0
 25 26  1  0  0  0
 25 41  1  0  0  0
 25 42  1  0  0  0
 26 27  1  0  0  0
 26 43  1  0  0  0
 26 44  1  0  0  0
 27 45  1  0  0  0
 27 46  1  0  0  0
M  END
>  <Name>
Ro31-0214

>  <Family>
A.11

>  <IC50_uM>
>1

>  <set>
1

$$$$
Clobazam
  Cerius2 12180215283D 1   1.00000                          
 Structure written by MMmdl.
 34 36  0  0  0  0  0  0  0  0999 V2000
    0.2935    2.1179    0.0629 C   0  0  0  0  0  0
    0.0436    0.7208    0.1524 C   0  0  0  0  0  0
    1.0783   -0.2889    0.2101 N   0  0  0  0  0  0
    2.2568   -0.1332    0.9464 C   0  0  0  0  0  0
    2.3352    1.0997    1.7870 C   0  0  0  0  0  0
    2.6404    2.2616    0.8974 C   0  0  0  0  0  0
    1.6011    2.7113    0.0911 N   0  0  0  0  0  0
   -0.8104    2.9864   -0.0944 C   0  0  0  0  0  0
   -2.1256    2.5189   -0.1124 C   0  0  0  0  0  0
   -2.3676    1.1647    0.0274 C   0  0  0  0  0  0
   -1.3028    0.2781    0.1610 C   0  0  0  0  0  0
    0.8637   -1.4972   -0.5505 C   0  0  0  0  0  0
    0.2696   -1.4544   -1.8256 C   0  0  0  0  0  0
    0.0669   -2.6224   -2.5672 C   0  0  0  0  0  0
    0.4578   -3.8537   -2.0500 C   0  0  0  0  0  0
    1.0548   -3.9169   -0.7942 C   0  0  0  0  0  0
    1.2597   -2.7483   -0.0530 C   0  0  0  0  0  0
   -3.9841    0.5758    0.0338 Cl  0  0  0  0  0  0
    1.8304    3.9343   -0.6780 C   0  0  0  0  0  0
    3.7539    2.7975    0.9274 O   0  0  0  0  0  0
    3.2151   -0.9159    0.9301 O   0  0  0  0  0  0
    3.1499    0.9828    2.5111 H   0  0  0  0  0  0
    1.4243    1.2603    2.3712 H   0  0  0  0  0  0
   -0.6745    4.0640   -0.1686 H   0  0  0  0  0  0
   -2.9460    3.2245   -0.2197 H   0  0  0  0  0  0
   -1.5312   -0.7794    0.2850 H   0  0  0  0  0  0
   -0.0205   -0.5072   -2.2773 H   0  0  0  0  0  0
   -0.3914   -2.5665   -3.5530 H   0  0  0  0  0  0
    0.3001   -4.7634   -2.6264 H   0  0  0  0  0  0
    1.3598   -4.8786   -0.3848 H   0  0  0  0  0  0
    1.7054   -2.8435    0.9352 H   0  0  0  0  0  0
    2.8929    4.0512   -0.9136 H   0  0  0  0  0  0
    1.5197    4.7964   -0.0797 H   0  0  0  0  0  0
    1.2826    3.9009   -1.6251 H   0  0  0  0  0  0
  1  2  2  0  0  0
  1  7  1  0  0  0
  1  8  1  0  0  0
  2  3  1  0  0  0
  2 11  1  0  0  0
  3  4  1  0  0  0
  3 12  1  0  0  0
  4  5  1  0  0  0
  4 21  2  0  0  0
  5  6  1  0  0  0
  5 22  1  0  0  0
  5 23  1  0  0  0
  6  7  1  0  0  0
  6 20  2  0  0  0
  7 19  1  0  0  0
  8  9  2  0  0  0
  8 24  1  0  0  0
  9 10  1  0  0  0
  9 25  1  0  0  0
 10 11  2  0  0  0
 10 18  1  0  0  0
 11 26  1  0  0  0
 12 13  2  0  0  0
 12 17  1  0  0  0
 13 14  1  0  0  0
 13 27  1  0  0  0
 14 15  2  0  0  0
 14 28  1  0  0  0
 15 16  1  0  0  0
 15 29  1  0  0  0
 16 17  2  0  0  0
 16 30  1  0  0  0
 17 31  1  0  0  0
 19 32  1  0  0  0
 19 33  1  0  0  0
 19 34  1  0  0  0
M  END
>  <Name>
Clobazam

>  <Family>
A.12

>  <IC50_uM>
0.130000

>  <set>
1

$$$$
Desmethylclobazam
  Cerius2 12180215283D 1   1.00000                          
 Structure written by MMmdl.
 31 33  0  0  0  0  0  0  0  0999 V2000
    0.2846    2.0670    0.1063 C   0  0  0  0  0  0
    0.0222    0.6804    0.2228 C   0  0  0  0  0  0
    1.0481   -0.3416    0.2844 N   0  0  0  0  0  0
    2.2968   -0.1664    0.8905 C   0  0  0  0  0  0
    2.4549    1.0493    1.7413 C   0  0  0  0  0  0
    2.6402    2.2551    0.8844 C   0  0  0  0  0  0
    1.5472    2.6832    0.1902 N   0  0  0  0  0  0
   -0.7748    2.9595   -0.1470 C   0  0  0  0  0  0
   -2.0971    2.5225   -0.1908 C   0  0  0  0  0  0
   -2.3733    1.1812    0.0139 C   0  0  0  0  0  0
   -1.3337    0.2738    0.2177 C   0  0  0  0  0  0
    0.7780   -1.5889   -0.3907 C   0  0  0  0  0  0
    0.1562   -1.6157   -1.6522 C   0  0  0  0  0  0
   -0.0963   -2.8265   -2.3041 C   0  0  0  0  0  0
    0.2733   -4.0296   -1.7097 C   0  0  0  0  0  0
    0.9004   -4.0231   -0.4667 C   0  0  0  0  0  0
    1.1553   -2.8123    0.1851 C   0  0  0  0  0  0
   -4.0034    0.6292   -0.0016 Cl  0  0  0  0  0  0
    3.7014    2.8841    0.8502 O   0  0  0  0  0  0
    3.2522   -0.9455    0.7720 O   0  0  0  0  0  0
    3.3416    0.9255    2.3738 H   0  0  0  0  0  0
    1.6035    1.1741    2.4183 H   0  0  0  0  0  0
    1.6452    3.6133   -0.2102 H   0  0  0  0  0  0
   -0.5820    4.0242   -0.2777 H   0  0  0  0  0  0
   -2.8967    3.2381   -0.3655 H   0  0  0  0  0  0
   -1.5942   -0.7716    0.3750 H   0  0  0  0  0  0
   -0.1168   -0.6930   -2.1615 H   0  0  0  0  0  0
   -0.5766   -2.8268   -3.2811 H   0  0  0  0  0  0
    0.0765   -4.9724   -2.2169 H   0  0  0  0  0  0
    1.1908   -4.9622    0.0012 H   0  0  0  0  0  0
    1.6289   -2.8457    1.1646 H   0  0  0  0  0  0
  1  2  2  0  0  0
  1  7  1  0  0  0
  1  8  1  0  0  0
  2  3  1  0  0  0
  2 11  1  0  0  0
  3  4  1  0  0  0
  3 12  1  0  0  0
  4  5  1  0  0  0
  4 20  2  0  0  0
  5  6  1  0  0  0
  5 21  1  0  0  0
  5 22  1  0  0  0
  6  7  1  0  0  0
  6 19  2  0  0  0
  7 23  1  0  0  0
  8  9  2  0  0  0
  8 24  1  0  0  0
  9 10  1  0  0  0
  9 25  1  0  0  0
 10 11  2  0  0  0
 10 18  1  0  0  0
 11 26  1  0  0  0
 12 13  2  0  0  0
 12 17  1  0  0  0
 13 14  1  0  0  0
 13 27  1  0  0  0
 14 15  2  0  0  0
 14 28  1  0  0  0
 15 16  1  0  0  0
 15 29  1  0  0  0
 16 17  2  0  0  0
 16 30  1  0  0  0
 17 31  1  0  0  0
M  END
>  <Name>
Desmethylclobazam

>  <Family>
A.12

>  <IC50_uM>
0.210000

>  <set>
1

$$$$
U-35005
  Cerius2 12180215283D 1   1.00000                          
 Structure written by MMmdl.
 35 38  0  0  0  0  0  0  0  0999 V2000
    0.2568    2.1803    0.0672 C   0  0  0  0  0  0
    0.0533    0.7869    0.1533 C   0  0  0  0  0  0
    1.1723   -0.2161    0.1904 C   0  0  0  0  0  0
    2.2380   -0.1390    0.9208 N   0  0  0  0  0  0
    2.4096    1.0239    1.7885 C   0  0  0  0  0  0
    2.5727    2.2467    0.9688 C   0  0  0  0  0  0
    1.5541    2.7432    0.1810 N   0  0  0  0  0  0
   -0.8510    3.0305   -0.0834 C   0  0  0  0  0  0
   -2.1447    2.5084   -0.1390 C   0  0  0  0  0  0
   -2.3495    1.1375   -0.0377 C   0  0  0  0  0  0
   -1.2589    0.2811    0.1086 C   0  0  0  0  0  0
    1.0521   -1.4228   -0.6798 C   0  0  0  0  0  0
    3.6195    3.0459    0.9185 N   0  0  0  0  0  0
    3.3159    4.0773    0.0770 N   0  0  0  0  0  0
    2.0898    3.8938   -0.3815 C   0  0  0  0  0  0
    1.4508    4.7334   -1.4256 C   0  0  0  0  0  0
    1.4949   -2.6447   -0.1522 C   0  0  0  0  0  0
    1.3946   -3.8112   -0.9109 C   0  0  0  0  0  0
    0.8638   -3.7605   -2.1989 C   0  0  0  0  0  0
    0.4403   -2.5422   -2.7351 C   0  0  0  0  0  0
    0.5367   -1.3680   -1.9820 C   0  0  0  0  0  0
    0.0523    0.1100   -2.7360 Cl  0  0  0  0  0  0
    3.3134    0.8696    2.3885 H   0  0  0  0  0  0
    1.5821    1.1186    2.5019 H   0  0  0  0  0  0
   -0.7502    4.1125   -0.1042 H   0  0  0  0  0  0
   -2.9967    3.1788   -0.2430 H   0  0  0  0  0  0
   -3.3596    0.7327   -0.0720 H   0  0  0  0  0  0
   -1.4530   -0.7874    0.1855 H   0  0  0  0  0  0
    2.2201    5.2463   -2.0129 H   0  0  0  0  0  0
    0.8185    5.5016   -0.9719 H   0  0  0  0  0  0
    0.8572    4.1358   -2.1234 H   0  0  0  0  0  0
    1.9095   -2.6926    0.8531 H   0  0  0  0  0  0
    1.7314   -4.7603   -0.4972 H   0  0  0  0  0  0
    0.7867   -4.6706   -2.7917 H   0  0  0  0  0  0
    0.0429   -2.5177   -3.7480 H   0  0  0  0  0  0
  1  2  2  0  0  0
  1  7  1  0  0  0
  1  8  1  0  0  0
  2  3  1  0  0  0
  2 11  1  0  0  0
  3  4  2  0  0  0
  3 12  1  0  0  0
  4  5  1  0  0  0
  5  6  1  0  0  0
  5 23  1  0  0  0
  5 24  1  0  0  0
  6  7  1  0  0  0
  6 13  2  0  0  0
  7 15  1  0  0  0
  8  9  2  0  0  0
  8 25  1  0  0  0
  9 10  1  0  0  0
  9 26  1  0  0  0
 10 11  2  0  0  0
 10 27  1  0  0  0
 11 28  1  0  0  0
 12 17  2  0  0  0
 12 21  1  0  0  0
 13 14  1  0  0  0
 14 15  2  0  0  0
 15 16  1  0  0  0
 16 29  1  0  0  0
 16 30  1  0  0  0
 16 31  1  0  0  0
 17 18  1  0  0  0
 17 32  1  0  0  0
 18 19  2  0  0  0
 18 33  1  0  0  0
 19 20  1  0  0  0
 19 34  1  0  0  0
 20 21  2  0  0  0
 20 35  1  0  0  0
 21 22  1  0  0  0
M  END
>  <Name>
U-35005

>  <Family>
A.13

>  <IC50_uM>
0.004300

>  <set>
1

$$$$
Estazolam
  Cerius2 12180215283D 1   1.00000                          
 Structure written by MMmdl.
 32 35  0  0  0  0  0  0  0  0999 V2000
    0.2517    2.1723    0.0714 C   0  0  0  0  0  0
    0.0510    0.7829    0.2032 C   0  0  0  0  0  0
    1.1711   -0.2229    0.2293 C   0  0  0  0  0  0
    2.2585   -0.1290    0.9236 N   0  0  0  0  0  0
    2.4693    1.0400    1.7695 C   0  0  0  0  0  0
    2.5918    2.2612    0.9412 C   0  0  0  0  0  0
    1.5344    2.7528    0.2085 N   0  0  0  0  0  0
   -0.8490    3.0156   -0.1617 C   0  0  0  0  0  0
   -2.1436    2.4922   -0.1982 C   0  0  0  0  0  0
   -2.3462    1.1306   -0.0040 C   0  0  0  0  0  0
   -1.2624    0.2778    0.1943 C   0  0  0  0  0  0
    1.0422   -1.4395   -0.6394 C   0  0  0  0  0  0
    3.6225    3.0824    0.8523 N   0  0  0  0  0  0
    3.2391    4.1545    0.0899 N   0  0  0  0  0  0
    1.9867    3.9589   -0.2661 C   0  0  0  0  0  0
    1.4763   -2.6776   -0.1500 C   0  0  0  0  0  0
    1.3721   -3.8192   -0.9470 C   0  0  0  0  0  0
    0.8452   -3.7254   -2.2349 C   0  0  0  0  0  0
    0.4266   -2.4908   -2.7317 C   0  0  0  0  0  0
    0.5280   -1.3457   -1.9389 C   0  0  0  0  0  0
   -3.9443    0.4917   -0.0289 Cl  0  0  0  0  0  0
    3.3994    0.8918    2.3297 H   0  0  0  0  0  0
    1.6745    1.1386    2.5187 H   0  0  0  0  0  0
   -0.7383    4.0927   -0.2717 H   0  0  0  0  0  0
   -2.9871    3.1600   -0.3602 H   0  0  0  0  0  0
   -1.4458   -0.7869    0.3240 H   0  0  0  0  0  0
    1.3915    4.6252   -0.8749 H   0  0  0  0  0  0
    1.8893   -2.7610    0.8533 H   0  0  0  0  0  0
    1.7037   -4.7824   -0.5632 H   0  0  0  0  0  0
    0.7657   -4.6164   -2.8559 H   0  0  0  0  0  0
    0.0248   -2.4191   -3.7410 H   0  0  0  0  0  0
    0.2138   -0.3900   -2.3523 H   0  0  0  0  0  0
  1  2  2  0  0  0
  1  7  1  0  0  0
  1  8  1  0  0  0
  2  3  1  0  0  0
  2 11  1  0  0  0
  3  4  2  0  0  0
  3 12  1  0  0  0
  4  5  1  0  0  0
  5  6  1  0  0  0
  5 22  1  0  0  0
  5 23  1  0  0  0
  6  7  1  0  0  0
  6 13  2  0  0  0
  7 15  1  0  0  0
  8  9  2  0  0  0
  8 24  1  0  0  0
  9 10  1  0  0  0
  9 25  1  0  0  0
 10 11  2  0  0  0
 10 21  1  0  0  0
 11 26  1  0  0  0
 12 16  2  0  0  0
 12 20  1  0  0  0
 13 14  1  0  0  0
 14 15  2  0  0  0
 15 27  1  0  0  0
 16 17  1  0  0  0
 16 28  1  0  0  0
 17 18  2  0  0  0
 17 29  1  0  0  0
 18 19  1  0  0  0
 18 30  1  0  0  0
 19 20  2  0  0  0
 19 31  1  0  0  0
 20 32  1  0  0  0
M  END
>  <Name>
Estazolam

>  <Family>
A.13

>  <IC50_uM>
0.008500

>  <set>
1

$$$$
Alprazolam
  Cerius2 12180215283D 1   1.00000                          
 Structure written by MMmdl.
 35 38  0  0  0  0  0  0  0  0999 V2000
    0.2622    2.1700    0.0293 C   0  0  0  0  0  0
    0.0454    0.7829    0.1707 C   0  0  0  0  0  0
    1.1557   -0.2301    0.2263 C   0  0  0  0  0  0
    2.2160   -0.1369    0.9630 N   0  0  0  0  0  0
    2.3918    1.0492    1.7976 C   0  0  0  0  0  0
    2.5735    2.2441    0.9396 C   0  0  0  0  0  0
    1.5650    2.7244    0.1282 N   0  0  0  0  0  0
   -0.8391    3.0250   -0.1399 C   0  0  0  0  0  0
   -2.1396    2.5134   -0.1496 C   0  0  0  0  0  0
   -2.3507    1.1502    0.0210 C   0  0  0  0  0  0
   -1.2710    0.2866    0.1849 C   0  0  0  0  0  0
    1.0457   -1.4459   -0.6451 C   0  0  0  0  0  0
    3.6290    3.0299    0.8686 N   0  0  0  0  0  0
    3.3397    4.0382   -0.0057 N   0  0  0  0  0  0
    2.1129    3.8545   -0.4627 C   0  0  0  0  0  0
    1.4881   -2.6807   -0.1547 C   0  0  0  0  0  0
    1.4021   -3.8222   -0.9540 C   0  0  0  0  0  0
    0.8846   -3.7322   -2.2459 C   0  0  0  0  0  0
    0.4573   -2.5013   -2.7439 C   0  0  0  0  0  0
    0.5405   -1.3562   -1.9486 C   0  0  0  0  0  0
   -3.9548    0.5268    0.0277 Cl  0  0  0  0  0  0
    1.4835    4.6741   -1.5281 C   0  0  0  0  0  0
    3.2901    0.9050    2.4085 H   0  0  0  0  0  0
    1.5604    1.1740    2.5016 H   0  0  0  0  0  0
   -0.7292    4.1041   -0.2057 H   0  0  0  0  0  0
   -2.9811    3.1928   -0.2682 H   0  0  0  0  0  0
   -1.4594   -0.7769    0.3156 H   0  0  0  0  0  0
    1.8939   -2.7623    0.8518 H   0  0  0  0  0  0
    1.7404   -4.7826   -0.5686 H   0  0  0  0  0  0
    0.8191   -4.6230   -2.8687 H   0  0  0  0  0  0
    0.0626   -2.4322   -3.7563 H   0  0  0  0  0  0
    0.2195   -0.4039   -2.3647 H   0  0  0  0  0  0
    2.2583    5.1633   -2.1282 H   0  0  0  0  0  0
    0.8597    5.4605   -1.0941 H   0  0  0  0  0  0
    0.8828    4.0656   -2.2102 H   0  0  0  0  0  0
  1  2  2  0  0  0
  1  7  1  0  0  0
  1  8  1  0  0  0
  2  3  1  0  0  0
  2 11  1  0  0  0
  3  4  2  0  0  0
  3 12  1  0  0  0
  4  5  1  0  0  0
  5  6  1  0  0  0
  5 23  1  0  0  0
  5 24  1  0  0  0
  6  7  1  0  0  0
  6 13  2  0  0  0
  7 15  1  0  0  0
  8  9  2  0  0  0
  8 25  1  0  0  0
  9 10  1  0  0  0
  9 26  1  0  0  0
 10 11  2  0  0  0
 10 21  1  0  0  0
 11 27  1  0  0  0
 12 16  2  0  0  0
 12 20  1  0  0  0
 13 14  1  0  0  0
 14 15  2  0  0  0
 15 22  1  0  0  0
 16 17  1  0  0  0
 16 28  1  0  0  0
 17 18  2  0  0  0
 17 29  1  0  0  0
 18 19  1  0  0  0
 18 30  1  0  0  0
 19 20  2  0  0  0
 19 31  1  0  0  0
 20 32  1  0  0  0
 22 33  1  0  0  0
 22 34  1  0  0  0
 22 35  1  0  0  0
M  END
>  <Name>
Alprazolam

>  <Family>
A.13

>  <IC50_uM>
0.020000

>  <set>
1

$$$$
Triazolam
  Cerius2 12180215283D 1   1.00000                          
 Structure written by MMmdl.
 35 38  0  0  0  0  0  0  0  0999 V2000
    0.2564    2.1836    0.0758 C   0  0  0  0  0  0
    0.0542    0.7892    0.1656 C   0  0  0  0  0  0
    1.1754   -0.2119    0.1901 C   0  0  0  0  0  0
    2.2472   -0.1326    0.9106 N   0  0  0  0  0  0
    2.4266    1.0297    1.7773 C   0  0  0  0  0  0
    2.5808    2.2528    0.9565 C   0  0  0  0  0  0
    1.5547    2.7481    0.1778 N   0  0  0  0  0  0
   -0.8533    3.0324   -0.0675 C   0  0  0  0  0  0
   -2.1475    2.5078   -0.1136 C   0  0  0  0  0  0
   -2.3440    1.1362   -0.0081 C   0  0  0  0  0  0
   -1.2564    0.2781    0.1334 C   0  0  0  0  0  0
    1.0493   -1.4194   -0.6795 C   0  0  0  0  0  0
    3.6263    3.0529    0.8964 N   0  0  0  0  0  0
    3.3142    4.0837    0.0574 N   0  0  0  0  0  0
    2.0842    3.8991   -0.3900 C   0  0  0  0  0  0
    1.4892   -2.6420   -0.1508 C   0  0  0  0  0  0
    1.3817   -3.8100   -0.9062 C   0  0  0  0  0  0
    0.8458   -3.7607   -2.1920 C   0  0  0  0  0  0
    0.4246   -2.5423   -2.7296 C   0  0  0  0  0  0
    0.5286   -1.3664   -1.9798 C   0  0  0  0  0  0
   -3.9404    0.4945   -0.0537 Cl  0  0  0  0  0  0
    1.4354    4.7380   -1.4285 C   0  0  0  0  0  0
    0.0440    0.1106   -2.7356 Cl  0  0  0  0  0  0
    3.3365    0.8756    2.3684 H   0  0  0  0  0  0
    1.6061    1.1236    2.4988 H   0  0  0  0  0  0
   -0.7546    4.1144   -0.0906 H   0  0  0  0  0  0
   -2.9955    3.1822   -0.2135 H   0  0  0  0  0  0
   -1.4389   -0.7910    0.2151 H   0  0  0  0  0  0
    1.9073   -2.6895    0.8531 H   0  0  0  0  0  0
    1.7163   -4.7594   -0.4913 H   0  0  0  0  0  0
    0.7629   -4.6720   -2.7821 H   0  0  0  0  0  0
    0.0229   -2.5188   -3.7407 H   0  0  0  0  0  0
    2.1990    5.2515   -2.0225 H   0  0  0  0  0  0
    0.8063    5.5057   -0.9693 H   0  0  0  0  0  0
    0.8362    4.1398   -2.1210 H   0  0  0  0  0  0
  1  2  2  0  0  0
  1  7  1  0  0  0
  1  8  1  0  0  0
  2  3  1  0  0  0
  2 11  1  0  0  0
  3  4  2  0  0  0
  3 12  1  0  0  0
  4  5  1  0  0  0
  5  6  1  0  0  0
  5 24  1  0  0  0
  5 25  1  0  0  0
  6  7  1  0  0  0
  6 13  2  0  0  0
  7 15  1  0  0  0
  8  9  2  0  0  0
  8 26  1  0  0  0
  9 10  1  0  0  0
  9 27  1  0  0  0
 10 11  2  0  0  0
 10 21  1  0  0  0
 11 28  1  0  0  0
 12 16  2  0  0  0
 12 20  1  0  0  0
 13 14  1  0  0  0
 14 15  2  0  0  0
 15 22  1  0  0  0
 16 17  1  0  0  0
 16 29  1  0  0  0
 17 18  2  0  0  0
 17 30  1  0  0  0
 18 19  1  0  0  0
 18 31  1  0  0  0
 19 20  2  0  0  0
 19 32  1  0  0  0
 20 23  1  0  0  0
 22 33  1  0  0  0
 22 34  1  0  0  0
 22 35  1  0  0  0
M  END
>  <Name>
Triazolam

>  <Family>
A.13

>  <IC50_uM>
0.004000

>  <set>
2

$$$$
alpha-hydroxytriazolam
  Cerius2 12180215283D 1   1.00000                          
 Structure written by MMmdl.
 36 39  0  0  0  0  0  0  0  0999 V2000
    0.2631    2.1690    0.0244 C   0  0  0  0  0  0
    0.0444    0.7819    0.1655 C   0  0  0  0  0  0
    1.1541   -0.2309    0.2236 C   0  0  0  0  0  0
    2.2121   -0.1360    0.9636 N   0  0  0  0  0  0
    2.3831    1.0497    1.8003 C   0  0  0  0  0  0
    2.5682    2.2459    0.9442 C   0  0  0  0  0  0
    1.5678    2.7204    0.1191 N   0  0  0  0  0  0
   -0.8372    3.0275   -0.1342 C   0  0  0  0  0  0
   -2.1384    2.5177   -0.1410 C   0  0  0  0  0  0
   -2.3513    1.1539    0.0241 C   0  0  0  0  0  0
   -1.2726    0.2877    0.1819 C   0  0  0  0  0  0
    1.0466   -1.4473   -0.6472 C   0  0  0  0  0  0
    3.6176    3.0406    0.8906 N   0  0  0  0  0  0
    3.3349    4.0436    0.0075 N   0  0  0  0  0  0
    2.1204    3.8436   -0.4833 C   0  0  0  0  0  0
    1.4901   -2.6813   -0.1554 C   0  0  0  0  0  0
    1.4062   -3.8237   -0.9537 C   0  0  0  0  0  0
    0.8896   -3.7355   -2.2460 C   0  0  0  0  0  0
    0.4612   -2.5055   -2.7455 C   0  0  0  0  0  0
    0.5424   -1.3596   -1.9512 C   0  0  0  0  0  0
   -3.9565    0.5334    0.0340 Cl  0  0  0  0  0  0
    1.4736    4.6360   -1.5673 C   0  0  0  0  0  0
    2.3957    5.6498   -1.9837 O   0  0  0  0  0  0
    3.2786    0.9055    2.4152 H   0  0  0  0  0  0
    1.5483    1.1735    2.5004 H   0  0  0  0  0  0
   -0.7269    4.1074   -0.1914 H   0  0  0  0  0  0
   -2.9797    3.1990   -0.2518 H   0  0  0  0  0  0
   -1.4624   -0.7758    0.3111 H   0  0  0  0  0  0
    1.8950   -2.7616    0.8516 H   0  0  0  0  0  0
    1.7453   -4.7833   -0.5672 H   0  0  0  0  0  0
    0.8257   -4.6270   -2.8681 H   0  0  0  0  0  0
    0.0673   -2.4379   -3.7582 H   0  0  0  0  0  0
    0.2204   -0.4083   -2.3687 H   0  0  0  0  0  0
    0.5694    5.1274   -1.1974 H   0  0  0  0  0  0
    1.2424    4.0243   -2.4433 H   0  0  0  0  0  0
    1.9154    6.1582   -2.6704 H   0  0  0  0  0  0
  1  2  2  0  0  0
  1  7  1  0  0  0
  1  8  1  0  0  0
  2  3  1  0  0  0
  2 11  1  0  0  0
  3  4  2  0  0  0
  3 12  1  0  0  0
  4  5  1  0  0  0
  5  6  1  0  0  0
  5 24  1  0  0  0
  5 25  1  0  0  0
  6  7  1  0  0  0
  6 13  2  0  0  0
  7 15  1  0  0  0
  8  9  2  0  0  0
  8 26  1  0  0  0
  9 10  1  0  0  0
  9 27  1  0  0  0
 10 11  2  0  0  0
 10 21  1  0  0  0
 11 28  1  0  0  0
 12 16  2  0  0  0
 12 20  1  0  0  0
 13 14  1  0  0  0
 14 15  2  0  0  0
 15 22  1  0  0  0
 16 17  1  0  0  0
 16 29  1  0  0  0
 17 18  2  0  0  0
 17 30  1  0  0  0
 18 19  1  0  0  0
 18 31  1  0  0  0
 19 20  2  0  0  0
 19 32  1  0  0  0
 20 33  1  0  0  0
 22 23  1  0  0  0
 22 34  1  0  0  0
 22 35  1  0  0  0
 23 36  1  0  0  0
M  END
>  <Name>
alpha-hydroxytriazolam

>  <Family>
A.13

>  <IC50_uM>
0.004200

>  <set>
2

$$$$
Adinazolam
  Cerius2 12180215283D 1   1.00000                          
 Structure written by MMmdl.
 43 46  0  0  0  0  0  0  0  0999 V2000
    0.2635    2.1659    0.0195 C   0  0  0  0  0  0
    0.0426    0.7801    0.1643 C   0  0  0  0  0  0
    1.1521   -0.2322    0.2243 C   0  0  0  0  0  0
    2.2086   -0.1360    0.9663 N   0  0  0  0  0  0
    2.3779    1.0508    1.8025 C   0  0  0  0  0  0
    2.5645    2.2464    0.9456 C   0  0  0  0  0  0
    1.5688    2.7143    0.1117 N   0  0  0  0  0  0
   -0.8347    3.0275   -0.1359 C   0  0  0  0  0  0
   -2.1369    2.5206   -0.1391 C   0  0  0  0  0  0
   -2.3521    1.1570    0.0274 C   0  0  0  0  0  0
   -1.2749    0.2884    0.1837 C   0  0  0  0  0  0
    1.0467   -1.4484   -0.6471 C   0  0  0  0  0  0
    3.6102    3.0462    0.8986 N   0  0  0  0  0  0
    3.3323    4.0420    0.0054 N   0  0  0  0  0  0
    2.1269    3.8287   -0.5020 C   0  0  0  0  0  0
    1.4914   -2.6822   -0.1559 C   0  0  0  0  0  0
    1.4099   -3.8240   -0.9554 C   0  0  0  0  0  0
    0.8948   -3.7353   -2.2483 C   0  0  0  0  0  0
    0.4652   -2.5055   -2.7471 C   0  0  0  0  0  0
    0.5439   -1.3602   -1.9517 C   0  0  0  0  0  0
   -3.9586    0.5399    0.0418 Cl  0  0  0  0  0  0
    1.4933    4.6052   -1.6231 C   0  0  0  0  0  0
    2.3640    5.6885   -2.1498 N   0  0  0  0  0  0
    1.5753    6.5690   -3.0226 C   0  0  0  0  0  0
    3.4894    5.1299   -2.9134 C   0  0  0  0  0  0
    3.2722    0.9071    2.4192 H   0  0  0  0  0  0
    1.5416    1.1751    2.5007 H   0  0  0  0  0  0
   -0.7203    4.1071   -0.1943 H   0  0  0  0  0  0
   -2.9771    3.2033   -0.2481 H   0  0  0  0  0  0
   -1.4664   -0.7746    0.3147 H   0  0  0  0  0  0
    1.8955   -2.7628    0.8512 H   0  0  0  0  0  0
    1.7502   -4.7833   -0.5694 H   0  0  0  0  0  0
    0.8327   -4.6263   -2.8712 H   0  0  0  0  0  0
    0.0725   -2.4374   -3.7603 H   0  0  0  0  0  0
    0.2211   -0.4091   -2.3691 H   0  0  0  0  0  0
    0.5816    5.0556   -1.2101 H   0  0  0  0  0  0
    1.1973    3.9457   -2.4471 H   0  0  0  0  0  0
    2.1965    7.3875   -3.4032 H   0  0  0  0  0  0
    0.7572    7.0333   -2.4608 H   0  0  0  0  0  0
    1.1483    6.0314   -3.8771 H   0  0  0  0  0  0
    4.1257    5.9359   -3.2962 H   0  0  0  0  0  0
    3.1533    4.5246   -3.7632 H   0  0  0  0  0  0
    4.1296    4.5084   -2.2786 H   0  0  0  0  0  0
  1  2  2  0  0  0
  1  7  1  0  0  0
  1  8  1  0  0  0
  2  3  1  0  0  0
  2 11  1  0  0  0
  3  4  2  0  0  0
  3 12  1  0  0  0
  4  5  1  0  0  0
  5  6  1  0  0  0
  5 26  1  0  0  0
  5 27  1  0  0  0
  6  7  1  0  0  0
  6 13  2  0  0  0
  7 15  1  0  0  0
  8  9  2  0  0  0
  8 28  1  0  0  0
  9 10  1  0  0  0
  9 29  1  0  0  0
 10 11  2  0  0  0
 10 21  1  0  0  0
 11 30  1  0  0  0
 12 16  2  0  0  0
 12 20  1  0  0  0
 13 14  1  0  0  0
 14 15  2  0  0  0
 15 22  1  0  0  0
 16 17  1  0  0  0
 16 31  1  0  0  0
 17 18  2  0  0  0
 17 32  1  0  0  0
 18 19  1  0  0  0
 18 33  1  0  0  0
 19 20  2  0  0  0
 19 34  1  0  0  0
 20 35  1  0  0  0
 22 23  1  0  0  0
 22 36  1  0  0  0
 22 37  1  0  0  0
 23 24  1  0  0  0
 23 25  1  0  0  0
 24 38  1  0  0  0
 24 39  1  0  0  0
 24 40  1  0  0  0
 25 41  1  0  0  0
 25 42  1  0  0  0
 25 43  1  0  0  0
M  END
>  <Name>
Adinazolam

>  <Family>
A.13

>  <IC50_uM>
0.135000

>  <set>
1

$$$$
U-43465F
  Cerius2 12180215283D 1   1.00000                          
 Structure written by MMmdl.
 46 49  0  0  0  0  0  0  0  0999 V2000
    0.2628    2.1694    0.0265 C   0  0  0  0  0  0
    0.0450    0.7823    0.1668 C   0  0  0  0  0  0
    1.1552   -0.2302    0.2236 C   0  0  0  0  0  0
    2.2141   -0.1357    0.9623 N   0  0  0  0  0  0
    2.3864    1.0495    1.7993 C   0  0  0  0  0  0
    2.5691    2.2462    0.9438 C   0  0  0  0  0  0
    1.5663    2.7222    0.1233 N   0  0  0  0  0  0
   -0.8380    3.0266   -0.1347 C   0  0  0  0  0  0
   -2.1389    2.5165   -0.1433 C   0  0  0  0  0  0
   -2.3509    1.1528    0.0227 C   0  0  0  0  0  0
   -1.2719    0.2875    0.1823 C   0  0  0  0  0  0
    1.0471   -1.4467   -0.6474 C   0  0  0  0  0  0
    3.6193    3.0395    0.8861 N   0  0  0  0  0  0
    3.3335    4.0454    0.0091 N   0  0  0  0  0  0
    2.1177    3.8498   -0.4736 C   0  0  0  0  0  0
    1.4901   -2.6810   -0.1555 C   0  0  0  0  0  0
    1.4043   -3.8237   -0.9532 C   0  0  0  0  0  0
    0.8866   -3.7355   -2.2451 C   0  0  0  0  0  0
    0.4591   -2.5053   -2.7447 C   0  0  0  0  0  0
    0.5424   -1.3590   -1.9512 C   0  0  0  0  0  0
   -3.9559    0.5312    0.0309 Cl  0  0  0  0  0  0
    1.4814    4.6611   -1.5626 C   0  0  0  0  0  0
    2.4190    5.7753   -2.0722 C   0  0  0  0  0  0
    1.9275    6.6340   -3.1729 N   0  0  0  0  0  0
    0.7314    7.3912   -2.7953 C   0  0  0  0  0  0
    1.6897    5.8791   -4.4058 C   0  0  0  0  0  0
    3.2831    0.9054    2.4124 H   0  0  0  0  0  0
    1.5527    1.1724    2.5012 H   0  0  0  0  0  0
   -0.7266    4.1061   -0.1953 H   0  0  0  0  0  0
   -2.9802    3.1972   -0.2567 H   0  0  0  0  0  0
   -1.4610   -0.7762    0.3112 H   0  0  0  0  0  0
    1.8955   -2.7615    0.8511 H   0  0  0  0  0  0
    1.7425   -4.7835   -0.5665 H   0  0  0  0  0  0
    0.8206   -4.6272   -2.8665 H   0  0  0  0  0  0
    0.0640   -2.4378   -3.7570 H   0  0  0  0  0  0
    0.2210   -0.4076   -2.3688 H   0  0  0  0  0  0
    0.5611    5.1039   -1.1677 H   0  0  0  0  0  0
    1.2198    4.0078   -2.4006 H   0  0  0  0  0  0
    3.3692    5.3259   -2.3921 H   0  0  0  0  0  0
    2.6887    6.4317   -1.2336 H   0  0  0  0  0  0
    0.4826    8.1179   -3.5768 H   0  0  0  0  0  0
    0.9107    7.9650   -1.8794 H   0  0  0  0  0  0
   -0.1424    6.7497   -2.6395 H   0  0  0  0  0  0
    1.4713    6.5653   -5.2317 H   0  0  0  0  0  0
    0.8520    5.1792   -4.3183 H   0  0  0  0  0  0
    2.5850    5.3171   -4.6935 H   0  0  0  0  0  0
  1  2  2  0  0  0
  1  7  1  0  0  0
  1  8  1  0  0  0
  2  3  1  0  0  0
  2 11  1  0  0  0
  3  4  2  0  0  0
  3 12  1  0  0  0
  4  5  1  0  0  0
  5  6  1  0  0  0
  5 27  1  0  0  0
  5 28  1  0  0  0
  6  7  1  0  0  0
  6 13  2  0  0  0
  7 15  1  0  0  0
  8  9  2  0  0  0
  8 29  1  0  0  0
  9 10  1  0  0  0
  9 30  1  0  0  0
 10 11  2  0  0  0
 10 21  1  0  0  0
 11 31  1  0  0  0
 12 16  2  0  0  0
 12 20  1  0  0  0
 13 14  1  0  0  0
 14 15  2  0  0  0
 15 22  1  0  0  0
 16 17  1  0  0  0
 16 32  1  0  0  0
 17 18  2  0  0  0
 17 33  1  0  0  0
 18 19  1  0  0  0
 18 34  1  0  0  0
 19 20  2  0  0  0
 19 35  1  0  0  0
 20 36  1  0  0  0
 22 23  1  0  0  0
 22 37  1  0  0  0
 22 38  1  0  0  0
 23 24  1  0  0  0
 23 39  1  0  0  0
 23 40  1  0  0  0
 24 25  1  0  0  0
 24 26  1  0  0  0
 25 41  1  0  0  0
 25 42  1  0  0  0
 25 43  1  0  0  0
 26 44  1  0  0  0
 26 45  1  0  0  0
 26 46  1  0  0  0
M  END
>  <Name>
U-43465F

>  <Family>
A.13

>  <IC50_uM>
0.011400

>  <set>
1

$$$$
Ro11-5073
  Cerius2 12180215283D 1   1.00000                          
 Structure written by MMmdl.
 38 41  0  0  0  0  0  0  0  0999 V2000
    0.2618    2.1674    0.0308 C   0  0  0  0  0  0
    0.0442    0.7806    0.1704 C   0  0  0  0  0  0
    1.1552   -0.2288    0.2239 C   0  0  0  0  0  0
    2.2134   -0.1364    0.9628 N   0  0  0  0  0  0
    2.3924    1.0483    1.8052 C   0  0  0  0  0  0
    2.5805    2.2434    0.9315 C   0  0  0  0  0  0
    1.5662    2.7193    0.1211 N   0  0  0  0  0  0
   -0.8391    3.0231   -0.1349 C   0  0  0  0  0  0
   -2.1397    2.5117   -0.1463 C   0  0  0  0  0  0
   -2.3509    1.1478    0.0190 C   0  0  0  0  0  0
   -1.2716    0.2831    0.1814 C   0  0  0  0  0  0
    1.0473   -1.4414   -0.6425 C   0  0  0  0  0  0
    3.6356    3.0299    0.8397 N   0  0  0  0  0  0
    3.3406    4.0290   -0.0421 N   0  0  0  0  0  0
    2.1107    3.8420   -0.4867 C   0  0  0  0  0  0
    1.4896   -2.6761   -0.1519 C   0  0  0  0  0  0
    1.3995   -3.8172   -0.9531 C   0  0  0  0  0  0
    0.8799   -3.7274   -2.2457 C   0  0  0  0  0  0
    0.4547   -2.4954   -2.7433 C   0  0  0  0  0  0
    0.5444   -1.3590   -1.9436 C   0  0  0  0  0  0
   -3.9551    0.5243    0.0216 Cl  0  0  0  0  0  0
    1.4742    4.6500   -1.5570 C   0  0  0  0  0  0
    0.1580   -0.1822   -2.4596 F   0  0  0  0  0  0
    3.6087    0.7954    2.6936 C   0  0  0  0  0  0
    1.5285    1.1888    2.4678 H   0  0  0  0  0  0
   -0.7283    4.1024   -0.1985 H   0  0  0  0  0  0
   -2.9812    3.1916   -0.2629 H   0  0  0  0  0  0
   -1.4612   -0.7803    0.3105 H   0  0  0  0  0  0
    1.8971   -2.7573    0.8539 H   0  0  0  0  0  0
    1.7371   -4.7784   -0.5685 H   0  0  0  0  0  0
    0.8126   -4.6183   -2.8681 H   0  0  0  0  0  0
    0.0605   -2.4164   -3.7529 H   0  0  0  0  0  0
    0.8693    4.0341   -2.2287 H   0  0  0  0  0  0
    2.2451    5.1326   -2.1672 H   0  0  0  0  0  0
    0.8530    5.4411   -1.1277 H   0  0  0  0  0  0
    3.8000    1.6484    3.3538 H   0  0  0  0  0  0
    4.5131    0.6195    2.0992 H   0  0  0  0  0  0
    3.4510   -0.0896    3.3199 H   0  0  0  0  0  0
  1  2  2  0  0  0
  1  7  1  0  0  0
  1  8  1  0  0  0
  2  3  1  0  0  0
  2 11  1  0  0  0
  3  4  2  0  0  0
  3 12  1  0  0  0
  4  5  1  0  0  0
  5  6  1  0  0  0
  5 24  1  0  0  0
  5 25  1  0  0  0
  6  7  1  0  0  0
  6 13  2  0  0  0
  7 15  1  0  0  0
  8  9  2  0  0  0
  8 26  1  0  0  0
  9 10  1  0  0  0
  9 27  1  0  0  0
 10 11  2  0  0  0
 10 21  1  0  0  0
 11 28  1  0  0  0
 12 16  2  0  0  0
 12 20  1  0  0  0
 13 14  1  0  0  0
 14 15  2  0  0  0
 15 22  1  0  0  0
 16 17  1  0  0  0
 16 29  1  0  0  0
 17 18  2  0  0  0
 17 30  1  0  0  0
 18 19  1  0  0  0
 18 31  1  0  0  0
 19 20  2  0  0  0
 19 32  1  0  0  0
 20 23  1  0  0  0
 22 33  1  0  0  0
 22 34  1  0  0  0
 22 35  1  0  0  0
 24 36  1  0  0  0
 24 37  1  0  0  0
 24 38  1  0  0  0
M  END
>  <Name>
Ro11-5073

>  <Family>
A.13

>  <IC50_uM>
0.003300

>  <set>
1

$$$$
Ro11-6679
  Cerius2 12180215283D 1   1.00000                          
 Structure written by MMmdl.
 40 43  0  0  0  0  0  0  0  0999 V2000
    0.2621    2.1650    0.0252 C   0  0  0  0  0  0
    0.0403    0.7784    0.1689 C   0  0  0  0  0  0
    1.1519   -0.2319    0.2253 C   0  0  0  0  0  0
    2.2074   -0.1395    0.9677 N   0  0  0  0  0  0
    2.3862    1.0464    1.8081 C   0  0  0  0  0  0
    2.5792    2.2386    0.9314 C   0  0  0  0  0  0
    1.5685    2.7135    0.1158 N   0  0  0  0  0  0
   -0.8352    3.0263   -0.1425 C   0  0  0  0  0  0
   -2.1410    2.5246   -0.1512 C   0  0  0  0  0  0
   -2.3596    1.1552    0.0199 C   0  0  0  0  0  0
   -1.2774    0.2816    0.1833 C   0  0  0  0  0  0
    1.0478   -1.4439   -0.6422 C   0  0  0  0  0  0
    3.6363    3.0223    0.8397 N   0  0  0  0  0  0
    3.3466    4.0182   -0.0474 N   0  0  0  0  0  0
    2.1177    3.8320   -0.4953 C   0  0  0  0  0  0
    1.4928   -2.6780   -0.1527 C   0  0  0  0  0  0
    1.4084   -3.8179   -0.9562 C   0  0  0  0  0  0
    0.8918   -3.7275   -2.2501 C   0  0  0  0  0  0
    0.4640   -2.4960   -2.7466 C   0  0  0  0  0  0
    0.5479   -1.3608   -1.9445 C   0  0  0  0  0  0
    1.4868    4.6366   -1.5715 C   0  0  0  0  0  0
    0.1584   -0.1844   -2.4589 F   0  0  0  0  0  0
    3.5998    0.7935    2.7005 C   0  0  0  0  0  0
   -3.7319    0.6305    0.0284 N   0  3  0  0  0  0
   -4.6739    1.4354   -0.0973 O   0  0  0  0  0  0
   -3.8930   -0.5974    0.1607 O   0  5  0  0  0  0
    1.5207    1.1903    2.4679 H   0  0  0  0  0  0
   -0.7173    4.1049   -0.2091 H   0  0  0  0  0  0
   -2.9696    3.2201   -0.2696 H   0  0  0  0  0  0
   -1.4551   -0.7832    0.3188 H   0  0  0  0  0  0
    1.8984   -2.7597    0.8537 H   0  0  0  0  0  0
    1.7481   -4.7789   -0.5726 H   0  0  0  0  0  0
    0.8290   -4.6175   -2.8742 H   0  0  0  0  0  0
    0.0720   -2.4164   -3.7569 H   0  0  0  0  0  0
    0.8805    4.0195   -2.2408 H   0  0  0  0  0  0
    2.2610    5.1125   -2.1830 H   0  0  0  0  0  0
    0.8682    5.4327   -1.1479 H   0  0  0  0  0  0
    3.7904    1.6474    3.3596 H   0  0  0  0  0  0
    4.5055    0.6151    2.1089 H   0  0  0  0  0  0
    3.4391   -0.0903    3.3280 H   0  0  0  0  0  0
  1  2  2  0  0  0
  1  7  1  0  0  0
  1  8  1  0  0  0
  2  3  1  0  0  0
  2 11  1  0  0  0
  3  4  2  0  0  0
  3 12  1  0  0  0
  4  5  1  0  0  0
  5  6  1  0  0  0
  5 23  1  0  0  0
  5 27  1  0  0  0
  6  7  1  0  0  0
  6 13  2  0  0  0
  7 15  1  0  0  0
  8  9  2  0  0  0
  8 28  1  0  0  0
  9 10  1  0  0  0
  9 29  1  0  0  0
 10 11  2  0  0  0
 10 24  1  0  0  0
 11 30  1  0  0  0
 12 16  2  0  0  0
 12 20  1  0  0  0
 13 14  1  0  0  0
 14 15  2  0  0  0
 15 21  1  0  0  0
 16 17  1  0  0  0
 16 31  1  0  0  0
 17 18  2  0  0  0
 17 32  1  0  0  0
 18 19  1  0  0  0
 18 33  1  0  0  0
 19 20  2  0  0  0
 19 34  1  0  0  0
 20 22  1  0  0  0
 21 35  1  0  0  0
 21 36  1  0  0  0
 21 37  1  0  0  0
 23 38  1  0  0  0
 23 39  1  0  0  0
 23 40  1  0  0  0
 24 25  2  0  0  0
 24 26  1  0  0  0
M  CHG  2  24   1  26  -1
M  END
>  <Name>
Ro11-6679

>  <Family>
A.13

>  <IC50_uM>
0.004000

>  <set>
1

$$$$
Ro11-5074
  Cerius2 12180215283D 1   1.00000                          
 Structure written by MMmdl.
 40 43  0  0  0  0  0  0  0  0999 V2000
    0.2567    2.1773    0.0622 C   0  0  0  0  0  0
    0.0456    0.7842    0.1554 C   0  0  0  0  0  0
    1.1652   -0.2177    0.1914 C   0  0  0  0  0  0
    2.2267   -0.1389    0.9259 N   0  0  0  0  0  0
    2.4034    1.0234    1.7985 C   0  0  0  0  0  0
    2.5792    2.2432    0.9589 C   0  0  0  0  0  0
    1.5591    2.7336    0.1654 N   0  0  0  0  0  0
   -0.8460    3.0352   -0.0864 C   0  0  0  0  0  0
   -2.1469    2.5241   -0.1338 C   0  0  0  0  0  0
   -2.3554    1.1473   -0.0240 C   0  0  0  0  0  0
   -1.2678    0.2769    0.1213 C   0  0  0  0  0  0
    1.0510   -1.4236   -0.6813 C   0  0  0  0  0  0
    3.6275    3.0407    0.8877 N   0  0  0  0  0  0
    3.3245    4.0591    0.0312 N   0  0  0  0  0  0
    2.0965    3.8722   -0.4188 C   0  0  0  0  0  0
    1.4962   -2.6444   -0.1533 C   0  0  0  0  0  0
    1.4027   -3.8107   -0.9131 C   0  0  0  0  0  0
    0.8758   -3.7614   -2.2027 C   0  0  0  0  0  0
    0.4497   -2.5443   -2.7395 C   0  0  0  0  0  0
    0.5398   -1.3702   -1.9853 C   0  0  0  0  0  0
    1.4567    4.6958   -1.4752 C   0  0  0  0  0  0
    0.0503    0.1059   -2.7397 Cl  0  0  0  0  0  0
    3.6256    0.7534    2.6741 C   0  0  0  0  0  0
   -3.7229    0.6111   -0.0603 N   0  3  0  0  0  0
   -4.6686    1.4105   -0.1929 O   0  0  0  0  0  0
   -3.8766   -0.6204    0.0432 O   0  5  0  0  0  0
    1.5419    1.1401    2.4689 H   0  0  0  0  0  0
   -0.7361    4.1165   -0.1117 H   0  0  0  0  0  0
   -2.9797    3.2171   -0.2367 H   0  0  0  0  0  0
   -1.4411   -0.7935    0.2082 H   0  0  0  0  0  0
    1.9082   -2.6917    0.8531 H   0  0  0  0  0  0
    1.7418   -4.7590   -0.4990 H   0  0  0  0  0  0
    0.8042   -4.6714   -2.7963 H   0  0  0  0  0  0
    0.0554   -2.5206   -3.7535 H   0  0  0  0  0  0
    0.8565    4.0887   -2.1589 H   0  0  0  0  0  0
    2.2256    5.1940   -2.0755 H   0  0  0  0  0  0
    0.8305    5.4755   -1.0328 H   0  0  0  0  0  0
    3.8144    1.5885    3.3575 H   0  0  0  0  0  0
    4.5283    0.6003    2.0709 H   0  0  0  0  0  0
    3.4766   -0.1502    3.2757 H   0  0  0  0  0  0
  1  2  2  0  0  0
  1  7  1  0  0  0
  1  8  1  0  0  0
  2  3  1  0  0  0
  2 11  1  0  0  0
  3  4  2  0  0  0
  3 12  1  0  0  0
  4  5  1  0  0  0
  5  6  1  0  0  0
  5 23  1  0  0  0
  5 27  1  0  0  0
  6  7  1  0  0  0
  6 13  2  0  0  0
  7 15  1  0  0  0
  8  9  2  0  0  0
  8 28  1  0  0  0
  9 10  1  0  0  0
  9 29  1  0  0  0
 10 11  2  0  0  0
 10 24  1  0  0  0
 11 30  1  0  0  0
 12 16  2  0  0  0
 12 20  1  0  0  0
 13 14  1  0  0  0
 14 15  2  0  0  0
 15 21  1  0  0  0
 16 17  1  0  0  0
 16 31  1  0  0  0
 17 18  2  0  0  0
 17 32  1  0  0  0
 18 19  1  0  0  0
 18 33  1  0  0  0
 19 20  2  0  0  0
 19 34  1  0  0  0
 20 22  1  0  0  0
 21 35  1  0  0  0
 21 36  1  0  0  0
 21 37  1  0  0  0
 23 38  1  0  0  0
 23 39  1  0  0  0
 23 40  1  0  0  0
 24 25  2  0  0  0
 24 26  1  0  0  0
M  CHG  2  24   1  26  -1
M  END
>  <Name>
Ro11-5074

>  <Family>
A.13

>  <IC50_uM>
0.003400

>  <set>
0

$$$$
Ro17-4582
  Cerius2 12180215283D 1   1.00000                          
 Structure written by MMmdl.
 32 35  0  0  0  0  0  0  0  0999 V2000
    0.1808    2.0609    0.1637 C   0  0  0  0  0  0
    0.0915    0.6758    0.1596 C   0  0  0  0  0  0
    1.2245   -0.2606    0.1856 C   0  0  0  0  0  0
    2.3306   -0.0757    0.8230 N   0  0  0  0  0  0
    2.4844    1.0675    1.7169 C   0  0  0  0  0  0
    2.4736    2.3626    0.9947 C   0  0  0  0  0  0
    1.3456    2.8197    0.3348 N   0  0  0  0  0  0
   -1.3150    2.8367   -0.0245 S   0  0  0  0  0  0
   -2.1514    1.3545   -0.0781 C   0  0  0  0  0  0
   -1.2915    0.2841    0.0219 C   0  0  0  0  0  0
    3.4206    3.2779    0.9888 N   0  0  0  0  0  0
    2.9308    4.3748    0.3463 N   0  0  0  0  0  0
    1.6922    4.1168   -0.0375 C   0  0  0  0  0  0
    1.0865   -1.4931   -0.6266 C   0  0  0  0  0  0
    0.8604    5.0554   -0.8304 C   0  0  0  0  0  0
    1.5768   -2.6947   -0.0959 C   0  0  0  0  0  0
    1.4542   -3.8764   -0.8272 C   0  0  0  0  0  0
    0.8439   -3.8605   -2.0813 C   0  0  0  0  0  0
    0.3551   -2.6628   -2.6096 C   0  0  0  0  0  0
    0.4733   -1.4742   -1.8842 C   0  0  0  0  0  0
   -0.1126   -0.0187   -2.6076 Cl  0  0  0  0  0  0
    3.4460    0.9601    2.2322 H   0  0  0  0  0  0
    1.7220    1.0509    2.5059 H   0  0  0  0  0  0
   -3.2281    1.3298   -0.1912 H   0  0  0  0  0  0
   -1.6419   -0.7424   -0.0124 H   0  0  0  0  0  0
    1.4722    5.8967   -1.1741 H   0  0  0  0  0  0
    0.0509    5.4716   -0.2245 H   0  0  0  0  0  0
    0.4496    4.5731   -1.7220 H   0  0  0  0  0  0
    2.0476   -2.7179    0.8848 H   0  0  0  0  0  0
    1.8330   -4.8117   -0.4182 H   0  0  0  0  0  0
    0.7494   -4.7834   -2.6514 H   0  0  0  0  0  0
   -0.1130   -2.6667   -3.5920 H   0  0  0  0  0  0
  1  2  2  0  0  0
  1  7  1  0  0  0
  1  8  1  0  0  0
  2  3  1  0  0  0
  2 10  1  0  0  0
  3  4  2  0  0  0
  3 14  1  0  0  0
  4  5  1  0  0  0
  5  6  1  0  0  0
  5 22  1  0  0  0
  5 23  1  0  0  0
  6  7  1  0  0  0
  6 11  2  0  0  0
  7 13  1  0  0  0
  8  9  1  0  0  0
  9 10  2  0  0  0
  9 24  1  0  0  0
 10 25  1  0  0  0
 11 12  1  0  0  0
 12 13  2  0  0  0
 13 15  1  0  0  0
 14 16  2  0  0  0
 14 20  1  0  0  0
 15 26  1  0  0  0
 15 27  1  0  0  0
 15 28  1  0  0  0
 16 17  1  0  0  0
 16 29  1  0  0  0
 17 18  2  0  0  0
 17 30  1  0  0  0
 18 19  1  0  0  0
 18 31  1  0  0  0
 19 20  2  0  0  0
 19 32  1  0  0  0
 20 21  1  0  0  0
M  END
>  <Name>
Ro17-4582

>  <Family>
A.14

>  <IC50_uM>
0.003500

>  <set>
1

$$$$
Etizolam
  Cerius2 12180215283D 1   1.00000                          
 Structure written by MMmdl.
 38 41  0  0  0  0  0  0  0  0999 V2000
    0.1813    2.0597    0.1636 C   0  0  0  0  0  0
    0.0931    0.6757    0.1592 C   0  0  0  0  0  0
    1.2263   -0.2603    0.1855 C   0  0  0  0  0  0
    2.3323   -0.0753    0.8233 N   0  0  0  0  0  0
    2.4848    1.0678    1.7174 C   0  0  0  0  0  0
    2.4732    2.3632    0.9958 C   0  0  0  0  0  0
    1.3452    2.8193    0.3353 N   0  0  0  0  0  0
   -1.3137    2.8331   -0.0255 S   0  0  0  0  0  0
   -2.1564    1.3525   -0.0796 C   0  0  0  0  0  0
   -1.2895    0.2840    0.0207 C   0  0  0  0  0  0
    3.4193    3.2795    0.9907 N   0  0  0  0  0  0
    2.9290    4.3761    0.3481 N   0  0  0  0  0  0
    1.6908    4.1167   -0.0367 C   0  0  0  0  0  0
    1.0883   -1.4926   -0.6270 C   0  0  0  0  0  0
    0.8588    5.0542   -0.8308 C   0  0  0  0  0  0
    1.5784   -2.6945   -0.0966 C   0  0  0  0  0  0
    1.4579   -3.8756   -0.8290 C   0  0  0  0  0  0
    0.8498   -3.8589   -2.0842 C   0  0  0  0  0  0
    0.3613   -2.6611   -2.6124 C   0  0  0  0  0  0
    0.4776   -1.4729   -1.8857 C   0  0  0  0  0  0
   -0.1069   -0.0171   -2.6093 Cl  0  0  0  0  0  0
   -4.0601    1.2811   -1.6982 C   0  0  0  0  0  0
   -3.6483    1.3238   -0.2344 C   0  0  0  0  0  0
    3.4464    0.9610    2.2332 H   0  0  0  0  0  0
    1.7222    1.0505    2.5062 H   0  0  0  0  0  0
   -1.6332   -0.7454   -0.0122 H   0  0  0  0  0  0
    1.4701    5.8960   -1.1743 H   0  0  0  0  0  0
    0.0483    5.4698   -0.2258 H   0  0  0  0  0  0
    0.4492    4.5712   -1.7225 H   0  0  0  0  0  0
    2.0480   -2.7181    0.8847 H   0  0  0  0  0  0
    1.8368   -4.8109   -0.4202 H   0  0  0  0  0  0
    0.7569   -4.7814   -2.6552 H   0  0  0  0  0  0
   -0.1049   -2.6644   -3.5955 H   0  0  0  0  0  0
   -5.1513    1.2755   -1.7845 H   0  0  0  0  0  0
   -3.6761    0.3830   -2.1937 H   0  0  0  0  0  0
   -3.6811    2.1528   -2.2425 H   0  0  0  0  0  0
   -4.0774    2.2177    0.2346 H   0  0  0  0  0  0
   -4.0752    0.4617    0.2921 H   0  0  0  0  0  0
  1  2  2  0  0  0
  1  7  1  0  0  0
  1  8  1  0  0  0
  2  3  1  0  0  0
  2 10  1  0  0  0
  3  4  2  0  0  0
  3 14  1  0  0  0
  4  5  1  0  0  0
  5  6  1  0  0  0
  5 24  1  0  0  0
  5 25  1  0  0  0
  6  7  1  0  0  0
  6 11  2  0  0  0
  7 13  1  0  0  0
  8  9  1  0  0  0
  9 10  2  0  0  0
  9 23  1  0  0  0
 10 26  1  0  0  0
 11 12  1  0  0  0
 12 13  2  0  0  0
 13 15  1  0  0  0
 14 16  2  0  0  0
 14 20  1  0  0  0
 15 27  1  0  0  0
 15 28  1  0  0  0
 15 29  1  0  0  0
 16 17  1  0  0  0
 16 30  1  0  0  0
 17 18  2  0  0  0
 17 31  1  0  0  0
 18 19  1  0  0  0
 18 32  1  0  0  0
 19 20  2  0  0  0
 19 33  1  0  0  0
 20 21  1  0  0  0
 22 23  1  0  0  0
 22 34  1  0  0  0
 22 35  1  0  0  0
 22 36  1  0  0  0
 23 37  1  0  0  0
 23 38  1  0  0  0
M  END
>  <Name>
Etizolam

>  <Family>
A.14

>  <IC50_uM>
0.003100

>  <set>
2

$$$$
Ro11-1465
  Cerius2 12180215283D 1   1.00000                          
 Structure written by MMmdl.
 32 35  0  0  0  0  0  0  0  0999 V2000
    0.0866    1.9918    0.2139 C   0  0  0  0  0  0
    0.0597    0.6020    0.2023 C   0  0  0  0  0  0
    1.2342   -0.2813    0.1742 C   0  0  0  0  0  0
    2.3566   -0.0484    0.7652 N   0  0  0  0  0  0
    2.4979    1.0957    1.6598 C   0  0  0  0  0  0
    2.3963    2.3936    0.9496 C   0  0  0  0  0  0
    1.2211    2.8027    0.3425 N   0  0  0  0  0  0
   -1.4530    2.6983    0.0939 S   0  0  0  0  0  0
   -2.1987    1.1873    0.0613 C   0  0  0  0  0  0
   -1.3104    0.1467    0.1181 C   0  0  0  0  0  0
    3.2988    3.3518    0.9112 N   0  0  0  0  0  0
    2.7319    4.4294    0.3003 N   0  0  0  0  0  0
    1.4910    4.1170   -0.0322 C   0  0  0  0  0  0
    1.1175   -1.5153   -0.6387 C   0  0  0  0  0  0
    0.5833    5.0220   -0.7799 C   0  0  0  0  0  0
    1.6840   -2.6955   -0.1368 C   0  0  0  0  0  0
    1.5862   -3.8776   -0.8709 C   0  0  0  0  0  0
    0.9251   -3.8833   -2.0992 C   0  0  0  0  0  0
    0.3606   -2.7068   -2.5988 C   0  0  0  0  0  0
    0.4535   -1.5179   -1.8702 C   0  0  0  0  0  0
   -0.2257   -0.0867   -2.5589 Cl  0  0  0  0  0  0
   -3.9078    1.0775   -0.0495 Cl  0  0  0  0  0  0
    3.4851    1.0294    2.1317 H   0  0  0  0  0  0
    1.7725    1.0399    2.4813 H   0  0  0  0  0  0
   -1.6165   -0.8929    0.0902 H   0  0  0  0  0  0
    1.1403    5.8936   -1.1412 H   0  0  0  0  0  0
   -0.2178    5.3953   -0.1361 H   0  0  0  0  0  0
    0.1574    4.5280   -1.6579 H   0  0  0  0  0  0
    2.1950   -2.7023    0.8239 H   0  0  0  0  0  0
    2.0240   -4.7967   -0.4843 H   0  0  0  0  0  0
    0.8499   -4.8067   -2.6715 H   0  0  0  0  0  0
   -0.1464   -2.7272   -3.5614 H   0  0  0  0  0  0
  1  2  2  0  0  0
  1  7  1  0  0  0
  1  8  1  0  0  0
  2  3  1  0  0  0
  2 10  1  0  0  0
  3  4  2  0  0  0
  3 14  1  0  0  0
  4  5  1  0  0  0
  5  6  1  0  0  0
  5 23  1  0  0  0
  5 24  1  0  0  0
  6  7  1  0  0  0
  6 11  2  0  0  0
  7 13  1  0  0  0
  8  9  1  0  0  0
  9 10  2  0  0  0
  9 22  1  0  0  0
 10 25  1  0  0  0
 11 12  1  0  0  0
 12 13  2  0  0  0
 13 15  1  0  0  0
 14 16  2  0  0  0
 14 20  1  0  0  0
 15 26  1  0  0  0
 15 27  1  0  0  0
 15 28  1  0  0  0
 16 17  1  0  0  0
 16 29  1  0  0  0
 17 18  2  0  0  0
 17 30  1  0  0  0
 18 19  1  0  0  0
 18 31  1  0  0  0
 19 20  2  0  0  0
 19 32  1  0  0  0
 20 21  1  0  0  0
M  END
>  <Name>
Ro11-1465

>  <Family>
A.14

>  <IC50_uM>
0.001400

>  <set>
1

$$$$
Brotizolam
  Cerius2 12180215283D 1   1.00000                          
 Structure written by MMmdl.
 32 35  0  0  0  0  0  0  0  0999 V2000
    0.1785    2.0610    0.1662 C   0  0  0  0  0  0
    0.0906    0.6741    0.1592 C   0  0  0  0  0  0
    1.2249   -0.2604    0.1840 C   0  0  0  0  0  0
    2.3310   -0.0738    0.8205 N   0  0  0  0  0  0
    2.4850    1.0681    1.7158 C   0  0  0  0  0  0
    2.4708    2.3649    0.9968 C   0  0  0  0  0  0
    1.3414    2.8217    0.3390 N   0  0  0  0  0  0
   -1.3211    2.8336   -0.0216 S   0  0  0  0  0  0
   -2.1348    1.3566   -0.0796 C   0  0  0  0  0  0
   -1.2939    0.2786    0.0195 C   0  0  0  0  0  0
    3.4158    3.2822    0.9926 N   0  0  0  0  0  0
    2.9232    4.3800    0.3540 N   0  0  0  0  0  0
    1.6847    4.1207   -0.0292 C   0  0  0  0  0  0
    1.0876   -1.4928   -0.6282 C   0  0  0  0  0  0
    0.8499    5.0604   -0.8180 C   0  0  0  0  0  0
    1.5797   -2.6939   -0.0984 C   0  0  0  0  0  0
    1.4602   -3.8748   -0.8314 C   0  0  0  0  0  0
    0.8514   -3.8584   -2.0862 C   0  0  0  0  0  0
    0.3612   -2.6610   -2.6137 C   0  0  0  0  0  0
    0.4764   -1.4732   -1.8866 C   0  0  0  0  0  0
   -0.1089   -0.0172   -2.6091 Cl  0  0  0  0  0  0
   -3.9945    1.2120   -0.2768 Br  0  0  0  0  0  0
    3.4476    0.9611    2.2293 H   0  0  0  0  0  0
    1.7239    1.0490    2.5062 H   0  0  0  0  0  0
   -1.6381   -0.7493   -0.0161 H   0  0  0  0  0  0
    1.4592    5.9049   -1.1582 H   0  0  0  0  0  0
    0.0393    5.4716   -0.2102 H   0  0  0  0  0  0
    0.4404    4.5806   -1.7116 H   0  0  0  0  0  0
    2.0493   -2.7178    0.8829 H   0  0  0  0  0  0
    1.8403   -4.8101   -0.4231 H   0  0  0  0  0  0
    0.7592   -4.7808   -2.6576 H   0  0  0  0  0  0
   -0.1055   -2.6645   -3.5967 H   0  0  0  0  0  0
  1  2  2  0  0  0
  1  7  1  0  0  0
  1  8  1  0  0  0
  2  3  1  0  0  0
  2 10  1  0  0  0
  3  4  2  0  0  0
  3 14  1  0  0  0
  4  5  1  0  0  0
  5  6  1  0  0  0
  5 23  1  0  0  0
  5 24  1  0  0  0
  6  7  1  0  0  0
  6 11  2  0  0  0
  7 13  1  0  0  0
  8  9  1  0  0  0
  9 10  2  0  0  0
  9 22  1  0  0  0
 10 25  1  0  0  0
 11 12  1  0  0  0
 12 13  2  0  0  0
 13 15  1  0  0  0
 14 16  2  0  0  0
 14 20  1  0  0  0
 15 26  1  0  0  0
 15 27  1  0  0  0
 15 28  1  0  0  0
 16 17  1  0  0  0
 16 29  1  0  0  0
 17 18  2  0  0  0
 17 30  1  0  0  0
 18 19  1  0  0  0
 18 31  1  0  0  0
 19 20  2  0  0  0
 19 32  1  0  0  0
 20 21  1  0  0  0
M  END
>  <Name>
Brotizolam

>  <Family>
A.14

>  <IC50_uM>
0.001200

>  <set>
0

$$$$
Ro14-1636
  Cerius2 12180215283D 1   1.00000                          
 Structure written by MMmdl.
 32 35  0  0  0  0  0  0  0  0999 V2000
    0.1787    2.0606    0.1654 C   0  0  0  0  0  0
    0.0907    0.6739    0.1594 C   0  0  0  0  0  0
    1.2252   -0.2605    0.1845 C   0  0  0  0  0  0
    2.3311   -0.0738    0.8212 N   0  0  0  0  0  0
    2.4847    1.0685    1.7163 C   0  0  0  0  0  0
    2.4708    2.3650    0.9967 C   0  0  0  0  0  0
    1.3418    2.8213    0.3380 N   0  0  0  0  0  0
   -1.3205    2.8333   -0.0229 S   0  0  0  0  0  0
   -2.1350    1.3561   -0.0800 C   0  0  0  0  0  0
   -1.2941    0.2778    0.0200 C   0  0  0  0  0  0
    3.4156    3.2825    0.9926 N   0  0  0  0  0  0
    2.9234    4.3797    0.3525 N   0  0  0  0  0  0
    1.6853    4.1198   -0.0316 C   0  0  0  0  0  0
    1.0880   -1.4926   -0.6280 C   0  0  0  0  0  0
    0.8514    5.0582   -0.8226 C   0  0  0  0  0  0
    1.5801   -2.6940   -0.0986 C   0  0  0  0  0  0
    1.4612   -3.8745   -0.8321 C   0  0  0  0  0  0
    0.8530   -3.8576   -2.0872 C   0  0  0  0  0  0
    0.3627   -2.6602   -2.6144 C   0  0  0  0  0  0
    0.4773   -1.4726   -1.8867 C   0  0  0  0  0  0
   -0.1079   -0.0165   -2.6090 Cl  0  0  0  0  0  0
   -4.1738    1.2063   -0.2965 I   0  0  0  0  0  0
    3.4471    0.9617    2.2302 H   0  0  0  0  0  0
    1.7233    1.0495    2.5064 H   0  0  0  0  0  0
   -1.6345   -0.7517   -0.0141 H   0  0  0  0  0  0
    1.4612    5.9016   -1.1647 H   0  0  0  0  0  0
    0.0409    5.4714   -0.2159 H   0  0  0  0  0  0
    0.4416    4.5767   -1.7152 H   0  0  0  0  0  0
    2.0495   -2.7180    0.8829 H   0  0  0  0  0  0
    1.8414   -4.8098   -0.4241 H   0  0  0  0  0  0
    0.7614   -4.7799   -2.6590 H   0  0  0  0  0  0
   -0.1034   -2.6633   -3.5977 H   0  0  0  0  0  0
  1  2  2  0  0  0
  1  7  1  0  0  0
  1  8  1  0  0  0
  2  3  1  0  0  0
  2 10  1  0  0  0
  3  4  2  0  0  0
  3 14  1  0  0  0
  4  5  1  0  0  0
  5  6  1  0  0  0
  5 23  1  0  0  0
  5 24  1  0  0  0
  6  7  1  0  0  0
  6 11  2  0  0  0
  7 13  1  0  0  0
  8  9  1  0  0  0
  9 10  2  0  0  0
  9 22  1  0  0  0
 10 25  1  0  0  0
 11 12  1  0  0  0
 12 13  2  0  0  0
 13 15  1  0  0  0
 14 16  2  0  0  0
 14 20  1  0  0  0
 15 26  1  0  0  0
 15 27  1  0  0  0
 15 28  1  0  0  0
 16 17  1  0  0  0
 16 29  1  0  0  0
 17 18  2  0  0  0
 17 30  1  0  0  0
 18 19  1  0  0  0
 18 31  1  0  0  0
 19 20  2  0  0  0
 19 32  1  0  0  0
 20 21  1  0  0  0
M  END
>  <Name>
Ro14-1636

>  <Family>
A.14

>  <IC50_uM>
0.001500

>  <set>
0

$$$$
Ro11-7800
  Cerius2 12180215283D 1   1.00000                          
 Structure written by MMmdl.
 34 37  0  0  0  0  0  0  0  0999 V2000
    0.0885    1.9924    0.2071 C   0  0  0  0  0  0
    0.0595    0.6024    0.2003 C   0  0  0  0  0  0
    1.2330   -0.2823    0.1748 C   0  0  0  0  0  0
    2.3530   -0.0496    0.7704 N   0  0  0  0  0  0
    2.4888    1.0952    1.6652 C   0  0  0  0  0  0
    2.3943    2.3921    0.9517 C   0  0  0  0  0  0
    1.2253    2.8021    0.3324 N   0  0  0  0  0  0
   -1.4514    2.6995    0.0950 S   0  0  0  0  0  0
   -2.1985    1.1892    0.0646 C   0  0  0  0  0  0
   -1.3109    0.1478    0.1198 C   0  0  0  0  0  0
    3.2991    3.3479    0.9212 N   0  0  0  0  0  0
    2.7422    4.4235    0.2980 N   0  0  0  0  0  0
    1.5033    4.1126   -0.0553 C   0  0  0  0  0  0
    1.1178   -1.5159   -0.6390 C   0  0  0  0  0  0
    1.6811   -2.6971   -0.1357 C   0  0  0  0  0  0
    1.5843   -3.8790   -0.8704 C   0  0  0  0  0  0
    0.9275   -3.8837   -2.1009 C   0  0  0  0  0  0
    0.3662   -2.7064   -2.6022 C   0  0  0  0  0  0
    0.4583   -1.5176   -1.8730 C   0  0  0  0  0  0
   -0.2159   -0.0854   -2.5649 Cl  0  0  0  0  0  0
   -3.9081    1.0807   -0.0408 Cl  0  0  0  0  0  0
    0.5852    5.0030   -0.8314 C   0  0  0  0  0  0
    1.2121    6.2925   -1.1721 N   0  0  0  0  0  0
    3.4725    1.0282    2.1444 H   0  0  0  0  0  0
    1.7574    1.0414    2.4815 H   0  0  0  0  0  0
   -1.6176   -0.8916    0.0945 H   0  0  0  0  0  0
    2.1887   -2.7052    0.8267 H   0  0  0  0  0  0
    2.0199   -4.7985   -0.4825 H   0  0  0  0  0  0
    0.8531   -4.8069   -2.6736 H   0  0  0  0  0  0
   -0.1373   -2.7258   -3.5665 H   0  0  0  0  0  0
   -0.3123    5.2167   -0.2434 H   0  0  0  0  0  0
    0.2895    4.5248   -1.7701 H   0  0  0  0  0  0
    2.0802    6.0819   -1.6772 H   0  0  0  0  0  0
    1.5536    6.6995   -0.2934 H   0  0  0  0  0  0
  1  2  2  0  0  0
  1  7  1  0  0  0
  1  8  1  0  0  0
  2  3  1  0  0  0
  2 10  1  0  0  0
  3  4  2  0  0  0
  3 14  1  0  0  0
  4  5  1  0  0  0
  5  6  1  0  0  0
  5 24  1  0  0  0
  5 25  1  0  0  0
  6  7  1  0  0  0
  6 11  2  0  0  0
  7 13  1  0  0  0
  8  9  1  0  0  0
  9 10  2  0  0  0
  9 21  1  0  0  0
 10 26  1  0  0  0
 11 12  1  0  0  0
 12 13  2  0  0  0
 13 22  1  0  0  0
 14 15  2  0  0  0
 14 19  1  0  0  0
 15 16  1  0  0  0
 15 27  1  0  0  0
 16 17  2  0  0  0
 16 28  1  0  0  0
 17 18  1  0  0  0
 17 29  1  0  0  0
 18 19  2  0  0  0
 18 30  1  0  0  0
 19 20  1  0  0  0
 22 23  1  0  0  0
 22 31  1  0  0  0
 22 32  1  0  0  0
 23 33  1  0  0  0
 23 34  1  0  0  0
M  END
>  <Name>
Ro11-7800

>  <Family>
A.14

>  <IC50_uM>
0.002900

>  <set>
0

$$$$
Midazolam
  Cerius2 12180215283D 1   1.00000                          
 Structure written by MMmdl.
 36 39  0  0  0  0  0  0  0  0999 V2000
    0.2623    2.1660    0.0246 C   0  0  0  0  0  0
    0.0428    0.7800    0.1687 C   0  0  0  0  0  0
    1.1556   -0.2281    0.2243 C   0  0  0  0  0  0
    2.2129   -0.1324    0.9654 N   0  0  0  0  0  0
    2.3761    1.0480    1.8038 C   0  0  0  0  0  0
    2.5689    2.2261    0.9325 C   0  0  0  0  0  0
    1.5717    2.7130    0.1089 N   0  0  0  0  0  0
   -0.8370    3.0244   -0.1352 C   0  0  0  0  0  0
   -2.1384    2.5152   -0.1419 C   0  0  0  0  0  0
   -2.3513    1.1512    0.0236 C   0  0  0  0  0  0
   -1.2734    0.2843    0.1834 C   0  0  0  0  0  0
    3.6372    3.0779    0.7865 C   0  0  0  0  0  0
    3.3487    4.0668   -0.1102 N   0  0  0  0  0  0
    2.1156    3.8271   -0.5283 C   0  0  0  0  0  0
    1.0501   -1.4403   -0.6427 C   0  0  0  0  0  0
   -3.9567    0.5307    0.0311 Cl  0  0  0  0  0  0
    1.4927   -2.6749   -0.1521 C   0  0  0  0  0  0
    1.4041   -3.8161   -0.9535 C   0  0  0  0  0  0
    0.8851   -3.7266   -2.2464 C   0  0  0  0  0  0
    0.4593   -2.4949   -2.7440 C   0  0  0  0  0  0
    0.5478   -1.3583   -1.9442 C   0  0  0  0  0  0
    0.1605   -0.1821   -2.4608 F   0  0  0  0  0  0
    1.4565    4.5919   -1.6231 C   0  0  0  0  0  0
    3.2616    0.9011    2.4329 H   0  0  0  0  0  0
    1.5325    1.1777    2.4926 H   0  0  0  0  0  0
   -0.7220    4.1033   -0.1971 H   0  0  0  0  0  0
   -2.9792    3.1966   -0.2548 H   0  0  0  0  0  0
   -1.4639   -0.7788    0.3140 H   0  0  0  0  0  0
    4.5960    3.0265    1.2906 H   0  0  0  0  0  0
    1.8995   -2.7562    0.8540 H   0  0  0  0  0  0
    1.7420   -4.7772   -0.5687 H   0  0  0  0  0  0
    0.8187   -4.6174   -2.8690 H   0  0  0  0  0  0
    0.0655   -2.4161   -3.7536 H   0  0  0  0  0  0
    2.2166    5.0598   -2.2581 H   0  0  0  0  0  0
    0.8329    5.3920   -1.2148 H   0  0  0  0  0  0
    0.8518    3.9465   -2.2665 H   0  0  0  0  0  0
  1  2  2  0  0  0
  1  7  1  0  0  0
  1  8  1  0  0  0
  2  3  1  0  0  0
  2 11  1  0  0  0
  3  4  2  0  0  0
  3 15  1  0  0  0
  4  5  1  0  0  0
  5  6  1  0  0  0
  5 24  1  0  0  0
  5 25  1  0  0  0
  6  7  1  0  0  0
  6 12  2  0  0  0
  7 14  1  0  0  0
  8  9  2  0  0  0
  8 26  1  0  0  0
  9 10  1  0  0  0
  9 27  1  0  0  0
 10 11  2  0  0  0
 10 16  1  0  0  0
 11 28  1  0  0  0
 12 13  1  0  0  0
 12 29  1  0  0  0
 13 14  2  0  0  0
 14 23  1  0  0  0
 15 17  2  0  0  0
 15 21  1  0  0  0
 17 18  1  0  0  0
 17 30  1  0  0  0
 18 19  2  0  0  0
 18 31  1  0  0  0
 19 20  1  0  0  0
 19 32  1  0  0  0
 20 21  2  0  0  0
 20 33  1  0  0  0
 21 22  1  0  0  0
 23 34  1  0  0  0
 23 35  1  0  0  0
 23 36  1  0  0  0
M  END
>  <Name>
Midazolam

>  <Family>
A.15

>  <IC50_uM>
0.004800

>  <set>
2

$$$$
alpha-Hydroxymidazolam
  Cerius2 12180215283D 1   1.00000                          
 Structure written by MMmdl.
 37 40  0  0  0  0  0  0  0  0999 V2000
    0.2633    2.1643    0.0193 C   0  0  0  0  0  0
    0.0416    0.7788    0.1634 C   0  0  0  0  0  0
    1.1541   -0.2290    0.2216 C   0  0  0  0  0  0
    2.2090   -0.1315    0.9659 N   0  0  0  0  0  0
    2.3673    1.0484    1.8066 C   0  0  0  0  0  0
    2.5628    2.2287    0.9381 C   0  0  0  0  0  0
    1.5745    2.7084    0.0996 N   0  0  0  0  0  0
   -0.8347    3.0268   -0.1304 C   0  0  0  0  0  0
   -2.1370    2.5196   -0.1337 C   0  0  0  0  0  0
   -2.3518    1.1550    0.0270 C   0  0  0  0  0  0
   -1.2752    0.2854    0.1808 C   0  0  0  0  0  0
    3.6232    3.0927    0.8131 C   0  0  0  0  0  0
    3.3414    4.0766   -0.0909 N   0  0  0  0  0  0
    2.1228    3.8154   -0.5498 C   0  0  0  0  0  0
    1.0510   -1.4419   -0.6449 C   0  0  0  0  0  0
   -3.9584    0.5377    0.0384 Cl  0  0  0  0  0  0
    1.4948   -2.6756   -0.1528 C   0  0  0  0  0  0
    1.4082   -3.8175   -0.9533 C   0  0  0  0  0  0
    0.8902   -3.7298   -2.2467 C   0  0  0  0  0  0
    0.4634   -2.4991   -2.7458 C   0  0  0  0  0  0
    0.5497   -1.3617   -1.9467 C   0  0  0  0  0  0
    0.1615   -0.1864   -2.4648 F   0  0  0  0  0  0
    1.4445    4.5455   -1.6685 C   0  0  0  0  0  0
    2.3394    5.5596   -2.1422 O   0  0  0  0  0  0
    3.2502    0.9013    2.4392 H   0  0  0  0  0  0
    1.5205    1.1763    2.4919 H   0  0  0  0  0  0
   -0.7186    4.1063   -0.1848 H   0  0  0  0  0  0
   -2.9773    3.2028   -0.2393 H   0  0  0  0  0  0
   -1.4671   -0.7775    0.3102 H   0  0  0  0  0  0
    4.5717    3.0541    1.3374 H   0  0  0  0  0  0
    1.9006   -2.7556    0.8537 H   0  0  0  0  0  0
    1.7468   -4.7779   -0.5675 H   0  0  0  0  0  0
    0.8253   -4.6212   -2.8686 H   0  0  0  0  0  0
    0.0701   -2.4215   -3.7558 H   0  0  0  0  0  0
    0.5340    5.0334   -1.3099 H   0  0  0  0  0  0
    1.2193    3.8894   -2.5132 H   0  0  0  0  0  0
    1.8368    6.0300   -2.8396 H   0  0  0  0  0  0
  1  2  2  0  0  0
  1  7  1  0  0  0
  1  8  1  0  0  0
  2  3  1  0  0  0
  2 11  1  0  0  0
  3  4  2  0  0  0
  3 15  1  0  0  0
  4  5  1  0  0  0
  5  6  1  0  0  0
  5 25  1  0  0  0
  5 26  1  0  0  0
  6  7  1  0  0  0
  6 12  2  0  0  0
  7 14  1  0  0  0
  8  9  2  0  0  0
  8 27  1  0  0  0
  9 10  1  0  0  0
  9 28  1  0  0  0
 10 11  2  0  0  0
 10 16  1  0  0  0
 11 29  1  0  0  0
 12 13  1  0  0  0
 12 30  1  0  0  0
 13 14  2  0  0  0
 14 23  1  0  0  0
 15 17  2  0  0  0
 15 21  1  0  0  0
 17 18  1  0  0  0
 17 31  1  0  0  0
 18 19  2  0  0  0
 18 32  1  0  0  0
 19 20  1  0  0  0
 19 33  1  0  0  0
 20 21  2  0  0  0
 20 34  1  0  0  0
 21 22  1  0  0  0
 23 24  1  0  0  0
 23 35  1  0  0  0
 23 36  1  0  0  0
 24 37  1  0  0  0
M  END
>  <Name>
alpha-Hydroxymidazolam

>  <Family>
A.15

>  <IC50_uM>
0.004500

>  <set>
1

$$$$
Ro15-8670
  Cerius2 12180215283D 1   1.00000                          
 Structure written by MMmdl.
 42 45  0  0  0  0  0  0  0  0999 V2000
    0.2549    2.1684    0.0676 C   0  0  0  0  0  0
    0.0485    0.7801    0.1976 C   0  0  0  0  0  0
    1.1701   -0.2212    0.2240 C   0  0  0  0  0  0
    2.2544   -0.1179    0.9217 N   0  0  0  0  0  0
    2.4353    1.0419    1.7803 C   0  0  0  0  0  0
    2.5958    2.2489    0.9401 C   0  0  0  0  0  0
    1.5457    2.7434    0.1907 N   0  0  0  0  0  0
   -0.8451    3.0151   -0.1548 C   0  0  0  0  0  0
   -2.1415    2.4950   -0.1865 C   0  0  0  0  0  0
   -2.3474    1.1330    0.0014 C   0  0  0  0  0  0
   -1.2654    0.2766    0.1909 C   0  0  0  0  0  0
    3.6496    3.1369    0.7644 C   0  0  0  0  0  0
    3.2390    4.1892   -0.0420 N   0  0  0  0  0  0
    1.9843    3.9337   -0.3426 C   0  0  0  0  0  0
    1.0462   -1.4369   -0.6438 C   0  0  0  0  0  0
   -3.9469    0.4981   -0.0189 Cl  0  0  0  0  0  0
    1.4796   -2.6735   -0.1506 C   0  0  0  0  0  0
    1.3765   -3.8172   -0.9443 C   0  0  0  0  0  0
    0.8511   -3.7267   -2.2334 C   0  0  0  0  0  0
    0.4305   -2.4937   -2.7327 C   0  0  0  0  0  0
    0.5305   -1.3463   -1.9428 C   0  0  0  0  0  0
    4.9971    3.0574    1.3428 C   0  0  0  0  0  0
    5.3953    2.1348    2.0489 O   0  0  0  0  0  0
    5.7617    4.1418    1.0073 O   0  0  0  0  0  0
    7.7866    5.4057    1.1039 C   0  0  0  0  0  0
    7.0867    4.1393    1.5571 C   0  0  0  0  0  0
    3.3179    0.8691    2.4017 H   0  0  0  0  0  0
    1.6015    1.1517    2.4853 H   0  0  0  0  0  0
   -0.7318    4.0925   -0.2575 H   0  0  0  0  0  0
   -2.9835    3.1662   -0.3413 H   0  0  0  0  0  0
   -1.4493   -0.7882    0.3166 H   0  0  0  0  0  0
    1.3584    4.5565   -0.9699 H   0  0  0  0  0  0
    1.8904   -2.7534    0.8537 H   0  0  0  0  0  0
    1.7076   -4.7797   -0.5579 H   0  0  0  0  0  0
    0.7745   -4.6189   -2.8529 H   0  0  0  0  0  0
    0.0284   -2.4252   -3.7419 H   0  0  0  0  0  0
    0.2139   -0.3919   -2.3575 H   0  0  0  0  0  0
    8.8019    5.4569    1.5071 H   0  0  0  0  0  0
    7.2300    6.2911    1.4296 H   0  0  0  0  0  0
    7.8380    5.4460    0.0107 H   0  0  0  0  0  0
    7.6336    3.2619    1.1949 H   0  0  0  0  0  0
    7.0326    4.1173    2.6512 H   0  0  0  0  0  0
  1  2  2  0  0  0
  1  7  1  0  0  0
  1  8  1  0  0  0
  2  3  1  0  0  0
  2 11  1  0  0  0
  3  4  2  0  0  0
  3 15  1  0  0  0
  4  5  1  0  0  0
  5  6  1  0  0  0
  5 27  1  0  0  0
  5 28  1  0  0  0
  6  7  1  0  0  0
  6 12  2  0  0  0
  7 14  1  0  0  0
  8  9  2  0  0  0
  8 29  1  0  0  0
  9 10  1  0  0  0
  9 30  1  0  0  0
 10 11  2  0  0  0
 10 16  1  0  0  0
 11 31  1  0  0  0
 12 13  1  0  0  0
 12 22  1  0  0  0
 13 14  2  0  0  0
 14 32  1  0  0  0
 15 17  2  0  0  0
 15 21  1  0  0  0
 17 18  1  0  0  0
 17 33  1  0  0  0
 18 19  2  0  0  0
 18 34  1  0  0  0
 19 20  1  0  0  0
 19 35  1  0  0  0
 20 21  2  0  0  0
 20 36  1  0  0  0
 21 37  1  0  0  0
 22 23  2  0  0  0
 22 24  1  0  0  0
 24 26  1  0  0  0
 25 26  1  0  0  0
 25 38  1  0  0  0
 25 39  1  0  0  0
 25 40  1  0  0  0
 26 41  1  0  0  0
 26 42  1  0  0  0
M  END
>  <Name>
Ro15-8670

>  <Family>
A.15

>  <IC50_uM>
0.015000

>  <set>
2

$$$$
Ro16-0529
  Cerius2 12180215283D 1   1.00000                          
 Structure written by MMmdl.
 48 51  0  0  0  0  0  0  0  0999 V2000
    0.2585    2.1116   -0.0153 C   0  0  0  0  0  0
    0.0005    0.7507    0.2641 C   0  0  0  0  0  0
    1.1202   -0.2547    0.2941 C   0  0  0  0  0  0
    2.1959   -0.1476    1.0079 N   0  0  0  0  0  0
    2.3799    1.0526    1.8092 C   0  0  0  0  0  0
    2.5902    2.1901    0.8828 C   0  0  0  0  0  0
    1.5711    2.6473    0.0670 N   0  0  0  0  0  0
   -0.8054    2.9806   -0.3105 C   0  0  0  0  0  0
   -2.1215    2.5252   -0.2505 C   0  0  0  0  0  0
   -2.3875    1.2104    0.1210 C   0  0  0  0  0  0
   -1.3372    0.3248    0.3817 C   0  0  0  0  0  0
    3.6797    3.0168    0.6420 C   0  0  0  0  0  0
    3.3206    4.0019   -0.2680 N   0  0  0  0  0  0
    2.0616    3.7657   -0.5666 C   0  0  0  0  0  0
    1.0377   -1.4426   -0.6202 C   0  0  0  0  0  0
    0.5539   -1.3162   -1.9293 C   0  0  0  0  0  0
    0.5031   -2.4342   -2.7651 C   0  0  0  0  0  0
    0.9422   -3.6748   -2.3032 C   0  0  0  0  0  0
    1.4398   -3.8017   -1.0069 C   0  0  0  0  0  0
    1.4937   -2.6875   -0.1673 C   0  0  0  0  0  0
   -1.7789   -1.2652    0.9098 Cl  0  0  0  0  0  0
    5.0189    2.9342    1.2406 C   0  0  0  0  0  0
    5.3438    2.0947    2.0735 O   0  0  0  0  0  0
    5.8452    3.9056    0.7553 O   0  0  0  0  0  0
    7.2228    4.0289    1.1985 C   0  0  0  0  0  0
    7.2986    4.3464    2.6955 C   0  0  0  0  0  0
    7.7786    5.2269    0.4139 C   0  0  0  0  0  0
    8.0383    2.7842    0.8334 C   0  0  0  0  0  0
    3.2448    0.9003    2.4597 H   0  0  0  0  0  0
    1.5328    1.2277    2.4840 H   0  0  0  0  0  0
   -0.6465    4.0338   -0.5353 H   0  0  0  0  0  0
   -2.9437    3.2087   -0.4569 H   0  0  0  0  0  0
   -3.4220    0.8822    0.2051 H   0  0  0  0  0  0
    1.4684    4.3487   -1.2603 H   0  0  0  0  0  0
    0.2249   -0.3567   -2.3212 H   0  0  0  0  0  0
    0.1248   -2.3358   -3.7814 H   0  0  0  0  0  0
    0.9018   -4.5440   -2.9578 H   0  0  0  0  0  0
    1.7878   -4.7691   -0.6494 H   0  0  0  0  0  0
    1.8842   -2.7984    0.8424 H   0  0  0  0  0  0
    8.3206    4.5980    2.9986 H   0  0  0  0  0  0
    6.9738    3.5005    3.3088 H   0  0  0  0  0  0
    6.6428    5.1872    2.9483 H   0  0  0  0  0  0
    8.8262    5.4263    0.6632 H   0  0  0  0  0  0
    7.1954    6.1321    0.6199 H   0  0  0  0  0  0
    7.7068    5.0527   -0.6660 H   0  0  0  0  0  0
    9.1064    2.9382    1.0203 H   0  0  0  0  0  0
    7.9027    2.5266   -0.2231 H   0  0  0  0  0  0
    7.7274    1.9088    1.4116 H   0  0  0  0  0  0
  1  2  2  0  0  0
  1  7  1  0  0  0
  1  8  1  0  0  0
  2  3  1  0  0  0
  2 11  1  0  0  0
  3  4  2  0  0  0
  3 15  1  0  0  0
  4  5  1  0  0  0
  5  6  1  0  0  0
  5 29  1  0  0  0
  5 30  1  0  0  0
  6  7  1  0  0  0
  6 12  2  0  0  0
  7 14  1  0  0  0
  8  9  2  0  0  0
  8 31  1  0  0  0
  9 10  1  0  0  0
  9 32  1  0  0  0
 10 11  2  0  0  0
 10 33  1  0  0  0
 11 21  1  0  0  0
 12 13  1  0  0  0
 12 22  1  0  0  0
 13 14  2  0  0  0
 14 34  1  0  0  0
 15 16  2  0  0  0
 15 20  1  0  0  0
 16 17  1  0  0  0
 16 35  1  0  0  0
 17 18  2  0  0  0
 17 36  1  0  0  0
 18 19  1  0  0  0
 18 37  1  0  0  0
 19 20  2  0  0  0
 19 38  1  0  0  0
 20 39  1  0  0  0
 22 23  2  0  0  0
 22 24  1  0  0  0
 24 25  1  0  0  0
 25 26  1  0  0  0
 25 27  1  0  0  0
 25 28  1  0  0  0
 26 40  1  0  0  0
 26 41  1  0  0  0
 26 42  1  0  0  0
 27 43  1  0  0  0
 27 44  1  0  0  0
 27 45  1  0  0  0
 28 46  1  0  0  0
 28 47  1  0  0  0
 28 48  1  0  0  0
M  END
>  <Name>
Ro16-0529

>  <Family>
A.15

>  <IC50_uM>
0.014000

>  <set>
1

$$$$
Ro21-5205
  Cerius2 12180215283D 1   1.00000                          
 Structure written by MMmdl.
 39 42  0  0  0  0  0  0  0  0999 V2000
    0.2535    2.1668    0.0669 C   0  0  0  0  0  0
    0.0453    0.7790    0.2015 C   0  0  0  0  0  0
    1.1666   -0.2227    0.2271 C   0  0  0  0  0  0
    2.2489   -0.1220    0.9291 N   0  0  0  0  0  0
    2.4311    1.0430    1.7806 C   0  0  0  0  0  0
    2.5983    2.2397    0.9268 C   0  0  0  0  0  0
    1.5477    2.7365    0.1800 N   0  0  0  0  0  0
   -0.8448    3.0153   -0.1565 C   0  0  0  0  0  0
   -2.1416    2.4967   -0.1865 C   0  0  0  0  0  0
   -2.3488    1.1347    0.0038 C   0  0  0  0  0  0
   -1.2684    0.2764    0.1959 C   0  0  0  0  0  0
    3.6636    3.1068    0.7228 C   0  0  0  0  0  0
    3.2564    4.1560   -0.0902 N   0  0  0  0  0  0
    1.9932    3.9170   -0.3689 C   0  0  0  0  0  0
    1.0459   -1.4351   -0.6381 C   0  0  0  0  0  0
    1.4824   -2.6723   -0.1486 C   0  0  0  0  0  0
    1.3802   -3.8134   -0.9484 C   0  0  0  0  0  0
    0.8543   -3.7212   -2.2384 C   0  0  0  0  0  0
    0.4351   -2.4866   -2.7349 C   0  0  0  0  0  0
    0.5369   -1.3502   -1.9367 C   0  0  0  0  0  0
    5.0204    3.0067    1.2757 C   0  0  0  0  0  0
    5.4014    2.1049    2.0178 O   0  0  0  0  0  0
    5.8176    4.0418    0.8669 O   0  0  0  0  0  0
    7.1539    3.9976    1.3741 C   0  0  0  0  0  0
   -3.9497    0.5025   -0.0170 Cl  0  0  0  0  0  0
    0.1552   -0.1714   -2.4513 F   0  0  0  0  0  0
    3.3119    0.8735    2.4055 H   0  0  0  0  0  0
    1.5960    1.1622    2.4826 H   0  0  0  0  0  0
   -0.7294    4.0922   -0.2640 H   0  0  0  0  0  0
   -2.9835    3.1682   -0.3421 H   0  0  0  0  0  0
   -1.4553   -0.7873    0.3261 H   0  0  0  0  0  0
    1.3664    4.5417   -0.9933 H   0  0  0  0  0  0
    1.8946   -2.7552    0.8550 H   0  0  0  0  0  0
    1.7131   -4.7768   -0.5649 H   0  0  0  0  0  0
    0.7774   -4.6121   -2.8597 H   0  0  0  0  0  0
    0.0358   -2.4057   -3.7422 H   0  0  0  0  0  0
    7.6932    4.8645    0.9827 H   0  0  0  0  0  0
    7.6619    3.0898    1.0342 H   0  0  0  0  0  0
    7.1495    4.0554    2.4670 H   0  0  0  0  0  0
  1  2  2  0  0  0
  1  7  1  0  0  0
  1  8  1  0  0  0
  2  3  1  0  0  0
  2 11  1  0  0  0
  3  4  2  0  0  0
  3 15  1  0  0  0
  4  5  1  0  0  0
  5  6  1  0  0  0
  5 27  1  0  0  0
  5 28  1  0  0  0
  6  7  1  0  0  0
  6 12  2  0  0  0
  7 14  1  0  0  0
  8  9  2  0  0  0
  8 29  1  0  0  0
  9 10  1  0  0  0
  9 30  1  0  0  0
 10 11  2  0  0  0
 10 25  1  0  0  0
 11 31  1  0  0  0
 12 13  1  0  0  0
 12 21  1  0  0  0
 13 14  2  0  0  0
 14 32  1  0  0  0
 15 16  2  0  0  0
 15 20  1  0  0  0
 16 17  1  0  0  0
 16 33  1  0  0  0
 17 18  2  0  0  0
 17 34  1  0  0  0
 18 19  1  0  0  0
 18 35  1  0  0  0
 19 20  2  0  0  0
 19 36  1  0  0  0
 20 26  1  0  0  0
 21 22  2  0  0  0
 21 23  1  0  0  0
 23 24  1  0  0  0
 24 37  1  0  0  0
 24 38  1  0  0  0
 24 39  1  0  0  0
M  END
>  <Name>
Ro21-5205

>  <Family>
A.15

>  <IC50_uM>
0.007400

>  <set>
1

$$$$
Ro22-1892
  Cerius2 12180215283D 1   1.00000                          
 Structure written by MMmdl.
 46 49  0  0  0  0  0  0  0  0999 V2000
    0.2657    2.1615    0.0846 C   0  0  0  0  0  0
    0.0821    0.7673    0.2013 C   0  0  0  0  0  0
    1.1887   -0.2398    0.2216 C   0  0  0  0  0  0
    2.2824   -0.0784    0.9473 N   0  3  0  0  0  0
    2.4980    1.1107    1.8027 C   0  0  0  0  0  0
    2.6060    2.3344    0.9669 C   0  0  0  0  0  0
    1.5397    2.7779    0.2069 N   0  0  0  0  0  0
   -0.8509    2.9904   -0.1376 C   0  0  0  0  0  0
   -2.1381    2.4525   -0.1967 C   0  0  0  0  0  0
   -2.3210    1.0856   -0.0383 C   0  0  0  0  0  0
   -1.2253    0.2464    0.1552 C   0  0  0  0  0  0
    3.6262    3.2606    0.7878 C   0  0  0  0  0  0
    3.1815    4.2816   -0.0380 N   0  0  0  0  0  0
    1.9398    3.9752   -0.3432 C   0  0  0  0  0  0
    1.0658   -1.4467   -0.6336 C   0  0  0  0  0  0
    1.4575   -2.6984   -0.1502 C   0  0  0  0  0  0
    1.2996   -3.8270   -0.9578 C   0  0  0  0  0  0
    0.7529   -3.7054   -2.2383 C   0  0  0  0  0  0
    0.3605   -2.4544   -2.7173 C   0  0  0  0  0  0
    0.5170   -1.3307   -1.9125 C   0  0  0  0  0  0
   -3.9080    0.4215   -0.0979 Cl  0  0  0  0  0  0
    0.1365   -0.1336   -2.3841 F   0  0  0  0  0  0
    3.2309   -0.9506    0.9117 O   0  5  0  0  0  0
    4.9757    3.2407    1.3695 C   0  0  0  0  0  0
    5.3878    2.3592    2.1180 O   0  0  0  0  0  0
    5.7172    4.3202    0.9761 O   0  0  0  0  0  0
    7.0639    4.4044    1.4828 C   0  0  0  0  0  0
    7.4600    5.8757    1.4641 C   0  0  0  0  0  0
    7.9936    3.5842    0.5960 C   0  0  0  0  0  0
    3.4011    0.9333    2.3930 H   0  0  0  0  0  0
    1.6637    1.1721    2.5108 H   0  0  0  0  0  0
   -0.7574    4.0715   -0.2242 H   0  0  0  0  0  0
   -2.9889    3.1123   -0.3519 H   0  0  0  0  0  0
   -1.4022   -0.8218    0.2595 H   0  0  0  0  0  0
    1.2971    4.5637   -0.9864 H   0  0  0  0  0  0
    1.8783   -2.8031    0.8472 H   0  0  0  0  0  0
    1.6021   -4.8055   -0.5878 H   0  0  0  0  0  0
    0.6321   -4.5888   -2.8632 H   0  0  0  0  0  0
   -0.0659   -2.3537   -3.7114 H   0  0  0  0  0  0
    7.1064    4.0456    2.5182 H   0  0  0  0  0  0
    8.4784    6.0187    1.8377 H   0  0  0  0  0  0
    6.7746    6.4619    2.0858 H   0  0  0  0  0  0
    7.3953    6.2881    0.4510 H   0  0  0  0  0  0
    9.0325    3.6641    0.9302 H   0  0  0  0  0  0
    7.9328    3.9150   -0.4467 H   0  0  0  0  0  0
    7.7091    2.5270    0.6059 H   0  0  0  0  0  0
  1  2  2  0  0  0
  1  7  1  0  0  0
  1  8  1  0  0  0
  2  3  1  0  0  0
  2 11  1  0  0  0
  3  4  2  0  0  0
  3 15  1  0  0  0
  4  5  1  0  0  0
  4 23  1  0  0  0
  5  6  1  0  0  0
  5 30  1  0  0  0
  5 31  1  0  0  0
  6  7  1  0  0  0
  6 12  2  0  0  0
  7 14  1  0  0  0
  8  9  2  0  0  0
  8 32  1  0  0  0
  9 10  1  0  0  0
  9 33  1  0  0  0
 10 11  2  0  0  0
 10 21  1  0  0  0
 11 34  1  0  0  0
 12 13  1  0  0  0
 12 24  1  0  0  0
 13 14  2  0  0  0
 14 35  1  0  0  0
 15 16  2  0  0  0
 15 20  1  0  0  0
 16 17  1  0  0  0
 16 36  1  0  0  0
 17 18  2  0  0  0
 17 37  1  0  0  0
 18 19  1  0  0  0
 18 38  1  0  0  0
 19 20  2  0  0  0
 19 39  1  0  0  0
 20 22  1  0  0  0
 24 25  2  0  0  0
 24 26  1  0  0  0
 26 27  1  0  0  0
 27 28  1  0  0  0
 27 29  1  0  0  0
 27 40  1  0  0  0
 28 41  1  0  0  0
 28 42  1  0  0  0
 28 43  1  0  0  0
 29 44  1  0  0  0
 29 45  1  0  0  0
 29 46  1  0  0  0
M  CHG  2   4   1  23  -1
M  END
>  <Name>
Ro22-1892

>  <Family>
A.15

>  <IC50_uM>
0.012000

>  <set>
2

$$$$
Ro22-0992
  Cerius2 12180215283D 1   1.00000                          
 Structure written by MMmdl.
 36 39  0  0  0  0  0  0  0  0999 V2000
    0.2478    2.1808    0.1128 C   0  0  0  0  0  0
    0.0520    0.7861    0.1916 C   0  0  0  0  0  0
    1.1815   -0.2064    0.1906 C   0  0  0  0  0  0
    2.2724   -0.1173    0.8797 N   0  0  0  0  0  0
    2.4532    1.0264    1.7601 C   0  0  0  0  0  0
    2.6099    2.2471    0.9395 C   0  0  0  0  0  0
    1.5390    2.7593    0.2306 N   0  0  0  0  0  0
   -0.8586    3.0269   -0.0798 C   0  0  0  0  0  0
   -2.1498    2.4985   -0.1438 C   0  0  0  0  0  0
   -2.3443    1.1276   -0.0207 C   0  0  0  0  0  0
   -1.2569    0.2723    0.1435 C   0  0  0  0  0  0
    3.6665    3.1273    0.7343 C   0  0  0  0  0  0
    3.2279    4.2024   -0.0285 N   0  0  0  0  0  0
    1.9615    3.9618   -0.2865 C   0  0  0  0  0  0
    1.0471   -1.4141   -0.6772 C   0  0  0  0  0  0
    1.4847   -2.6374   -0.1480 C   0  0  0  0  0  0
    1.3705   -3.8064   -0.9010 C   0  0  0  0  0  0
    0.8299   -3.7573   -2.1849 C   0  0  0  0  0  0
    0.4106   -2.5383   -2.7227 C   0  0  0  0  0  0
    0.5216   -1.3615   -1.9754 C   0  0  0  0  0  0
   -3.9380    0.4807   -0.0886 Cl  0  0  0  0  0  0
    0.0378    0.1154   -2.7313 Cl  0  0  0  0  0  0
    5.0486    3.0577    1.2199 C   0  0  0  0  0  0
    5.5034    2.1401    1.8968 O   0  0  0  0  0  0
    5.8375    4.1025    0.8780 O   0  0  0  0  0  0
    3.3264    0.8393    2.3883 H   0  0  0  0  0  0
    1.6163    1.1239    2.4639 H   0  0  0  0  0  0
   -0.7538    4.1085   -0.1417 H   0  0  0  0  0  0
   -2.9969    3.1682   -0.2767 H   0  0  0  0  0  0
   -1.4377   -0.7973    0.2222 H   0  0  0  0  0  0
    1.3168    4.6022   -0.8756 H   0  0  0  0  0  0
    1.9069   -2.6843    0.8542 H   0  0  0  0  0  0
    1.7038   -4.7561   -0.4860 H   0  0  0  0  0  0
    0.7418   -4.6693   -2.7733 H   0  0  0  0  0  0
    0.0050   -2.5152   -3.7323 H   0  0  0  0  0  0
    6.7113    3.8958    1.2845 H   0  0  0  0  0  0
  1  2  2  0  0  0
  1  7  1  0  0  0
  1  8  1  0  0  0
  2  3  1  0  0  0
  2 11  1  0  0  0
  3  4  2  0  0  0
  3 15  1  0  0  0
  4  5  1  0  0  0
  5  6  1  0  0  0
  5 26  1  0  0  0
  5 27  1  0  0  0
  6  7  1  0  0  0
  6 12  2  0  0  0
  7 14  1  0  0  0
  8  9  2  0  0  0
  8 28  1  0  0  0
  9 10  1  0  0  0
  9 29  1  0  0  0
 10 11  2  0  0  0
 10 21  1  0  0  0
 11 30  1  0  0  0
 12 13  1  0  0  0
 12 23  1  0  0  0
 13 14  2  0  0  0
 14 31  1  0  0  0
 15 16  2  0  0  0
 15 20  1  0  0  0
 16 17  1  0  0  0
 16 32  1  0  0  0
 17 18  2  0  0  0
 17 33  1  0  0  0
 18 19  1  0  0  0
 18 34  1  0  0  0
 19 20  2  0  0  0
 19 35  1  0  0  0
 20 22  1  0  0  0
 23 24  2  0  0  0
 23 25  1  0  0  0
 25 36  1  0  0  0
M  END
>  <Name>
Ro22-0992

>  <Family>
A.15

>  <IC50_uM>
0.013000

>  <set>
1

$$$$
Ro21-8137
  Cerius2 12180215283D 1   1.00000                          
 Structure written by MMmdl.
 37 40  0  0  0  0  0  0  0  0999 V2000
    0.2555    2.1602    0.0609 C   0  0  0  0  0  0
    0.0438    0.7755    0.2062 C   0  0  0  0  0  0
    1.1656   -0.2221    0.2261 C   0  0  0  0  0  0
    2.2501   -0.1173    0.9224 N   0  0  0  0  0  0
    2.4355    1.0413    1.7837 C   0  0  0  0  0  0
    2.5913    2.2545    0.9504 C   0  0  0  0  0  0
    1.5501    2.7279    0.1732 N   0  0  0  0  0  0
   -0.8400    3.0100   -0.1698 C   0  0  0  0  0  0
   -2.1381    2.4945   -0.1950 C   0  0  0  0  0  0
   -2.3487    1.1344    0.0068 C   0  0  0  0  0  0
   -1.2702    0.2749    0.2050 C   0  0  0  0  0  0
    3.6387    3.1503    0.7700 C   0  0  0  0  0  0
    3.2566    4.1452   -0.1174 N   0  0  0  0  0  0
    2.0027    3.8858   -0.4158 C   0  0  0  0  0  0
    1.0448   -1.4341   -0.6397 C   0  0  0  0  0  0
    1.4812   -2.6714   -0.1502 C   0  0  0  0  0  0
    1.3793   -3.8124   -0.9501 C   0  0  0  0  0  0
    0.8536   -3.7200   -2.2402 C   0  0  0  0  0  0
    0.4343   -2.4855   -2.7365 C   0  0  0  0  0  0
    0.5359   -1.3490   -1.9381 C   0  0  0  0  0  0
   -3.9511    0.5058   -0.0086 Cl  0  0  0  0  0  0
    0.1540   -0.1703   -2.4528 F   0  0  0  0  0  0
    4.9768    3.1407    1.3711 C   0  0  0  0  0  0
    5.3488    2.2732    2.1620 O   0  0  0  0  0  0
    5.8321    4.1196    0.9576 N   0  0  0  0  0  0
    3.3291    0.8541    2.3839 H   0  0  0  0  0  0
    1.6117    1.1469    2.5004 H   0  0  0  0  0  0
   -0.7203    4.0856   -0.2856 H   0  0  0  0  0  0
   -2.9784    3.1667   -0.3557 H   0  0  0  0  0  0
   -1.4585   -0.7878    0.3413 H   0  0  0  0  0  0
    1.3872    4.4769   -1.0827 H   0  0  0  0  0  0
    1.8934   -2.7543    0.8535 H   0  0  0  0  0  0
    1.7124   -4.7757   -0.5666 H   0  0  0  0  0  0
    0.7771   -4.6108   -2.8615 H   0  0  0  0  0  0
    0.0351   -2.4045   -3.7439 H   0  0  0  0  0  0
    6.7759    4.1509    1.3219 H   0  0  0  0  0  0
    5.6090    4.7752    0.2208 H   0  0  0  0  0  0
  1  2  2  0  0  0
  1  7  1  0  0  0
  1  8  1  0  0  0
  2  3  1  0  0  0
  2 11  1  0  0  0
  3  4  2  0  0  0
  3 15  1  0  0  0
  4  5  1  0  0  0
  5  6  1  0  0  0
  5 26  1  0  0  0
  5 27  1  0  0  0
  6  7  1  0  0  0
  6 12  2  0  0  0
  7 14  1  0  0  0
  8  9  2  0  0  0
  8 28  1  0  0  0
  9 10  1  0  0  0
  9 29  1  0  0  0
 10 11  2  0  0  0
 10 21  1  0  0  0
 11 30  1  0  0  0
 12 13  1  0  0  0
 12 23  1  0  0  0
 13 14  2  0  0  0
 14 31  1  0  0  0
 15 16  2  0  0  0
 15 20  1  0  0  0
 16 17  1  0  0  0
 16 32  1  0  0  0
 17 18  2  0  0  0
 17 33  1  0  0  0
 18 19  1  0  0  0
 18 34  1  0  0  0
 19 20  2  0  0  0
 19 35  1  0  0  0
 20 22  1  0  0  0
 23 24  2  0  0  0
 23 25  1  0  0  0
 25 36  1  0  0  0
 25 37  1  0  0  0
M  END
>  <Name>
Ro21-8137

>  <Family>
A.15

>  <IC50_uM>
0.003500

>  <set>
2

$$$$
Ro21-8384
  Cerius2 12180215283D 1   1.00000                          
 Structure written by MMmdl.
 37 40  0  0  0  0  0  0  0  0999 V2000
    0.2496    2.1745    0.1057 C   0  0  0  0  0  0
    0.0511    0.7825    0.1982 C   0  0  0  0  0  0
    1.1818   -0.2052    0.1904 C   0  0  0  0  0  0
    2.2764   -0.1123    0.8712 N   0  0  0  0  0  0
    2.4659    1.0217    1.7630 C   0  0  0  0  0  0
    2.5973    2.2620    0.9684 C   0  0  0  0  0  0
    1.5399    2.7512    0.2246 N   0  0  0  0  0  0
   -0.8539    3.0216   -0.0978 C   0  0  0  0  0  0
   -2.1462    2.4952   -0.1566 C   0  0  0  0  0  0
   -2.3435    1.1259   -0.0185 C   0  0  0  0  0  0
   -1.2578    0.2699    0.1545 C   0  0  0  0  0  0
    3.6339    3.1731    0.8027 C   0  0  0  0  0  0
    3.2294    4.1942   -0.0434 N   0  0  0  0  0  0
    1.9739    3.9323   -0.3324 C   0  0  0  0  0  0
    1.0461   -1.4123   -0.6779 C   0  0  0  0  0  0
    1.4833   -2.6361   -0.1495 C   0  0  0  0  0  0
    1.3676   -3.8046   -0.9029 C   0  0  0  0  0  0
    0.8262   -3.7546   -2.1864 C   0  0  0  0  0  0
    0.4076   -2.5351   -2.7234 C   0  0  0  0  0  0
    0.5198   -1.3587   -1.9757 C   0  0  0  0  0  0
   -3.9385    0.4815   -0.0809 Cl  0  0  0  0  0  0
    0.0363    0.1189   -2.7306 Cl  0  0  0  0  0  0
    4.9811    3.1552    1.3827 C   0  0  0  0  0  0
    5.3731    2.2644    2.1374 O   0  0  0  0  0  0
    5.8213    4.1556    0.9904 N   0  0  0  0  0  0
    3.3702    0.8243    2.3438 H   0  0  0  0  0  0
    1.6526    1.0973    2.4954 H   0  0  0  0  0  0
   -0.7447    4.1021   -0.1706 H   0  0  0  0  0  0
   -2.9919    3.1653   -0.2970 H   0  0  0  0  0  0
   -1.4396   -0.7989    0.2411 H   0  0  0  0  0  0
    1.3442    4.5391   -0.9715 H   0  0  0  0  0  0
    1.9059   -2.6837    0.8525 H   0  0  0  0  0  0
    1.7004   -4.7548   -0.4884 H   0  0  0  0  0  0
    0.7371   -4.6664   -2.7751 H   0  0  0  0  0  0
    0.0013   -2.5114   -3.7328 H   0  0  0  0  0  0
    6.7703    4.1833    1.3412 H   0  0  0  0  0  0
    5.5810    4.8344    0.2803 H   0  0  0  0  0  0
  1  2  2  0  0  0
  1  7  1  0  0  0
  1  8  1  0  0  0
  2  3  1  0  0  0
  2 11  1  0  0  0
  3  4  2  0  0  0
  3 15  1  0  0  0
  4  5  1  0  0  0
  5  6  1  0  0  0
  5 26  1  0  0  0
  5 27  1  0  0  0
  6  7  1  0  0  0
  6 12  2  0  0  0
  7 14  1  0  0  0
  8  9  2  0  0  0
  8 28  1  0  0  0
  9 10  1  0  0  0
  9 29  1  0  0  0
 10 11  2  0  0  0
 10 21  1  0  0  0
 11 30  1  0  0  0
 12 13  1  0  0  0
 12 23  1  0  0  0
 13 14  2  0  0  0
 14 31  1  0  0  0
 15 16  2  0  0  0
 15 20  1  0  0  0
 16 17  1  0  0  0
 16 32  1  0  0  0
 17 18  2  0  0  0
 17 33  1  0  0  0
 18 19  1  0  0  0
 18 34  1  0  0  0
 19 20  2  0  0  0
 19 35  1  0  0  0
 20 22  1  0  0  0
 23 24  2  0  0  0
 23 25  1  0  0  0
 25 36  1  0  0  0
 25 37  1  0  0  0
M  END
>  <Name>
Ro21-8384

>  <Family>
A.15

>  <IC50_uM>
0.003800

>  <set>
0

$$$$
Ro21-8482
  Cerius2 12180215283D 1   1.00000                          
 Structure written by MMmdl.
 48 51  0  0  0  0  0  0  0  0999 V2000
    0.2601    2.1742    0.0582 C   0  0  0  0  0  0
    0.0451    0.7834    0.1528 C   0  0  0  0  0  0
    1.1640   -0.2156    0.1902 C   0  0  0  0  0  0
    2.2229   -0.1274    0.9293 N   0  0  0  0  0  0
    2.3708    1.0382    1.7935 C   0  0  0  0  0  0
    2.5796    2.2296    0.9409 C   0  0  0  0  0  0
    1.5715    2.7230    0.1284 N   0  0  0  0  0  0
   -0.8428    3.0337   -0.0560 C   0  0  0  0  0  0
   -2.1422    2.5212   -0.0869 C   0  0  0  0  0  0
   -2.3492    1.1499    0.0089 C   0  0  0  0  0  0
   -1.2680    0.2811    0.1324 C   0  0  0  0  0  0
    3.6587    3.0800    0.7869 C   0  0  0  0  0  0
    3.3457    4.0628   -0.1346 N   0  0  0  0  0  0
    2.1064    3.8243   -0.5365 C   0  0  0  0  0  0
    1.0526   -1.4210   -0.6815 C   0  0  0  0  0  0
    1.4965   -2.6417   -0.1519 C   0  0  0  0  0  0
    1.4015   -3.8091   -0.9099 C   0  0  0  0  0  0
    0.8736   -3.7612   -2.1991 C   0  0  0  0  0  0
    0.4484   -2.5445   -2.7374 C   0  0  0  0  0  0
    0.5402   -1.3693   -1.9853 C   0  0  0  0  0  0
   -3.9518    0.5228   -0.0202 Cl  0  0  0  0  0  0
    0.0528    0.1060   -2.7437 Cl  0  0  0  0  0  0
    4.9658    3.0206    1.4510 C   0  0  0  0  0  0
    5.2935    2.1817    2.2876 O   0  0  0  0  0  0
    5.8230    4.0067    1.0601 N   0  0  0  0  0  0
    1.4510    4.5474   -1.6867 C   0  0  0  0  0  0
    2.3312    5.5547   -2.3263 N   0  0  0  0  0  0
    3.4416    4.9151   -3.0457 C   0  0  0  0  0  0
    1.5407    6.3555   -3.2716 C   0  0  0  0  0  0
    3.2261    0.8631    2.4514 H   0  0  0  0  0  0
    1.5089    1.1597    2.4615 H   0  0  0  0  0  0
   -0.7286    4.1143   -0.0683 H   0  0  0  0  0  0
   -2.9852    3.2042   -0.1677 H   0  0  0  0  0  0
   -1.4565   -0.7870    0.2135 H   0  0  0  0  0  0
    1.9083   -2.6880    0.8546 H   0  0  0  0  0  0
    1.7397   -4.7570   -0.4944 H   0  0  0  0  0  0
    0.8005   -4.6721   -2.7912 H   0  0  0  0  0  0
    0.0532   -2.5222   -3.7512 H   0  0  0  0  0  0
    6.7551    4.0777    1.4450 H   0  0  0  0  0  0
    5.5308    4.6907    0.3702 H   0  0  0  0  0  0
    0.5278    5.0210   -1.3314 H   0  0  0  0  0  0
    1.1299    3.8008   -2.4265 H   0  0  0  0  0  0
    4.0539    5.6714   -3.5502 H   0  0  0  0  0  0
    3.0914    4.2005   -3.7994 H   0  0  0  0  0  0
    4.1142    4.3959   -2.3558 H   0  0  0  0  0  0
    2.1645    7.1277   -3.7356 H   0  0  0  0  0  0
    0.7336    6.8805   -2.7484 H   0  0  0  0  0  0
    1.0989    5.7426   -4.0658 H   0  0  0  0  0  0
  1  2  2  0  0  0
  1  7  1  0  0  0
  1  8  1  0  0  0
  2  3  1  0  0  0
  2 11  1  0  0  0
  3  4  2  0  0  0
  3 15  1  0  0  0
  4  5  1  0  0  0
  5  6  1  0  0  0
  5 30  1  0  0  0
  5 31  1  0  0  0
  6  7  1  0  0  0
  6 12  2  0  0  0
  7 14  1  0  0  0
  8  9  2  0  0  0
  8 32  1  0  0  0
  9 10  1  0  0  0
  9 33  1  0  0  0
 10 11  2  0  0  0
 10 21  1  0  0  0
 11 34  1  0  0  0
 12 13  1  0  0  0
 12 23  1  0  0  0
 13 14  2  0  0  0
 14 26  1  0  0  0
 15 16  2  0  0  0
 15 20  1  0  0  0
 16 17  1  0  0  0
 16 35  1  0  0  0
 17 18  2  0  0  0
 17 36  1  0  0  0
 18 19  1  0  0  0
 18 37  1  0  0  0
 19 20  2  0  0  0
 19 38  1  0  0  0
 20 22  1  0  0  0
 23 24  2  0  0  0
 23 25  1  0  0  0
 25 39  1  0  0  0
 25 40  1  0  0  0
 26 27  1  0  0  0
 26 41  1  0  0  0
 26 42  1  0  0  0
 27 28  1  0  0  0
 27 29  1  0  0  0
 28 43  1  0  0  0
 28 44  1  0  0  0
 28 45  1  0  0  0
 29 46  1  0  0  0
 29 47  1  0  0  0
 29 48  1  0  0  0
M  END
>  <Name>
Ro21-8482

>  <Family>
A.15

>  <IC50_uM>
0.026000

>  <set>
1

$$$$
Loprazolam
  Cerius2 12180215283D 1   1.00000                          
 Structure written by MMmdl.
 54 58  0  0  0  0  0  0  0  0999 V2000
    0.2257    2.2588   -0.0623 C   0  0  0  0  0  0
    0.0748    0.8641    0.1144 C   0  0  0  0  0  0
    1.2424   -0.0793    0.0692 C   0  0  0  0  0  0
    2.3751    0.0900    0.6700 N   0  0  0  0  0  0
    2.5610    1.2941    1.4763 C   0  0  0  0  0  0
    2.6094    2.4846    0.5573 C   0  0  0  0  0  0
    1.4926    2.8901   -0.1001 N   0  0  0  0  0  0
   -0.9375    3.0396   -0.1961 C   0  0  0  0  0  0
   -2.2144    2.4719   -0.1129 C   0  0  0  0  0  0
   -2.3476    1.1003    0.1041 C   0  0  0  0  0  0
   -1.2104    0.2930    0.2157 C   0  0  0  0  0  0
    3.6807    3.2081    0.3848 N   0  0  0  0  0  0
    3.2649    4.2146   -0.4566 C   0  0  0  0  0  0
    1.8125    4.0394   -0.7806 C   0  0  0  0  0  0
    3.9873    5.2259   -0.9618 C   0  0  0  0  0  0
    5.3241    5.6029   -0.8110 N   0  0  0  0  0  0
    6.3080    4.8558    0.0069 C   0  0  0  0  0  0
    7.3453    5.7973    0.6663 C   0  0  0  0  0  0
    8.0117    6.7721   -0.2292 N   0  0  0  0  0  0
    6.9680    7.4951   -0.9932 C   0  0  0  0  0  0
    5.9321    6.6090   -1.7187 C   0  0  0  0  0  0
    8.9619    6.1053   -1.1239 C   0  0  0  0  0  0
    1.0970   -1.3323   -0.7296 C   0  0  0  0  0  0
    1.1465    4.7590   -1.5078 O   0  0  0  0  0  0
    1.5316   -2.5278   -0.1380 C   0  0  0  0  0  0
    1.4017   -3.7353   -0.8246 C   0  0  0  0  0  0
    0.8479   -3.7533   -2.1037 C   0  0  0  0  0  0
    0.4334   -2.5624   -2.7044 C   0  0  0  0  0  0
    0.5610   -1.3475   -2.0244 C   0  0  0  0  0  0
    0.0838    0.0902   -2.8563 Cl  0  0  0  0  0  0
   -3.6857    0.5014    0.2008 N   0  3  0  0  0  0
   -3.7708   -0.7338    0.3324 O   0  0  0  0  0  0
   -4.6760    1.2546    0.1466 O   0  5  0  0  0  0
    3.5114    1.2170    2.0143 H   0  0  0  0  0  0
    1.7681    1.4101    2.2233 H   0  0  0  0  0  0
   -0.8807    4.1185   -0.3292 H   0  0  0  0  0  0
   -3.0836    3.1193   -0.2095 H   0  0  0  0  0  0
   -1.3209   -0.7775    0.3722 H   0  0  0  0  0  0
    3.4647    5.9111   -1.6328 H   0  0  0  0  0  0
    6.8097    4.1171   -0.6282 H   0  0  0  0  0  0
    5.8183    4.3133    0.8200 H   0  0  0  0  0  0
    8.0996    5.1981    1.1909 H   0  0  0  0  0  0
    6.8330    6.3727    1.4492 H   0  0  0  0  0  0
    7.4381    8.1749   -1.7146 H   0  0  0  0  0  0
    6.4314    8.1418   -0.2863 H   0  0  0  0  0  0
    5.1587    7.2644   -2.1377 H   0  0  0  0  0  0
    6.3994    6.0852   -2.5609 H   0  0  0  0  0  0
    9.4645    6.8427   -1.7592 H   0  0  0  0  0  0
    8.4978    5.3560   -1.7726 H   0  0  0  0  0  0
    9.7462    5.6109   -0.5402 H   0  0  0  0  0  0
    1.9633   -2.5230    0.8614 H   0  0  0  0  0  0
    1.7330   -4.6635   -0.3616 H   0  0  0  0  0  0
    0.7458   -4.6955   -2.6396 H   0  0  0  0  0  0
    0.0179   -2.5920   -3.7096 H   0  0  0  0  0  0
  1  2  2  0  0  0
  1  7  1  0  0  0
  1  8  1  0  0  0
  2  3  1  0  0  0
  2 11  1  0  0  0
  3  4  2  0  0  0
  3 23  1  0  0  0
  4  5  1  0  0  0
  5  6  1  0  0  0
  5 34  1  0  0  0
  5 35  1  0  0  0
  6  7  1  0  0  0
  6 12  2  0  0  0
  7 14  1  0  0  0
  8  9  2  0  0  0
  8 36  1  0  0  0
  9 10  1  0  0  0
  9 37  1  0  0  0
 10 11  2  0  0  0
 10 31  1  0  0  0
 11 38  1  0  0  0
 12 13  1  0  0  0
 13 14  1  0  0  0
 13 15  2  0  0  0
 14 24  2  0  0  0
 15 16  1  0  0  0
 15 39  1  0  0  0
 16 17  1  0  0  0
 16 21  1  0  0  0
 17 18  1  0  0  0
 17 40  1  0  0  0
 17 41  1  0  0  0
 18 19  1  0  0  0
 18 42  1  0  0  0
 18 43  1  0  0  0
 19 20  1  0  0  0
 19 22  1  0  0  0
 20 21  1  0  0  0
 20 44  1  0  0  0
 20 45  1  0  0  0
 21 46  1  0  0  0
 21 47  1  0  0  0
 22 48  1  0  0  0
 22 49  1  0  0  0
 22 50  1  0  0  0
 23 25  2  0  0  0
 23 29  1  0  0  0
 25 26  1  0  0  0
 25 51  1  0  0  0
 26 27  2  0  0  0
 26 52  1  0  0  0
 27 28  1  0  0  0
 27 53  1  0  0  0
 28 29  2  0  0  0
 28 54  1  0  0  0
 29 30  1  0  0  0
 31 32  2  0  0  0
 31 33  1  0  0  0
M  CHG  2  31   1  33  -1
M  END
>  <Name>
Loprazolam

>  <Family>
A.16

>  <IC50_uM>
0.006300

>  <set>
2

$$$$
Ro14-1359
  Cerius2 12180215283D 1   1.00000                          
 Structure written by MMmdl.
 31 33  0  0  0  0  0  0  0  0999 V2000
    0.2643    2.1610    0.1823 C   0  0  0  0  0  0
    0.0469    0.7643    0.1969 C   0  0  0  0  0  0
    1.1259   -0.2684    0.1605 C   0  0  0  0  0  0
    2.2660   -0.1063    0.8573 C   0  0  0  0  0  0
    2.5591    1.0626    1.7326 C   0  0  0  0  0  0
    2.6582    2.3240    0.9004 C   0  0  0  0  0  0
    1.5182    2.7925    0.3050 N   0  0  0  0  0  0
   -0.8241    3.0321    0.0000 C   0  0  0  0  0  0
   -2.1279    2.5466   -0.0966 C   0  0  0  0  0  0
   -2.3528    1.1797   -0.0284 C   0  0  0  0  0  0
   -1.2821    0.2968    0.1086 C   0  0  0  0  0  0
    3.7117    2.9660    0.8202 O   0  0  0  0  0  0
    1.0506   -1.5036   -0.6631 C   0  0  0  0  0  0
   -3.9582    0.5691   -0.1392 Cl  0  0  0  0  0  0
    1.5328   -2.7125   -0.1408 C   0  0  0  0  0  0
    1.4834   -3.8829   -0.9038 C   0  0  0  0  0  0
    0.9557   -3.8574   -2.1951 C   0  0  0  0  0  0
    0.4778   -2.6611   -2.7271 C   0  0  0  0  0  0
    0.5286   -1.4970   -1.9637 C   0  0  0  0  0  0
    0.0757   -0.3559   -2.5065 F   0  0  0  0  0  0
    3.0555   -0.8557    0.8093 H   0  0  0  0  0  0
    3.5183    0.9079    2.2399 H   0  0  0  0  0  0
    1.8017    1.1848    2.5147 H   0  0  0  0  0  0
    1.5910    3.7482   -0.0336 H   0  0  0  0  0  0
   -0.6696    4.1098   -0.0398 H   0  0  0  0  0  0
   -2.9543    3.2427   -0.2178 H   0  0  0  0  0  0
   -1.4903   -0.7715    0.1302 H   0  0  0  0  0  0
    1.9477   -2.7527    0.8653 H   0  0  0  0  0  0
    1.8585   -4.8171   -0.4884 H   0  0  0  0  0  0
    0.9193   -4.7703   -2.7870 H   0  0  0  0  0  0
    0.0689   -2.6298   -3.7332 H   0  0  0  0  0  0
  1  2  2  0  0  0
  1  7  1  0  0  0
  1  8  1  0  0  0
  2  3  1  0  0  0
  2 11  1  0  0  0
  3  4  2  0  0  0
  3 13  1  0  0  0
  4  5  1  0  0  0
  4 21  1  0  0  0
  5  6  1  0  0  0
  5 22  1  0  0  0
  5 23  1  0  0  0
  6  7  1  0  0  0
  6 12  2  0  0  0
  7 24  1  0  0  0
  8  9  2  0  0  0
  8 25  1  0  0  0
  9 10  1  0  0  0
  9 26  1  0  0  0
 10 11  2  0  0  0
 10 14  1  0  0  0
 11 27  1  0  0  0
 13 15  2  0  0  0
 13 19  1  0  0  0
 15 16  1  0  0  0
 15 28  1  0  0  0
 16 17  2  0  0  0
 16 29  1  0  0  0
 17 18  1  0  0  0
 17 30  1  0  0  0
 18 19  2  0  0  0
 18 31  1  0  0  0
 19 20  1  0  0  0
M  END
>  <Name>
Ro14-1359

>  <Family>
A.17

>  <IC50_uM>
0.070000

>  <set>
2

$$$$
Ro15-8867
  Cerius2 12180215283D 1   1.00000                          
 Structure written by MMmdl.
 33 35  0  0  0  0  0  0  0  0999 V2000
    0.2671    2.1602    0.1605 C   0  0  0  0  0  0
    0.0384    0.7642    0.1837 C   0  0  0  0  0  0
    1.1136   -0.2734    0.1785 C   0  0  0  0  0  0
    2.2479   -0.1101    0.8843 C   0  0  0  0  0  0
    2.5351    1.0624    1.7555 C   0  0  0  0  0  0
    2.6518    2.3162    0.9152 C   0  0  0  0  0  0
    1.5233    2.7847    0.2990 N   0  0  0  0  0  0
   -0.8095    3.0408   -0.0506 C   0  0  0  0  0  0
   -2.1180    2.5710   -0.1709 C   0  0  0  0  0  0
   -2.3578    1.2000   -0.0974 C   0  0  0  0  0  0
   -1.2924    0.3038    0.0690 C   0  0  0  0  0  0
    3.7091    2.9535    0.8461 O   0  0  0  0  0  0
    1.0510   -1.5207   -0.6322 C   0  0  0  0  0  0
    1.5396   -2.7029   -0.0503 C   0  0  0  0  0  0
    1.5111   -3.9089   -0.7539 C   0  0  0  0  0  0
    0.9959   -3.9500   -2.0473 C   0  0  0  0  0  0
    0.5102   -2.7846   -2.6410 C   0  0  0  0  0  0
    0.5367   -1.5740   -1.9408 C   0  0  0  0  0  0
   -0.0567   -0.1645   -2.7521 Cl  0  0  0  0  0  0
   -3.7305    0.6915   -0.2161 N   0  3  0  0  0  0
   -3.9221   -0.5314   -0.0783 O   0  0  0  0  0  0
   -4.6445    1.5054   -0.4482 O   0  5  0  0  0  0
    3.0322   -0.8656    0.8520 H   0  0  0  0  0  0
    3.4863    0.9062    2.2771 H   0  0  0  0  0  0
    1.7674    1.1945    2.5257 H   0  0  0  0  0  0
    1.6073    3.7368   -0.0468 H   0  0  0  0  0  0
   -0.6420    4.1167   -0.0954 H   0  0  0  0  0  0
   -2.9254    3.2855   -0.3130 H   0  0  0  0  0  0
   -1.4970   -0.7649    0.0943 H   0  0  0  0  0  0
    1.9444   -2.6917    0.9612 H   0  0  0  0  0  0
    1.8916   -4.8175   -0.2900 H   0  0  0  0  0  0
    0.9741   -4.8901   -2.5957 H   0  0  0  0  0  0
    0.1151   -2.8282   -3.6538 H   0  0  0  0  0  0
  1  2  2  0  0  0
  1  7  1  0  0  0
  1  8  1  0  0  0
  2  3  1  0  0  0
  2 11  1  0  0  0
  3  4  2  0  0  0
  3 13  1  0  0  0
  4  5  1  0  0  0
  4 23  1  0  0  0
  5  6  1  0  0  0
  5 24  1  0  0  0
  5 25  1  0  0  0
  6  7  1  0  0  0
  6 12  2  0  0  0
  7 26  1  0  0  0
  8  9  2  0  0  0
  8 27  1  0  0  0
  9 10  1  0  0  0
  9 28  1  0  0  0
 10 11  2  0  0  0
 10 20  1  0  0  0
 11 29  1  0  0  0
 13 14  2  0  0  0
 13 18  1  0  0  0
 14 15  1  0  0  0
 14 30  1  0  0  0
 15 16  2  0  0  0
 15 31  1  0  0  0
 16 17  1  0  0  0
 16 32  1  0  0  0
 17 18  2  0  0  0
 17 33  1  0  0  0
 18 19  1  0  0  0
 20 21  2  0  0  0
 20 22  1  0  0  0
M  CHG  2  20   1  22  -1
M  END
>  <Name>
Ro15-8867

>  <Family>
A.17

>  <IC50_uM>
0.025000

>  <set>
2

$$$$
Ro14-7187
  Cerius2 12180215283D 1   1.00000                          
 Structure written by MMmdl.
 36 39  0  0  0  0  0  0  0  0999 V2000
    0.2463    2.2061    0.0868 C   0  0  0  0  0  0
    0.0498    0.8040    0.1250 C   0  0  0  0  0  0
    1.1189   -0.2450    0.1429 C   0  0  0  0  0  0
    2.2121   -0.1156    0.9209 C   0  0  0  0  0  0
    2.5195    1.0785    1.7659 C   0  0  0  0  0  0
    2.5870    2.3331    0.9767 C   0  0  0  0  0  0
    1.5375    2.7963    0.2033 N   0  0  0  0  0  0
   -0.8662    3.0652   -0.0154 C   0  0  0  0  0  0
   -2.1631    2.5576   -0.0862 C   0  0  0  0  0  0
   -2.3698    1.1876   -0.0481 C   0  0  0  0  0  0
   -1.2777    0.3253    0.0573 C   0  0  0  0  0  0
    3.5952    3.1816    0.9346 N   0  0  0  0  0  0
    3.2466    4.2048    0.1039 N   0  0  0  0  0  0
    2.0312    3.9697   -0.3579 C   0  0  0  0  0  0
    1.0592   -1.4879   -0.6744 C   0  0  0  0  0  0
    0.5443   -1.4368   -1.9774 C   0  0  0  0  0  0
    0.4677   -2.5950   -2.7546 C   0  0  0  0  0  0
    0.9011   -3.8141   -2.2360 C   0  0  0  0  0  0
    1.4098   -3.8781   -0.9399 C   0  0  0  0  0  0
    1.4875   -2.7213   -0.1610 C   0  0  0  0  0  0
    1.3652    4.7832   -1.4068 C   0  0  0  0  0  0
    2.9785   -0.8900    0.9311 H   0  0  0  0  0  0
    3.4895    0.9176    2.2527 H   0  0  0  0  0  0
    1.7877    1.1697    2.5775 H   0  0  0  0  0  0
   -0.7608    4.1469    0.0147 H   0  0  0  0  0  0
   -3.0114    3.2365   -0.1540 H   0  0  0  0  0  0
   -3.3795    0.7843   -0.0973 H   0  0  0  0  0  0
   -1.4816   -0.7456    0.0844 H   0  0  0  0  0  0
    0.2013   -0.4930   -2.3988 H   0  0  0  0  0  0
    0.0686   -2.5447   -3.7661 H   0  0  0  0  0  0
    0.8403   -4.7163   -2.8423 H   0  0  0  0  0  0
    1.7448   -4.8305   -0.5328 H   0  0  0  0  0  0
    1.8789   -2.7911    0.8529 H   0  0  0  0  0  0
    2.1193    5.2999   -2.0101 H   0  0  0  0  0  0
    0.7259    5.5480   -0.9571 H   0  0  0  0  0  0
    0.7735    4.1669   -2.0897 H   0  0  0  0  0  0
  1  2  2  0  0  0
  1  7  1  0  0  0
  1  8  1  0  0  0
  2  3  1  0  0  0
  2 11  1  0  0  0
  3  4  2  0  0  0
  3 15  1  0  0  0
  4  5  1  0  0  0
  4 22  1  0  0  0
  5  6  1  0  0  0
  5 23  1  0  0  0
  5 24  1  0  0  0
  6  7  1  0  0  0
  6 12  2  0  0  0
  7 14  1  0  0  0
  8  9  2  0  0  0
  8 25  1  0  0  0
  9 10  1  0  0  0
  9 26  1  0  0  0
 10 11  2  0  0  0
 10 27  1  0  0  0
 11 28  1  0  0  0
 12 13  1  0  0  0
 13 14  2  0  0  0
 14 21  1  0  0  0
 15 16  2  0  0  0
 15 20  1  0  0  0
 16 17  1  0  0  0
 16 29  1  0  0  0
 17 18  2  0  0  0
 17 30  1  0  0  0
 18 19  1  0  0  0
 18 31  1  0  0  0
 19 20  2  0  0  0
 19 32  1  0  0  0
 20 33  1  0  0  0
 21 34  1  0  0  0
 21 35  1  0  0  0
 21 36  1  0  0  0
M  END
>  <Name>
Ro14-7187

>  <Family>
A.18

>  <IC50_uM>
0.410000

>  <set>
2

$$$$
Ro13-9868
  Cerius2 12180215283D 1   1.00000                          
 Structure written by MMmdl.
 36 39  0  0  0  0  0  0  0  0999 V2000
    0.2443    2.2057    0.0939 C   0  0  0  0  0  0
    0.0531    0.8023    0.1375 C   0  0  0  0  0  0
    1.1274   -0.2415    0.1425 C   0  0  0  0  0  0
    2.2294   -0.1069    0.9067 C   0  0  0  0  0  0
    2.5427    1.0889    1.7469 C   0  0  0  0  0  0
    2.5954    2.3430    0.9557 C   0  0  0  0  0  0
    1.5351    2.8012    0.1941 N   0  0  0  0  0  0
   -0.8726    3.0601    0.0027 C   0  0  0  0  0  0
   -2.1688    2.5463   -0.0522 C   0  0  0  0  0  0
   -2.3642    1.1749   -0.0077 C   0  0  0  0  0  0
   -1.2723    0.3140    0.0877 C   0  0  0  0  0  0
    3.5995    3.1956    0.9008 N   0  0  0  0  0  0
    3.2370    4.2164    0.0731 N   0  0  0  0  0  0
    2.0173    3.9757   -0.3743 C   0  0  0  0  0  0
    1.0617   -1.4849   -0.6736 C   0  0  0  0  0  0
    0.5425   -1.4332   -1.9748 C   0  0  0  0  0  0
    0.4571   -2.5923   -2.7496 C   0  0  0  0  0  0
    0.8857   -3.8129   -2.2303 C   0  0  0  0  0  0
    1.3984   -3.8773   -0.9358 C   0  0  0  0  0  0
    1.4850   -2.7195   -0.1592 C   0  0  0  0  0  0
    1.3360    4.7850   -1.4166 C   0  0  0  0  0  0
   -3.9604    0.5339   -0.0662 Cl  0  0  0  0  0  0
    2.9993   -0.8780    0.9074 H   0  0  0  0  0  0
    3.5193    0.9324    2.2218 H   0  0  0  0  0  0
    1.8206    1.1781    2.5673 H   0  0  0  0  0  0
   -0.7717    4.1423    0.0289 H   0  0  0  0  0  0
   -3.0150    3.2270   -0.1122 H   0  0  0  0  0  0
   -1.4619   -0.7581    0.1211 H   0  0  0  0  0  0
    0.2034   -0.4884   -2.3972 H   0  0  0  0  0  0
    0.0548   -2.5418   -3.7598 H   0  0  0  0  0  0
    0.8179   -4.7158   -2.8348 H   0  0  0  0  0  0
    1.7295   -4.8308   -0.5282 H   0  0  0  0  0  0
    1.8790   -2.7900    0.8537 H   0  0  0  0  0  0
    2.0811    5.3040   -2.0294 H   0  0  0  0  0  0
    0.6987    5.5477   -0.9608 H   0  0  0  0  0  0
    0.7393    4.1651   -2.0919 H   0  0  0  0  0  0
  1  2  2  0  0  0
  1  7  1  0  0  0
  1  8  1  0  0  0
  2  3  1  0  0  0
  2 11  1  0  0  0
  3  4  2  0  0  0
  3 15  1  0  0  0
  4  5  1  0  0  0
  4 23  1  0  0  0
  5  6  1  0  0  0
  5 24  1  0  0  0
  5 25  1  0  0  0
  6  7  1  0  0  0
  6 12  2  0  0  0
  7 14  1  0  0  0
  8  9  2  0  0  0
  8 26  1  0  0  0
  9 10  1  0  0  0
  9 27  1  0  0  0
 10 11  2  0  0  0
 10 22  1  0  0  0
 11 28  1  0  0  0
 12 13  1  0  0  0
 13 14  2  0  0  0
 14 21  1  0  0  0
 15 16  2  0  0  0
 15 20  1  0  0  0
 16 17  1  0  0  0
 16 29  1  0  0  0
 17 18  2  0  0  0
 17 30  1  0  0  0
 18 19  1  0  0  0
 18 31  1  0  0  0
 19 20  2  0  0  0
 19 32  1  0  0  0
 20 33  1  0  0  0
 21 34  1  0  0  0
 21 35  1  0  0  0
 21 36  1  0  0  0
M  END
>  <Name>
Ro13-9868

>  <Family>
A.18

>  <IC50_uM>
0.042000

>  <set>
2

$$$$
Ro14-5921
  Cerius2 12180215283D 1   1.00000                          
 Structure written by MMmdl.
 33 36  0  0  0  0  0  0  0  0999 V2000
    0.2335    2.2096    0.1416 C   0  0  0  0  0  0
    0.0607    0.8041    0.1694 C   0  0  0  0  0  0
    1.1437   -0.2316    0.1468 C   0  0  0  0  0  0
    2.2853   -0.0979    0.8493 C   0  0  0  0  0  0
    2.6498    1.0821    1.6860 C   0  0  0  0  0  0
    2.6234    2.3634    0.9421 C   0  0  0  0  0  0
    1.5039    2.8328    0.2850 N   0  0  0  0  0  0
   -0.8883    3.0525   -0.0150 C   0  0  0  0  0  0
   -2.1770    2.5254   -0.1006 C   0  0  0  0  0  0
   -2.3593    1.1536   -0.0348 C   0  0  0  0  0  0
   -1.2605    0.3050    0.0946 C   0  0  0  0  0  0
    3.5993    3.2509    0.8670 N   0  0  0  0  0  0
    3.1293    4.3369    0.1828 N   0  0  0  0  0  0
    1.8798    4.0857   -0.1430 C   0  0  0  0  0  0
    1.0574   -1.4778   -0.6636 C   0  0  0  0  0  0
    1.5126   -2.6870   -0.1183 C   0  0  0  0  0  0
    1.4520   -3.8670   -0.8657 C   0  0  0  0  0  0
    0.9402   -3.8508   -2.1636 C   0  0  0  0  0  0
    0.4892   -2.6542   -2.7182 C   0  0  0  0  0  0
    0.5509   -1.4806   -1.9706 C   0  0  0  0  0  0
   -3.9466    0.4942   -0.1273 Cl  0  0  0  0  0  0
    0.1241   -0.3394   -2.5341 F   0  0  0  0  0  0
    3.0489   -0.8749    0.8116 H   0  0  0  0  0  0
    3.6636    0.9278    2.0766 H   0  0  0  0  0  0
    1.9962    1.1356    2.5651 H   0  0  0  0  0  0
   -0.7965    4.1372   -0.0307 H   0  0  0  0  0  0
   -3.0270    3.1958   -0.2046 H   0  0  0  0  0  0
   -1.4446   -0.7679    0.1269 H   0  0  0  0  0  0
    1.2325    4.7471   -0.7018 H   0  0  0  0  0  0
    1.9151   -2.7200    0.8930 H   0  0  0  0  0  0
    1.8059   -4.8015   -0.4328 H   0  0  0  0  0  0
    0.8950   -4.7712   -2.7430 H   0  0  0  0  0  0
    0.0931   -2.6303   -3.7295 H   0  0  0  0  0  0
  1  2  2  0  0  0
  1  7  1  0  0  0
  1  8  1  0  0  0
  2  3  1  0  0  0
  2 11  1  0  0  0
  3  4  2  0  0  0
  3 15  1  0  0  0
  4  5  1  0  0  0
  4 23  1  0  0  0
  5  6  1  0  0  0
  5 24  1  0  0  0
  5 25  1  0  0  0
  6  7  1  0  0  0
  6 12  2  0  0  0
  7 14  1  0  0  0
  8  9  2  0  0  0
  8 26  1  0  0  0
  9 10  1  0  0  0
  9 27  1  0  0  0
 10 11  2  0  0  0
 10 21  1  0  0  0
 11 28  1  0  0  0
 12 13  1  0  0  0
 13 14  2  0  0  0
 14 29  1  0  0  0
 15 16  2  0  0  0
 15 20  1  0  0  0
 16 17  1  0  0  0
 16 30  1  0  0  0
 17 18  2  0  0  0
 17 31  1  0  0  0
 18 19  1  0  0  0
 18 32  1  0  0  0
 19 20  2  0  0  0
 19 33  1  0  0  0
 20 22  1  0  0  0
M  END
>  <Name>
Ro14-5921

>  <Family>
A.18

>  <IC50_uM>
0.019000

>  <set>
2

$$$$
Ro14-0304
  Cerius2 12180215283D 1   1.00000                          
 Structure written by MMmdl.
 36 39  0  0  0  0  0  0  0  0999 V2000
    0.2442    2.2040    0.0922 C   0  0  0  0  0  0
    0.0520    0.8007    0.1409 C   0  0  0  0  0  0
    1.1259   -0.2425    0.1497 C   0  0  0  0  0  0
    2.2302   -0.1064    0.9102 C   0  0  0  0  0  0
    2.5447    1.0916    1.7470 C   0  0  0  0  0  0
    2.5964    2.3434    0.9522 C   0  0  0  0  0  0
    1.5354    2.7995    0.1902 N   0  0  0  0  0  0
   -0.8720    3.0587   -0.0027 C   0  0  0  0  0  0
   -2.1686    2.5457   -0.0570 C   0  0  0  0  0  0
   -2.3648    1.1747   -0.0079 C   0  0  0  0  0  0
   -1.2736    0.3131    0.0912 C   0  0  0  0  0  0
    3.6007    3.1953    0.8936 N   0  0  0  0  0  0
    3.2380    4.2133    0.0626 N   0  0  0  0  0  0
    2.0179    3.9717   -0.3831 C   0  0  0  0  0  0
    1.0612   -1.4853   -0.6649 C   0  0  0  0  0  0
    1.4770   -2.6998   -0.1002 C   0  0  0  0  0  0
    1.4387   -3.8789   -0.8504 C   0  0  0  0  0  0
    0.9890   -3.8569   -2.1709 C   0  0  0  0  0  0
    0.5783   -2.6551   -2.7451 C   0  0  0  0  0  0
    0.6176   -1.4824   -1.9944 C   0  0  0  0  0  0
   -3.9614    0.5345   -0.0651 Cl  0  0  0  0  0  0
    0.2318   -0.3366   -2.5778 F   0  0  0  0  0  0
    1.3366    4.7773   -1.4281 C   0  0  0  0  0  0
    2.9983   -0.8793    0.9139 H   0  0  0  0  0  0
    3.5220    0.9361    2.2210 H   0  0  0  0  0  0
    1.8237    1.1830    2.5682 H   0  0  0  0  0  0
   -0.7706    4.1410    0.0200 H   0  0  0  0  0  0
   -3.0143    3.2267   -0.1198 H   0  0  0  0  0  0
   -1.4660   -0.7581    0.1295 H   0  0  0  0  0  0
    1.8309   -2.7383    0.9289 H   0  0  0  0  0  0
    1.7617   -4.8173   -0.4020 H   0  0  0  0  0  0
    0.9613   -4.7767   -2.7526 H   0  0  0  0  0  0
    0.2311   -2.6265   -3.7742 H   0  0  0  0  0  0
    2.0816    5.2945   -2.0425 H   0  0  0  0  0  0
    0.6991    5.5415   -0.9748 H   0  0  0  0  0  0
    0.7401    4.1553   -2.1014 H   0  0  0  0  0  0
  1  2  2  0  0  0
  1  7  1  0  0  0
  1  8  1  0  0  0
  2  3  1  0  0  0
  2 11  1  0  0  0
  3  4  2  0  0  0
  3 15  1  0  0  0
  4  5  1  0  0  0
  4 24  1  0  0  0
  5  6  1  0  0  0
  5 25  1  0  0  0
  5 26  1  0  0  0
  6  7  1  0  0  0
  6 12  2  0  0  0
  7 14  1  0  0  0
  8  9  2  0  0  0
  8 27  1  0  0  0
  9 10  1  0  0  0
  9 28  1  0  0  0
 10 11  2  0  0  0
 10 21  1  0  0  0
 11 29  1  0  0  0
 12 13  1  0  0  0
 13 14  2  0  0  0
 14 23  1  0  0  0
 15 16  2  0  0  0
 15 20  1  0  0  0
 16 17  1  0  0  0
 16 30  1  0  0  0
 17 18  2  0  0  0
 17 31  1  0  0  0
 18 19  1  0  0  0
 18 32  1  0  0  0
 19 20  2  0  0  0
 19 33  1  0  0  0
 20 22  1  0  0  0
 23 34  1  0  0  0
 23 35  1  0  0  0
 23 36  1  0  0  0
M  END
>  <Name>
Ro14-0304

>  <Family>
A.18

>  <IC50_uM>
0.006500

>  <set>
1

$$$$
Ro14-2652
  Cerius2 12180215283D 1   1.00000                          
 Structure written by MMmdl.
 38 41  0  0  0  0  0  0  0  0999 V2000
    0.2454    2.2020    0.0851 C   0  0  0  0  0  0
    0.0500    0.7994    0.1365 C   0  0  0  0  0  0
    1.1230   -0.2442    0.1494 C   0  0  0  0  0  0
    2.2226   -0.1069    0.9165 C   0  0  0  0  0  0
    2.5311    1.0930    1.7539 C   0  0  0  0  0  0
    2.5904    2.3429    0.9558 C   0  0  0  0  0  0
    1.5394    2.7932    0.1767 N   0  0  0  0  0  0
   -0.8688    3.0601   -0.0006 C   0  0  0  0  0  0
   -2.1667    2.5498   -0.0501 C   0  0  0  0  0  0
   -2.3658    1.1787   -0.0037 C   0  0  0  0  0  0
   -1.2763    0.3144    0.0905 C   0  0  0  0  0  0
    3.5920    3.1977    0.9093 N   0  0  0  0  0  0
    3.2415    4.2055    0.0595 N   0  0  0  0  0  0
    2.0318    3.9528   -0.4178 C   0  0  0  0  0  0
    1.0614   -1.4868   -0.6654 C   0  0  0  0  0  0
    1.4731   -2.7016   -0.0986 C   0  0  0  0  0  0
    1.4373   -3.8809   -0.8486 C   0  0  0  0  0  0
    0.9942   -3.8587   -2.1713 C   0  0  0  0  0  0
    0.5877   -2.6567   -2.7479 C   0  0  0  0  0  0
    0.6246   -1.4838   -1.9973 C   0  0  0  0  0  0
   -3.9641    0.5423   -0.0554 Cl  0  0  0  0  0  0
    0.2432   -0.3378   -2.5830 F   0  0  0  0  0  0
    1.3358    4.7235   -1.4979 C   0  0  0  0  0  0
    2.1547    5.8363   -2.0029 N   0  0  0  0  0  0
    2.9913   -0.8791    0.9254 H   0  0  0  0  0  0
    3.5044    0.9379    2.2362 H   0  0  0  0  0  0
    1.8034    1.1872    2.5688 H   0  0  0  0  0  0
   -0.7654    4.1421    0.0279 H   0  0  0  0  0  0
   -3.0114    3.2325   -0.1064 H   0  0  0  0  0  0
   -1.4706   -0.7564    0.1294 H   0  0  0  0  0  0
    1.8218   -2.7405    0.9323 H   0  0  0  0  0  0
    1.7569   -4.8195   -0.3983 H   0  0  0  0  0  0
    0.9682   -4.7785   -2.7529 H   0  0  0  0  0  0
    0.2457   -2.6278   -3.7787 H   0  0  0  0  0  0
    0.4062    5.1434   -1.1020 H   0  0  0  0  0  0
    1.0937    4.0739   -2.3452 H   0  0  0  0  0  0
    1.6545    6.2460   -2.7989 H   0  0  0  0  0  0
    2.9948    5.4316   -2.4291 H   0  0  0  0  0  0
  1  2  2  0  0  0
  1  7  1  0  0  0
  1  8  1  0  0  0
  2  3  1  0  0  0
  2 11  1  0  0  0
  3  4  2  0  0  0
  3 15  1  0  0  0
  4  5  1  0  0  0
  4 25  1  0  0  0
  5  6  1  0  0  0
  5 26  1  0  0  0
  5 27  1  0  0  0
  6  7  1  0  0  0
  6 12  2  0  0  0
  7 14  1  0  0  0
  8  9  2  0  0  0
  8 28  1  0  0  0
  9 10  1  0  0  0
  9 29  1  0  0  0
 10 11  2  0  0  0
 10 21  1  0  0  0
 11 30  1  0  0  0
 12 13  1  0  0  0
 13 14  2  0  0  0
 14 23  1  0  0  0
 15 16  2  0  0  0
 15 20  1  0  0  0
 16 17  1  0  0  0
 16 31  1  0  0  0
 17 18  2  0  0  0
 17 32  1  0  0  0
 18 19  1  0  0  0
 18 33  1  0  0  0
 19 20  2  0  0  0
 19 34  1  0  0  0
 20 22  1  0  0  0
 23 24  1  0  0  0
 23 35  1  0  0  0
 23 36  1  0  0  0
 24 37  1  0  0  0
 24 38  1  0  0  0
M  END
>  <Name>
Ro14-2652

>  <Family>
A.18

>  <IC50_uM>
0.005600

>  <set>
1

$$$$
Ro15-9270
  Cerius2 12180215283D 1   1.00000                          
 Structure written by MMmdl.
 38 41  0  0  0  0  0  0  0  0999 V2000
    0.2450    2.1977    0.0773 C   0  0  0  0  0  0
    0.0429    0.7949    0.1384 C   0  0  0  0  0  0
    1.1143   -0.2508    0.1730 C   0  0  0  0  0  0
    2.2171   -0.1091    0.9345 C   0  0  0  0  0  0
    2.5282    1.0938    1.7644 C   0  0  0  0  0  0
    2.5910    2.3373    0.9582 C   0  0  0  0  0  0
    1.5393    2.7874    0.1804 N   0  0  0  0  0  0
   -0.8632    3.0617   -0.0389 C   0  0  0  0  0  0
   -2.1656    2.5629   -0.1064 C   0  0  0  0  0  0
   -2.3740    1.1872   -0.0497 C   0  0  0  0  0  0
   -1.2853    0.3130    0.0722 C   0  0  0  0  0  0
    3.5986    3.1855    0.9005 N   0  0  0  0  0  0
    3.2489    4.1934    0.0520 N   0  0  0  0  0  0
    2.0335    3.9490   -0.4050 C   0  0  0  0  0  0
    1.0619   -1.5049   -0.6296 C   0  0  0  0  0  0
    1.4923   -2.6903   -0.0094 C   0  0  0  0  0  0
    1.4705   -3.9048   -0.6985 C   0  0  0  0  0  0
    1.0210   -3.9515   -2.0159 C   0  0  0  0  0  0
    0.5945   -2.7833   -2.6481 C   0  0  0  0  0  0
    0.6142   -1.5641   -1.9625 C   0  0  0  0  0  0
    0.0980   -0.1528   -2.8223 Cl  0  0  0  0  0  0
    1.3685    4.7402   -1.4715 C   0  0  0  0  0  0
   -3.7403    0.6521   -0.1140 N   0  3  0  0  0  0
   -3.9017   -0.5757    0.0189 O   0  0  0  0  0  0
   -4.6794    1.4494   -0.2988 O   0  5  0  0  0  0
    2.9824   -0.8845    0.9479 H   0  0  0  0  0  0
    3.5003    0.9390    2.2489 H   0  0  0  0  0  0
    1.7996    1.1951    2.5776 H   0  0  0  0  0  0
   -0.7507    4.1432   -0.0237 H   0  0  0  0  0  0
   -2.9952    3.2621   -0.1847 H   0  0  0  0  0  0
   -1.4728   -0.7584    0.1153 H   0  0  0  0  0  0
    1.8450   -2.6760    1.0212 H   0  0  0  0  0  0
    1.8050   -4.8157   -0.2046 H   0  0  0  0  0  0
    1.0045   -4.8982   -2.5530 H   0  0  0  0  0  0
    0.2508   -2.8314   -3.6793 H   0  0  0  0  0  0
    2.1235    5.2402   -2.0878 H   0  0  0  0  0  0
    0.7325    5.5174   -1.0387 H   0  0  0  0  0  0
    0.7739    4.1103   -2.1392 H   0  0  0  0  0  0
  1  2  2  0  0  0
  1  7  1  0  0  0
  1  8  1  0  0  0
  2  3  1  0  0  0
  2 11  1  0  0  0
  3  4  2  0  0  0
  3 15  1  0  0  0
  4  5  1  0  0  0
  4 26  1  0  0  0
  5  6  1  0  0  0
  5 27  1  0  0  0
  5 28  1  0  0  0
  6  7  1  0  0  0
  6 12  2  0  0  0
  7 14  1  0  0  0
  8  9  2  0  0  0
  8 29  1  0  0  0
  9 10  1  0  0  0
  9 30  1  0  0  0
 10 11  2  0  0  0
 10 23  1  0  0  0
 11 31  1  0  0  0
 12 13  1  0  0  0
 13 14  2  0  0  0
 14 22  1  0  0  0
 15 16  2  0  0  0
 15 20  1  0  0  0
 16 17  1  0  0  0
 16 32  1  0  0  0
 17 18  2  0  0  0
 17 33  1  0  0  0
 18 19  1  0  0  0
 18 34  1  0  0  0
 19 20  2  0  0  0
 19 35  1  0  0  0
 20 21  1  0  0  0
 22 36  1  0  0  0
 22 37  1  0  0  0
 22 38  1  0  0  0
 23 24  2  0  0  0
 23 25  1  0  0  0
M  CHG  2  23   1  25  -1
M  END
>  <Name>
Ro15-9270

>  <Family>
A.18

>  <IC50_uM>
0.005000

>  <set>
2

$$$$
Ro14-0609
  Cerius2 12180215283D 1   1.00000                          
 Structure written by MMmdl.
 38 41  0  0  0  0  0  0  0  0999 V2000
    0.2615    2.0518   -0.0160 C   0  0  0  0  0  0
   -0.0145    0.7056    0.3151 C   0  0  0  0  0  0
    0.9793   -0.4247    0.6167 C   0  0  0  0  0  0
    2.4386   -0.1152    0.9861 C   0  0  0  0  0  0
    2.5795    1.1523    1.8053 C   0  0  0  0  0  0
    2.5991    2.3047    0.8773 C   0  0  0  0  0  0
    1.5673    2.6228    0.0140 N   0  0  0  0  0  0
   -0.8103    2.9214   -0.3207 C   0  0  0  0  0  0
   -2.1360    2.4840   -0.3184 C   0  0  0  0  0  0
   -2.4173    1.1698    0.0052 C   0  0  0  0  0  0
   -1.3786    0.2983    0.3221 C   0  0  0  0  0  0
    3.5949    3.1561    0.7335 N   0  0  0  0  0  0
    3.2761    4.0076   -0.2797 N   0  0  0  0  0  0
    2.0906    3.6645   -0.7493 C   0  0  0  0  0  0
    0.9733   -1.4953   -0.4761 C   0  0  0  0  0  0
    1.4502   -2.7881   -0.2050 C   0  0  0  0  0  0
    1.4457   -3.7700   -1.1995 C   0  0  0  0  0  0
    0.9691   -3.4744   -2.4763 C   0  0  0  0  0  0
    0.4978   -2.1947   -2.7613 C   0  0  0  0  0  0
    0.5037   -1.2198   -1.7675 C   0  0  0  0  0  0
    0.0556    0.0071   -2.0725 F   0  0  0  0  0  0
   -4.0449    0.6149    0.0239 Cl  0  0  0  0  0  0
    1.4863    4.2351   -1.9809 C   0  0  0  0  0  0
    0.5716   -0.8869    1.5307 H   0  0  0  0  0  0
    3.0759   -0.0553    0.0928 H   0  0  0  0  0  0
    2.8319   -0.9618    1.5661 H   0  0  0  0  0  0
    3.5318    1.1232    2.3486 H   0  0  0  0  0  0
    1.7890    1.2530    2.5568 H   0  0  0  0  0  0
   -0.6519    3.9808   -0.5094 H   0  0  0  0  0  0
   -2.9348    3.1845   -0.5501 H   0  0  0  0  0  0
   -1.6298   -0.7332    0.5724 H   0  0  0  0  0  0
    1.8282   -3.0426    0.7847 H   0  0  0  0  0  0
    1.8162   -4.7695   -0.9764 H   0  0  0  0  0  0
    0.9672   -4.2412   -3.2489 H   0  0  0  0  0  0
    0.1279   -1.9523   -3.7537 H   0  0  0  0  0  0
    2.2776    4.5803   -2.6551 H   0  0  0  0  0  0
    0.8604    5.0995   -1.7423 H   0  0  0  0  0  0
    0.8966    3.4958   -2.5302 H   0  0  0  0  0  0
  1  2  2  0  0  0
  1  7  1  0  0  0
  1  8  1  0  0  0
  2  3  1  0  0  0
  2 11  1  0  0  0
  3  4  1  0  0  0
  3 15  1  0  0  0
  3 24  1  0  0  0
  4  5  1  0  0  0
  4 25  1  0  0  0
  4 26  1  0  0  0
  5  6  1  0  0  0
  5 27  1  0  0  0
  5 28  1  0  0  0
  6  7  1  0  0  0
  6 12  2  0  0  0
  7 14  1  0  0  0
  8  9  2  0  0  0
  8 29  1  0  0  0
  9 10  1  0  0  0
  9 30  1  0  0  0
 10 11  2  0  0  0
 10 22  1  0  0  0
 11 31  1  0  0  0
 12 13  1  0  0  0
 13 14  2  0  0  0
 14 23  1  0  0  0
 15 16  2  0  0  0
 15 20  1  0  0  0
 16 17  1  0  0  0
 16 32  1  0  0  0
 17 18  2  0  0  0
 17 33  1  0  0  0
 18 19  1  0  0  0
 18 34  1  0  0  0
 19 20  2  0  0  0
 19 35  1  0  0  0
 20 21  1  0  0  0
 23 36  1  0  0  0
 23 37  1  0  0  0
 23 38  1  0  0  0
M  END
>  <Name>
Ro14-0609

>  <Family>
A.19

>  <IC50_uM>
0.024400

>  <set>
2

$$$$
Ro15-2201
  Cerius2 12180215283D 1   1.00000                          
 Structure written by MMmdl.
 40 43  0  0  0  0  0  0  0  0999 V2000
    0.2387    2.2039    0.1199 C   0  0  0  0  0  0
    0.0503    0.8011    0.1502 C   0  0  0  0  0  0
    1.1252   -0.2429    0.1473 C   0  0  0  0  0  0
    2.2415   -0.1072    0.8893 C   0  0  0  0  0  0
    2.5557    1.0751    1.7410 C   0  0  0  0  0  0
    2.6165    2.3365    0.9585 C   0  0  0  0  0  0
    1.5202    2.8131    0.2593 N   0  0  0  0  0  0
   -0.8739    3.0578   -0.0411 C   0  0  0  0  0  0
   -2.1667    2.5438   -0.1323 C   0  0  0  0  0  0
   -2.3689    1.1740   -0.0693 C   0  0  0  0  0  0
   -1.2749    0.3174    0.0657 C   0  0  0  0  0  0
    3.6282    3.2774    0.7970 C   0  0  0  0  0  0
    3.1534    4.3360    0.0427 N   0  0  0  0  0  0
    1.9037    4.0402   -0.2380 C   0  0  0  0  0  0
    1.0578   -1.4843   -0.6719 C   0  0  0  0  0  0
    0.5406   -1.4299   -1.9739 C   0  0  0  0  0  0
    0.4583   -2.5872   -2.7520 C   0  0  0  0  0  0
    0.8888   -3.8082   -2.2354 C   0  0  0  0  0  0
    1.4006   -3.8751   -0.9405 C   0  0  0  0  0  0
    1.4838   -2.7194   -0.1606 C   0  0  0  0  0  0
    5.0093    3.1904    1.3079 C   0  0  0  0  0  0
    5.4116    2.2384    1.9781 O   0  0  0  0  0  0
    5.8984    4.1810    0.9708 O   0  0  0  0  0  0
    5.4405    5.5114    0.6762 C   0  0  0  0  0  0
    3.0134   -0.8762    0.8720 H   0  0  0  0  0  0
    3.5047    0.8888    2.2535 H   0  0  0  0  0  0
    1.8127    1.1648    2.5443 H   0  0  0  0  0  0
   -0.7694    4.1414   -0.0543 H   0  0  0  0  0  0
   -3.0152    3.2173   -0.2399 H   0  0  0  0  0  0
   -3.3756    0.7652   -0.1344 H   0  0  0  0  0  0
   -1.4751   -0.7542    0.0937 H   0  0  0  0  0  0
    1.2426    4.6589   -0.8321 H   0  0  0  0  0  0
    0.2001   -0.4842   -2.3930 H   0  0  0  0  0  0
    0.0571   -2.5346   -3.7626 H   0  0  0  0  0  0
    0.8239   -4.7096   -2.8425 H   0  0  0  0  0  0
    1.7335   -4.8291   -0.5353 H   0  0  0  0  0  0
    1.8780   -2.7907    0.8521 H   0  0  0  0  0  0
    6.2356    6.2033    0.9694 H   0  0  0  0  0  0
    4.5448    5.7710    1.2481 H   0  0  0  0  0  0
    5.2801    5.6163   -0.3998 H   0  0  0  0  0  0
  1  2  2  0  0  0
  1  7  1  0  0  0
  1  8  1  0  0  0
  2  3  1  0  0  0
  2 11  1  0  0  0
  3  4  2  0  0  0
  3 15  1  0  0  0
  4  5  1  0  0  0
  4 25  1  0  0  0
  5  6  1  0  0  0
  5 26  1  0  0  0
  5 27  1  0  0  0
  6  7  1  0  0  0
  6 12  2  0  0  0
  7 14  1  0  0  0
  8  9  2  0  0  0
  8 28  1  0  0  0
  9 10  1  0  0  0
  9 29  1  0  0  0
 10 11  2  0  0  0
 10 30  1  0  0  0
 11 31  1  0  0  0
 12 13  1  0  0  0
 12 21  1  0  0  0
 13 14  2  0  0  0
 14 32  1  0  0  0
 15 16  2  0  0  0
 15 20  1  0  0  0
 16 17  1  0  0  0
 16 33  1  0  0  0
 17 18  2  0  0  0
 17 34  1  0  0  0
 18 19  1  0  0  0
 18 35  1  0  0  0
 19 20  2  0  0  0
 19 36  1  0  0  0
 20 37  1  0  0  0
 21 22  2  0  0  0
 21 23  1  0  0  0
 23 24  1  0  0  0
 24 38  1  0  0  0
 24 39  1  0  0  0
 24 40  1  0  0  0
M  END
>  <Name>
Ro15-2201

>  <Family>
A.20

>  <IC50_uM>
0.001500

>  <set>
2

$$$$
Ro15-0791
  Cerius2 12180215283D 1   1.00000                          
 Structure written by MMmdl.
 43 46  0  0  0  0  0  0  0  0999 V2000
    0.2385    2.2042    0.1199 C   0  0  0  0  0  0
    0.0494    0.8013    0.1501 C   0  0  0  0  0  0
    1.1238   -0.2432    0.1473 C   0  0  0  0  0  0
    2.2400   -0.1080    0.8898 C   0  0  0  0  0  0
    2.5538    1.0748    1.7411 C   0  0  0  0  0  0
    2.6171    2.3347    0.9563 C   0  0  0  0  0  0
    1.5206    2.8124    0.2583 N   0  0  0  0  0  0
   -0.8735    3.0587   -0.0402 C   0  0  0  0  0  0
   -2.1667    2.5454   -0.1308 C   0  0  0  0  0  0
   -2.3696    1.1757   -0.0682 C   0  0  0  0  0  0
   -1.2760    0.3184    0.0658 C   0  0  0  0  0  0
    3.6318    3.2717    0.7897 C   0  0  0  0  0  0
    3.1571    4.3304    0.0362 N   0  0  0  0  0  0
    1.9056    4.0385   -0.2402 C   0  0  0  0  0  0
    1.0569   -1.4849   -0.6717 C   0  0  0  0  0  0
    0.5402   -1.4308   -1.9739 C   0  0  0  0  0  0
    0.4599   -2.5878   -2.7524 C   0  0  0  0  0  0
    0.8914   -3.8085   -2.2358 C   0  0  0  0  0  0
    1.4023   -3.8752   -0.9406 C   0  0  0  0  0  0
    1.4837   -2.7195   -0.1604 C   0  0  0  0  0  0
    5.0145    3.1760    1.2953 C   0  0  0  0  0  0
    5.4098    2.2202    1.9646 O   0  0  0  0  0  0
    5.9111    4.1625    0.9684 O   0  0  0  0  0  0
    5.4764    5.4872    0.6007 C   0  0  0  0  0  0
    6.6058    6.4486    0.9232 C   0  0  0  0  0  0
    3.0117   -0.8772    0.8731 H   0  0  0  0  0  0
    3.5015    0.8882    2.2560 H   0  0  0  0  0  0
    1.8092    1.1663    2.5426 H   0  0  0  0  0  0
   -0.7683    4.1424   -0.0533 H   0  0  0  0  0  0
   -3.0148    3.2195   -0.2377 H   0  0  0  0  0  0
   -3.3764    0.7675   -0.1328 H   0  0  0  0  0  0
   -1.4767   -0.7531    0.0935 H   0  0  0  0  0  0
    1.2444    4.6589   -0.8325 H   0  0  0  0  0  0
    0.1994   -0.4852   -2.3931 H   0  0  0  0  0  0
    0.0596   -2.5355   -3.7634 H   0  0  0  0  0  0
    0.8279   -4.7098   -2.8432 H   0  0  0  0  0  0
    1.7362   -4.8288   -0.5354 H   0  0  0  0  0  0
    1.8777   -2.7906    0.8524 H   0  0  0  0  0  0
    4.5839    5.7758    1.1654 H   0  0  0  0  0  0
    5.2814    5.5119   -0.4755 H   0  0  0  0  0  0
    6.3356    7.4728    0.6518 H   0  0  0  0  0  0
    7.5169    6.1682    0.3844 H   0  0  0  0  0  0
    6.8449    6.4167    1.9913 H   0  0  0  0  0  0
  1  2  2  0  0  0
  1  7  1  0  0  0
  1  8  1  0  0  0
  2  3  1  0  0  0
  2 11  1  0  0  0
  3  4  2  0  0  0
  3 15  1  0  0  0
  4  5  1  0  0  0
  4 26  1  0  0  0
  5  6  1  0  0  0
  5 27  1  0  0  0
  5 28  1  0  0  0
  6  7  1  0  0  0
  6 12  2  0  0  0
  7 14  1  0  0  0
  8  9  2  0  0  0
  8 29  1  0  0  0
  9 10  1  0  0  0
  9 30  1  0  0  0
 10 11  2  0  0  0
 10 31  1  0  0  0
 11 32  1  0  0  0
 12 13  1  0  0  0
 12 21  1  0  0  0
 13 14  2  0  0  0
 14 33  1  0  0  0
 15 16  2  0  0  0
 15 20  1  0  0  0
 16 17  1  0  0  0
 16 34  1  0  0  0
 17 18  2  0  0  0
 17 35  1  0  0  0
 18 19  1  0  0  0
 18 36  1  0  0  0
 19 20  2  0  0  0
 19 37  1  0  0  0
 20 38  1  0  0  0
 21 22  2  0  0  0
 21 23  1  0  0  0
 23 24  1  0  0  0
 24 25  1  0  0  0
 24 39  1  0  0  0
 24 40  1  0  0  0
 25 41  1  0  0  0
 25 42  1  0  0  0
 25 43  1  0  0  0
M  END
>  <Name>
Ro15-0791

>  <Family>
A.20

>  <IC50_uM>
0.002500

>  <set>
1

$$$$
Ro15-2200
  Cerius2 12180215283D 1   1.00000                          
 Structure written by MMmdl.
 43 46  0  0  0  0  0  0  0  0999 V2000
    0.2385    2.2025    0.1188 C   0  0  0  0  0  0
    0.0489    0.7997    0.1539 C   0  0  0  0  0  0
    1.1232   -0.2437    0.1545 C   0  0  0  0  0  0
    2.2421   -0.1070    0.8923 C   0  0  0  0  0  0
    2.5577    1.0775    1.7407 C   0  0  0  0  0  0
    2.6181    2.3362    0.9537 C   0  0  0  0  0  0
    1.5206    2.8115    0.2554 N   0  0  0  0  0  0
   -0.8733    3.0566   -0.0457 C   0  0  0  0  0  0
   -2.1662    2.5432   -0.1368 C   0  0  0  0  0  0
   -2.3694    1.1737   -0.0697 C   0  0  0  0  0  0
   -1.2764    0.3166    0.0693 C   0  0  0  0  0  0
    3.6309    3.2752    0.7866 C   0  0  0  0  0  0
    3.1551    4.3313    0.0303 N   0  0  0  0  0  0
    1.9044    4.0366   -0.2464 C   0  0  0  0  0  0
    1.0563   -1.4847   -0.6630 C   0  0  0  0  0  0
    1.4935   -2.6977   -0.1113 C   0  0  0  0  0  0
    1.4470   -3.8752   -0.8638 C   0  0  0  0  0  0
    0.9675   -3.8527   -2.1738 C   0  0  0  0  0  0
    0.5348   -2.6523   -2.7350 C   0  0  0  0  0  0
    0.5825   -1.4813   -1.9819 C   0  0  0  0  0  0
    5.0132    3.1844    1.2940 C   0  0  0  0  0  0
    5.4102    2.2312    1.9659 O   0  0  0  0  0  0
    5.9071    4.1732    0.9666 O   0  0  0  0  0  0
    5.4683    5.4954    0.5944 C   0  0  0  0  0  0
    6.5939    6.4620    0.9146 C   0  0  0  0  0  0
    0.1726   -0.3372   -2.5521 F   0  0  0  0  0  0
    3.0121   -0.8781    0.8779 H   0  0  0  0  0  0
    3.5072    0.8922    2.2528 H   0  0  0  0  0  0
    1.8158    1.1699    2.5443 H   0  0  0  0  0  0
   -0.7682    4.1400   -0.0624 H   0  0  0  0  0  0
   -3.0142    3.2170   -0.2473 H   0  0  0  0  0  0
   -3.3765    0.7657   -0.1343 H   0  0  0  0  0  0
   -1.4796   -0.7540    0.1018 H   0  0  0  0  0  0
    1.2430    4.6544   -0.8410 H   0  0  0  0  0  0
    1.8704   -2.7353    0.9097 H   0  0  0  0  0  0
    1.7868   -4.8123   -0.4255 H   0  0  0  0  0  0
    0.9331   -4.7710   -2.7574 H   0  0  0  0  0  0
    0.1637   -2.6235   -3.7556 H   0  0  0  0  0  0
    4.5743    5.7825    1.1574 H   0  0  0  0  0  0
    5.2742    5.5162   -0.4820 H   0  0  0  0  0  0
    6.3201    7.4843    0.6394 H   0  0  0  0  0  0
    7.5066    6.1831    0.3774 H   0  0  0  0  0  0
    6.8324    6.4346    1.9830 H   0  0  0  0  0  0
  1  2  2  0  0  0
  1  7  1  0  0  0
  1  8  1  0  0  0
  2  3  1  0  0  0
  2 11  1  0  0  0
  3  4  2  0  0  0
  3 15  1  0  0  0
  4  5  1  0  0  0
  4 27  1  0  0  0
  5  6  1  0  0  0
  5 28  1  0  0  0
  5 29  1  0  0  0
  6  7  1  0  0  0
  6 12  2  0  0  0
  7 14  1  0  0  0
  8  9  2  0  0  0
  8 30  1  0  0  0
  9 10  1  0  0  0
  9 31  1  0  0  0
 10 11  2  0  0  0
 10 32  1  0  0  0
 11 33  1  0  0  0
 12 13  1  0  0  0
 12 21  1  0  0  0
 13 14  2  0  0  0
 14 34  1  0  0  0
 15 16  2  0  0  0
 15 20  1  0  0  0
 16 17  1  0  0  0
 16 35  1  0  0  0
 17 18  2  0  0  0
 17 36  1  0  0  0
 18 19  1  0  0  0
 18 37  1  0  0  0
 19 20  2  0  0  0
 19 38  1  0  0  0
 20 26  1  0  0  0
 21 22  2  0  0  0
 21 23  1  0  0  0
 23 24  1  0  0  0
 24 25  1  0  0  0
 24 39  1  0  0  0
 24 40  1  0  0  0
 25 41  1  0  0  0
 25 42  1  0  0  0
 25 43  1  0  0  0
M  END
>  <Name>
Ro15-2200

>  <Family>
A.20

>  <IC50_uM>
0.004200

>  <set>
0

$$$$
Ro15-3929
  Cerius2 12180215283D 1   1.00000                          
 Structure written by MMmdl.
 43 46  0  0  0  0  0  0  0  0999 V2000
    0.2387    2.2012    0.1237 C   0  0  0  0  0  0
    0.0530    0.7983    0.1694 C   0  0  0  0  0  0
    1.1320   -0.2387    0.1540 C   0  0  0  0  0  0
    2.2610   -0.0959    0.8740 C   0  0  0  0  0  0
    2.5899    1.0885    1.7185 C   0  0  0  0  0  0
    2.6256    2.3523    0.9375 C   0  0  0  0  0  0
    1.5207    2.8149    0.2419 N   0  0  0  0  0  0
   -0.8777    3.0513   -0.0297 C   0  0  0  0  0  0
   -2.1712    2.5329   -0.0982 C   0  0  0  0  0  0
   -2.3637    1.1627   -0.0185 C   0  0  0  0  0  0
   -1.2708    0.3066    0.1094 C   0  0  0  0  0  0
    3.6271    3.3025    0.7634 C   0  0  0  0  0  0
    3.1376    4.3518    0.0062 N   0  0  0  0  0  0
    1.8925    4.0382   -0.2732 C   0  0  0  0  0  0
    1.0572   -1.4803   -0.6620 C   0  0  0  0  0  0
    1.5085   -2.6910   -0.1169 C   0  0  0  0  0  0
    1.4586   -3.8681   -0.8697 C   0  0  0  0  0  0
    0.9615   -3.8474   -2.1731 C   0  0  0  0  0  0
    0.5144   -2.6492   -2.7276 C   0  0  0  0  0  0
    0.5653   -1.4787   -1.9744 C   0  0  0  0  0  0
    4.9851    3.2772    1.3382 C   0  0  0  0  0  0
    5.4038    2.3336    2.0102 O   0  0  0  0  0  0
    5.7978    4.3688    1.1591 O   0  0  0  0  0  0
    5.5972    5.2817    0.0610 C   0  0  0  0  0  0
    6.9337    5.9301   -0.2501 C   0  0  0  0  0  0
    0.1423   -0.3362   -2.5382 F   0  0  0  0  0  0
   -3.9570    0.5154   -0.0902 Cl  0  0  0  0  0  0
    3.0327   -0.8651    0.8470 H   0  0  0  0  0  0
    3.5583    0.8992    2.1918 H   0  0  0  0  0  0
    1.8736    1.1724    2.5456 H   0  0  0  0  0  0
   -0.7766    4.1350   -0.0540 H   0  0  0  0  0  0
   -3.0170    3.2089   -0.1997 H   0  0  0  0  0  0
   -1.4600   -0.7650    0.1535 H   0  0  0  0  0  0
    1.2243    4.6435   -0.8732 H   0  0  0  0  0  0
    1.8993   -2.7274    0.8988 H   0  0  0  0  0  0
    1.8094   -4.8036   -0.4366 H   0  0  0  0  0  0
    0.9248   -4.7654   -2.7569 H   0  0  0  0  0  0
    0.1295   -2.6220   -3.7432 H   0  0  0  0  0  0
    4.8865    6.0551    0.3668 H   0  0  0  0  0  0
    5.2369    4.7522   -0.8270 H   0  0  0  0  0  0
    6.8379    6.6466   -1.0707 H   0  0  0  0  0  0
    7.6740    5.1721   -0.5266 H   0  0  0  0  0  0
    7.3247    6.4506    0.6304 H   0  0  0  0  0  0
  1  2  2  0  0  0
  1  7  1  0  0  0
  1  8  1  0  0  0
  2  3  1  0  0  0
  2 11  1  0  0  0
  3  4  2  0  0  0
  3 15  1  0  0  0
  4  5  1  0  0  0
  4 28  1  0  0  0
  5  6  1  0  0  0
  5 29  1  0  0  0
  5 30  1  0  0  0
  6  7  1  0  0  0
  6 12  2  0  0  0
  7 14  1  0  0  0
  8  9  2  0  0  0
  8 31  1  0  0  0
  9 10  1  0  0  0
  9 32  1  0  0  0
 10 11  2  0  0  0
 10 27  1  0  0  0
 11 33  1  0  0  0
 12 13  1  0  0  0
 12 21  1  0  0  0
 13 14  2  0  0  0
 14 34  1  0  0  0
 15 16  2  0  0  0
 15 20  1  0  0  0
 16 17  1  0  0  0
 16 35  1  0  0  0
 17 18  2  0  0  0
 17 36  1  0  0  0
 18 19  1  0  0  0
 18 37  1  0  0  0
 19 20  2  0  0  0
 19 38  1  0  0  0
 20 26  1  0  0  0
 21 22  2  0  0  0
 21 23  1  0  0  0
 23 24  1  0  0  0
 24 25  1  0  0  0
 24 39  1  0  0  0
 24 40  1  0  0  0
 25 41  1  0  0  0
 25 42  1  0  0  0
 25 43  1  0  0  0
M  END
>  <Name>
Ro15-3929

>  <Family>
A.20

>  <IC50_uM>
0.016000

>  <set>
2

$$$$
Ro14-3930
  Cerius2 12180215283D 1   1.00000                          
 Structure written by MMmdl.
 38 41  0  0  0  0  0  0  0  0999 V2000
    0.2369    2.2085    0.1349 C   0  0  0  0  0  0
    0.0557    0.8025    0.1652 C   0  0  0  0  0  0
    1.1345   -0.2383    0.1533 C   0  0  0  0  0  0
    2.2604   -0.0984    0.8799 C   0  0  0  0  0  0
    2.5771    1.0934    1.7164 C   0  0  0  0  0  0
    2.6381    2.3375    0.9080 C   0  0  0  0  0  0
    1.5195    2.8252    0.2519 N   0  0  0  0  0  0
   -0.8832    3.0556   -0.0076 C   0  0  0  0  0  0
   -2.1748    2.5335   -0.0843 C   0  0  0  0  0  0
   -2.3626    1.1619   -0.0233 C   0  0  0  0  0  0
   -1.2672    0.3080    0.0972 C   0  0  0  0  0  0
    3.6524    3.2620    0.6891 C   0  0  0  0  0  0
    3.1409    4.3603    0.0187 N   0  0  0  0  0  0
    1.8813    4.0694   -0.2206 C   0  0  0  0  0  0
    1.0595   -1.4811   -0.6614 C   0  0  0  0  0  0
    1.5030   -2.6926   -0.1114 C   0  0  0  0  0  0
    1.4551   -3.8706   -0.8628 C   0  0  0  0  0  0
    0.9676   -3.8504   -2.1698 C   0  0  0  0  0  0
    0.5286   -2.6516   -2.7294 C   0  0  0  0  0  0
    0.5778   -1.4800   -1.9776 C   0  0  0  0  0  0
    0.1640   -0.3370   -2.5470 F   0  0  0  0  0  0
   -3.9533    0.5097   -0.1076 Cl  0  0  0  0  0  0
    5.0583    3.2110    1.1092 C   0  0  0  0  0  0
    5.5451    2.2504    1.7067 O   0  0  0  0  0  0
    5.8065    4.3229    0.8541 N   0  0  0  0  0  0
    3.0324   -0.8669    0.8608 H   0  0  0  0  0  0
    3.5201    0.9184    2.2438 H   0  0  0  0  0  0
    1.8294    1.1982    2.5137 H   0  0  0  0  0  0
   -0.7879    4.1397   -0.0194 H   0  0  0  0  0  0
   -3.0229    3.2077   -0.1788 H   0  0  0  0  0  0
   -1.4542   -0.7643    0.1303 H   0  0  0  0  0  0
    1.1963    4.7074   -0.7647 H   0  0  0  0  0  0
    1.8865   -2.7289    0.9072 H   0  0  0  0  0  0
    1.7999   -4.8066   -0.4259 H   0  0  0  0  0  0
    0.9322   -4.7692   -2.7526 H   0  0  0  0  0  0
    0.1516   -2.6245   -3.7479 H   0  0  0  0  0  0
    6.7775    4.3544    1.1374 H   0  0  0  0  0  0
    5.4173    5.1720    0.4664 H   0  0  0  0  0  0
  1  2  2  0  0  0
  1  7  1  0  0  0
  1  8  1  0  0  0
  2  3  1  0  0  0
  2 11  1  0  0  0
  3  4  2  0  0  0
  3 15  1  0  0  0
  4  5  1  0  0  0
  4 26  1  0  0  0
  5  6  1  0  0  0
  5 27  1  0  0  0
  5 28  1  0  0  0
  6  7  1  0  0  0
  6 12  2  0  0  0
  7 14  1  0  0  0
  8  9  2  0  0  0
  8 29  1  0  0  0
  9 10  1  0  0  0
  9 30  1  0  0  0
 10 11  2  0  0  0
 10 22  1  0  0  0
 11 31  1  0  0  0
 12 13  1  0  0  0
 12 23  1  0  0  0
 13 14  2  0  0  0
 14 32  1  0  0  0
 15 16  2  0  0  0
 15 20  1  0  0  0
 16 17  1  0  0  0
 16 33  1  0  0  0
 17 18  2  0  0  0
 17 34  1  0  0  0
 18 19  1  0  0  0
 18 35  1  0  0  0
 19 20  2  0  0  0
 19 36  1  0  0  0
 20 21  1  0  0  0
 23 24  2  0  0  0
 23 25  1  0  0  0
 25 37  1  0  0  0
 25 38  1  0  0  0
M  END
>  <Name>
Ro14-3930

>  <Family>
A.20

>  <IC50_uM>
0.015000

>  <set>
2

$$$$
Ro14-5568
  Cerius2 12180215283D 1   1.00000                          
 Structure written by MMmdl.
 34 37  0  0  0  0  0  0  0  0999 V2000
    0.2358    2.2076    0.1326 C   0  0  0  0  0  0
    0.0594    0.8028    0.1695 C   0  0  0  0  0  0
    1.1417   -0.2332    0.1498 C   0  0  0  0  0  0
    2.2782   -0.0962    0.8602 C   0  0  0  0  0  0
    2.6281    1.0833    1.7014 C   0  0  0  0  0  0
    2.6181    2.3556    0.9435 C   0  0  0  0  0  0
    1.5117    2.8284    0.2645 N   0  0  0  0  0  0
   -0.8850    3.0521   -0.0218 C   0  0  0  0  0  0
   -2.1751    2.5271   -0.1003 C   0  0  0  0  0  0
   -2.3596    1.1557   -0.0286 C   0  0  0  0  0  0
   -1.2625    0.3053    0.1012 C   0  0  0  0  0  0
    3.5945    3.3176    0.7991 C   0  0  0  0  0  0
    3.1303    4.3840    0.0811 N   0  0  0  0  0  0
    1.8840    4.0723   -0.2116 C   0  0  0  0  0  0
    1.0593   -1.4776   -0.6630 C   0  0  0  0  0  0
    1.5118   -2.6879   -0.1175 C   0  0  0  0  0  0
    1.4572   -3.8664   -0.8675 C   0  0  0  0  0  0
    0.9541   -3.8481   -2.1686 C   0  0  0  0  0  0
    0.5057   -2.6506   -2.7236 C   0  0  0  0  0  0
    0.5616   -1.4784   -1.9732 C   0  0  0  0  0  0
    0.1384   -0.3366   -2.5382 F   0  0  0  0  0  0
   -3.9484    0.4988   -0.1138 Cl  0  0  0  0  0  0
    3.0446   -0.8705    0.8266 H   0  0  0  0  0  0
    3.6299    0.9227    2.1204 H   0  0  0  0  0  0
    1.9523    1.1438    2.5634 H   0  0  0  0  0  0
   -0.7902    4.1364   -0.0400 H   0  0  0  0  0  0
   -3.0243    3.1986   -0.2032 H   0  0  0  0  0  0
   -1.4474   -0.7673    0.1392 H   0  0  0  0  0  0
    4.6027    3.2963    1.1990 H   0  0  0  0  0  0
    1.2142    4.6924   -0.7942 H   0  0  0  0  0  0
    1.9075   -2.7225    0.8965 H   0  0  0  0  0  0
    1.8092   -4.8015   -0.4342 H   0  0  0  0  0  0
    0.9137   -4.7673   -2.7504 H   0  0  0  0  0  0
    0.1165   -2.6250   -3.7376 H   0  0  0  0  0  0
  1  2  2  0  0  0
  1  7  1  0  0  0
  1  8  1  0  0  0
  2  3  1  0  0  0
  2 11  1  0  0  0
  3  4  2  0  0  0
  3 15  1  0  0  0
  4  5  1  0  0  0
  4 23  1  0  0  0
  5  6  1  0  0  0
  5 24  1  0  0  0
  5 25  1  0  0  0
  6  7  1  0  0  0
  6 12  2  0  0  0
  7 14  1  0  0  0
  8  9  2  0  0  0
  8 26  1  0  0  0
  9 10  1  0  0  0
  9 27  1  0  0  0
 10 11  2  0  0  0
 10 22  1  0  0  0
 11 28  1  0  0  0
 12 13  1  0  0  0
 12 29  1  0  0  0
 13 14  2  0  0  0
 14 30  1  0  0  0
 15 16  2  0  0  0
 15 20  1  0  0  0
 16 17  1  0  0  0
 16 31  1  0  0  0
 17 18  2  0  0  0
 17 32  1  0  0  0
 18 19  1  0  0  0
 18 33  1  0  0  0
 19 20  2  0  0  0
 19 34  1  0  0  0
 20 21  1  0  0  0
M  END
>  <Name>
Ro14-5568

>  <Family>
A.20

>  <IC50_uM>
0.230000

>  <set>
2

$$$$
Ro22-1274
  Cerius2 12180215283D 1   1.00000                          
 Structure written by MMmdl.
 30 32  0  0  0  0  0  0  0  0999 V2000
    0.2617    2.1523    0.0906 C   0  0  0  0  0  0
    0.0349    0.7616    0.1506 C   0  0  0  0  0  0
    1.1637   -0.2300    0.2184 C   0  0  0  0  0  0
    2.2377   -0.1113    0.9325 N   0  0  0  0  0  0
    2.4161    1.0634    1.7786 C   0  0  0  0  0  0
    2.5709    2.2792    0.9250 C   0  0  0  0  0  0
    1.5926    2.7691    0.1502 C   0  0  0  0  0  0
   -0.8379    3.0146   -0.0512 C   0  0  0  0  0  0
   -2.1406    2.5137   -0.0973 C   0  0  0  0  0  0
   -2.3560    1.1432   -0.0044 C   0  0  0  0  0  0
   -1.2808    0.2661    0.1191 C   0  0  0  0  0  0
    1.0539   -1.4490   -0.6335 C   0  0  0  0  0  0
    1.4605   -2.6938   -0.1355 C   0  0  0  0  0  0
    1.3484   -3.8320   -0.9375 C   0  0  0  0  0  0
    0.8292   -3.7317   -2.2299 C   0  0  0  0  0  0
    0.4191   -2.4928   -2.7239 C   0  0  0  0  0  0
    0.5300   -1.3578   -1.9244 C   0  0  0  0  0  0
    0.1535   -0.1759   -2.4357 F   0  0  0  0  0  0
   -3.9621    0.5253   -0.0494 Cl  0  0  0  0  0  0
    3.3308    0.9263    2.3662 H   0  0  0  0  0  0
    1.6033    1.1718    2.5071 H   0  0  0  0  0  0
    3.5325    2.7863    0.9562 H   0  0  0  0  0  0
    1.7564    3.6742   -0.4309 H   0  0  0  0  0  0
   -0.6910    4.0928   -0.1131 H   0  0  0  0  0  0
   -2.9769    3.2017   -0.1991 H   0  0  0  0  0  0
   -1.4746   -0.8012    0.1928 H   0  0  0  0  0  0
    1.8539   -2.7910    0.8741 H   0  0  0  0  0  0
    1.6636   -4.8009   -0.5527 H   0  0  0  0  0  0
    0.7436   -4.6209   -2.8523 H   0  0  0  0  0  0
    0.0173   -2.4077   -3.7299 H   0  0  0  0  0  0
  1  2  2  0  0  0
  1  7  1  0  0  0
  1  8  1  0  0  0
  2  3  1  0  0  0
  2 11  1  0  0  0
  3  4  2  0  0  0
  3 12  1  0  0  0
  4  5  1  0  0  0
  5  6  1  0  0  0
  5 20  1  0  0  0
  5 21  1  0  0  0
  6  7  2  0  0  0
  6 22  1  0  0  0
  7 23  1  0  0  0
  8  9  2  0  0  0
  8 24  1  0  0  0
  9 10  1  0  0  0
  9 25  1  0  0  0
 10 11  2  0  0  0
 10 19  1  0  0  0
 11 26  1  0  0  0
 12 13  2  0  0  0
 12 17  1  0  0  0
 13 14  1  0  0  0
 13 27  1  0  0  0
 14 15  2  0  0  0
 14 28  1  0  0  0
 15 16  1  0  0  0
 15 29  1  0  0  0
 16 17  2  0  0  0
 16 30  1  0  0  0
 17 18  1  0  0  0
M  END
>  <Name>
Ro22-1274

>  <Family>
A.21

>  <IC50_uM>
0.075000

>  <set>
2

$$$$
Ro22-1251
  Cerius2 12180215283D 1   1.00000                          
 Structure written by MMmdl.
 37 40  0  0  0  0  0  0  0  0999 V2000
    0.2781    2.1690    0.0398 C   0  0  0  0  0  0
    0.0316    0.7797    0.1328 C   0  0  0  0  0  0
    1.1418   -0.2316    0.2112 C   0  0  0  0  0  0
    2.1895   -0.1348    0.9671 N   0  0  0  0  0  0
    2.3680    1.0573    1.7944 C   0  0  0  0  0  0
    2.6088    2.2638    0.9485 C   0  0  0  0  0  0
    1.6299    2.7602    0.1070 C   0  0  0  0  0  0
   -0.8410    3.0210   -0.0900 C   0  0  0  0  0  0
   -2.1476    2.5248   -0.1009 C   0  0  0  0  0  0
   -2.3648    1.1598    0.0253 C   0  0  0  0  0  0
   -1.2879    0.2871    0.1458 C   0  0  0  0  0  0
    1.0441   -1.4532   -0.6531 C   0  0  0  0  0  0
   -3.9718    0.5443    0.0305 Cl  0  0  0  0  0  0
    3.8110    2.9384    0.9378 C   0  0  0  0  0  0
    4.0544    4.0232    0.1733 N   0  0  0  0  0  0
    3.0484    4.4349   -0.6179 C   0  0  0  0  0  0
    1.8373    3.8511   -0.6723 N   0  0  0  0  0  0
    3.2723    5.6540   -1.4571 C   0  0  0  0  0  0
    0.5436   -1.3750   -1.9591 C   0  0  0  0  0  0
    0.4712   -2.5253   -2.7478 C   0  0  0  0  0  0
    0.9045   -3.7503   -2.2406 C   0  0  0  0  0  0
    1.4172   -3.8291   -0.9461 C   0  0  0  0  0  0
    1.4925   -2.6823   -0.1534 C   0  0  0  0  0  0
    3.2305    0.8819    2.4487 H   0  0  0  0  0  0
    1.5182    1.2110    2.4720 H   0  0  0  0  0  0
   -0.6991    4.0996   -0.1682 H   0  0  0  0  0  0
   -2.9828    3.2147   -0.1970 H   0  0  0  0  0  0
   -1.4788   -0.7787    0.2511 H   0  0  0  0  0  0
    4.6423    2.6168    1.5622 H   0  0  0  0  0  0
    2.6841    5.5998   -2.3782 H   0  0  0  0  0  0
    4.3281    5.7457   -1.7295 H   0  0  0  0  0  0
    2.9728    6.5455   -0.8986 H   0  0  0  0  0  0
    0.2183   -0.4271   -2.3819 H   0  0  0  0  0  0
    0.0802   -2.4648   -3.7622 H   0  0  0  0  0  0
    0.8475   -4.6453   -2.8583 H   0  0  0  0  0  0
    1.7602   -4.7848   -0.5535 H   0  0  0  0  0  0
    1.8945   -2.7549    0.8552 H   0  0  0  0  0  0
  1  2  2  0  0  0
  1  7  1  0  0  0
  1  8  1  0  0  0
  2  3  1  0  0  0
  2 11  1  0  0  0
  3  4  2  0  0  0
  3 12  1  0  0  0
  4  5  1  0  0  0
  5  6  1  0  0  0
  5 24  1  0  0  0
  5 25  1  0  0  0
  6  7  2  0  0  0
  6 14  1  0  0  0
  7 17  1  0  0  0
  8  9  2  0  0  0
  8 26  1  0  0  0
  9 10  1  0  0  0
  9 27  1  0  0  0
 10 11  2  0  0  0
 10 13  1  0  0  0
 11 28  1  0  0  0
 12 19  2  0  0  0
 12 23  1  0  0  0
 14 15  2  0  0  0
 14 29  1  0  0  0
 15 16  1  0  0  0
 16 17  2  0  0  0
 16 18  1  0  0  0
 18 30  1  0  0  0
 18 31  1  0  0  0
 18 32  1  0  0  0
 19 20  1  0  0  0
 19 33  1  0  0  0
 20 21  2  0  0  0
 20 34  1  0  0  0
 21 22  1  0  0  0
 21 35  1  0  0  0
 22 23  2  0  0  0
 22 36  1  0  0  0
 23 37  1  0  0  0
M  END
>  <Name>
Ro22-1251

>  <Family>
A.22

>  <IC50_uM>
0.011000

>  <set>
2

$$$$
Ro22-1366
  Cerius2 12180215283D 1   1.00000                          
 Structure written by MMmdl.
 37 40  0  0  0  0  0  0  0  0999 V2000
    0.2786    2.1657    0.0505 C   0  0  0  0  0  0
    0.0410    0.7741    0.1391 C   0  0  0  0  0  0
    1.1567   -0.2309    0.2215 C   0  0  0  0  0  0
    2.2153   -0.1246    0.9588 N   0  0  0  0  0  0
    2.3922    1.0651    1.7894 C   0  0  0  0  0  0
    2.6152    2.2769    0.9475 C   0  0  0  0  0  0
    1.6259    2.7687    0.1161 C   0  0  0  0  0  0
   -0.8463    3.0101   -0.0833 C   0  0  0  0  0  0
   -2.1491    2.5050   -0.1085 C   0  0  0  0  0  0
   -2.3573    1.1377    0.0048 C   0  0  0  0  0  0
   -1.2752    0.2719    0.1303 C   0  0  0  0  0  0
    1.0491   -1.4483   -0.6338 C   0  0  0  0  0  0
   -3.9597    0.5104   -0.0119 Cl  0  0  0  0  0  0
    3.8115    2.9624    0.9322 C   0  0  0  0  0  0
    4.0403    4.0532    0.1721 N   0  0  0  0  0  0
    3.0255    4.4598   -0.6100 C   0  0  0  0  0  0
    1.8195    3.8652   -0.6593 N   0  0  0  0  0  0
    3.2325    5.6854   -1.4444 C   0  0  0  0  0  0
    1.4287   -2.6985   -0.1282 C   0  0  0  0  0  0
    1.3166   -3.8352   -0.9326 C   0  0  0  0  0  0
    0.8242   -3.7283   -2.2346 C   0  0  0  0  0  0
    0.4408   -2.4842   -2.7365 C   0  0  0  0  0  0
    0.5516   -1.3507   -1.9349 C   0  0  0  0  0  0
    0.2007   -0.1641   -2.4536 F   0  0  0  0  0  0
    3.2613    0.8934    2.4357 H   0  0  0  0  0  0
    1.5468    1.2091    2.4748 H   0  0  0  0  0  0
   -0.7120    4.0901   -0.1564 H   0  0  0  0  0  0
   -2.9883    3.1896   -0.2082 H   0  0  0  0  0  0
   -1.4628   -0.7951    0.2258 H   0  0  0  0  0  0
    4.6497    2.6448    1.5493 H   0  0  0  0  0  0
    2.6416    5.6284   -2.3636 H   0  0  0  0  0  0
    4.2862    5.7905   -1.7199 H   0  0  0  0  0  0
    2.9246    6.5707   -0.8806 H   0  0  0  0  0  0
    1.8008   -2.8027    0.8886 H   0  0  0  0  0  0
    1.6109   -4.8082   -0.5417 H   0  0  0  0  0  0
    0.7387   -4.6165   -2.8586 H   0  0  0  0  0  0
    0.0598   -2.3938   -3.7502 H   0  0  0  0  0  0
  1  2  2  0  0  0
  1  7  1  0  0  0
  1  8  1  0  0  0
  2  3  1  0  0  0
  2 11  1  0  0  0
  3  4  2  0  0  0
  3 12  1  0  0  0
  4  5  1  0  0  0
  5  6  1  0  0  0
  5 25  1  0  0  0
  5 26  1  0  0  0
  6  7  2  0  0  0
  6 14  1  0  0  0
  7 17  1  0  0  0
  8  9  2  0  0  0
  8 27  1  0  0  0
  9 10  1  0  0  0
  9 28  1  0  0  0
 10 11  2  0  0  0
 10 13  1  0  0  0
 11 29  1  0  0  0
 12 19  2  0  0  0
 12 23  1  0  0  0
 14 15  2  0  0  0
 14 30  1  0  0  0
 15 16  1  0  0  0
 16 17  2  0  0  0
 16 18  1  0  0  0
 18 31  1  0  0  0
 18 32  1  0  0  0
 18 33  1  0  0  0
 19 20  1  0  0  0
 19 34  1  0  0  0
 20 21  2  0  0  0
 20 35  1  0  0  0
 21 22  1  0  0  0
 21 36  1  0  0  0
 22 23  2  0  0  0
 22 37  1  0  0  0
 23 24  1  0  0  0
M  END
>  <Name>
Ro22-1366

>  <Family>
A.22

>  <IC50_uM>
0.004000

>  <set>
1

$$$$
Ro22-2038
  Cerius2 12180215283D 1   1.00000                          
 Structure written by MMmdl.
 36 39  0  0  0  0  0  0  0  0999 V2000
    0.2784    2.1661    0.0510 C   0  0  0  0  0  0
    0.0411    0.7743    0.1391 C   0  0  0  0  0  0
    1.1567   -0.2308    0.2214 C   0  0  0  0  0  0
    2.2158   -0.1245    0.9580 N   0  0  0  0  0  0
    2.3934    1.0645    1.7891 C   0  0  0  0  0  0
    2.6134    2.2764    0.9479 C   0  0  0  0  0  0
    1.6256    2.7693    0.1178 C   0  0  0  0  0  0
   -0.8464    3.0104   -0.0829 C   0  0  0  0  0  0
   -2.1492    2.5053   -0.1084 C   0  0  0  0  0  0
   -2.3573    1.1378    0.0047 C   0  0  0  0  0  0
   -1.2752    0.2721    0.1300 C   0  0  0  0  0  0
    1.0491   -1.4484   -0.6337 C   0  0  0  0  0  0
   -3.9596    0.5104   -0.0123 Cl  0  0  0  0  0  0
    3.8053    2.9647    0.9260 C   0  0  0  0  0  0
    4.0246    4.0557    0.1630 N   0  0  0  0  0  0
    3.0121    4.4639   -0.6045 C   0  0  0  0  0  0
    1.8194    3.8666   -0.6563 N   0  0  0  0  0  0
    3.2072    5.5620   -1.3819 N   0  0  0  0  0  0
    1.4292   -2.6984   -0.1280 C   0  0  0  0  0  0
    1.3170   -3.8353   -0.9320 C   0  0  0  0  0  0
    0.8238   -3.7289   -2.2339 C   0  0  0  0  0  0
    0.4399   -2.4850   -2.7358 C   0  0  0  0  0  0
    0.5510   -1.3513   -1.9345 C   0  0  0  0  0  0
    0.1995   -0.1648   -2.4534 F   0  0  0  0  0  0
    3.2641    0.8934    2.4334 H   0  0  0  0  0  0
    1.5493    1.2072    2.4762 H   0  0  0  0  0  0
   -0.7122    4.0904   -0.1560 H   0  0  0  0  0  0
   -2.9884    3.1898   -0.2081 H   0  0  0  0  0  0
   -1.4627   -0.7949    0.2251 H   0  0  0  0  0  0
    4.6491    2.6512    1.5373 H   0  0  0  0  0  0
    2.4593    5.8955   -1.9714 H   0  0  0  0  0  0
    4.0974    6.0367   -1.3630 H   0  0  0  0  0  0
    1.8018   -2.8024    0.8888 H   0  0  0  0  0  0
    1.6114   -4.8082   -0.5410 H   0  0  0  0  0  0
    0.7382   -4.6173   -2.8575 H   0  0  0  0  0  0
    0.0584   -2.3949   -3.7493 H   0  0  0  0  0  0
  1  2  2  0  0  0
  1  7  1  0  0  0
  1  8  1  0  0  0
  2  3  1  0  0  0
  2 11  1  0  0  0
  3  4  2  0  0  0
  3 12  1  0  0  0
  4  5  1  0  0  0
  5  6  1  0  0  0
  5 25  1  0  0  0
  5 26  1  0  0  0
  6  7  2  0  0  0
  6 14  1  0  0  0
  7 17  1  0  0  0
  8  9  2  0  0  0
  8 27  1  0  0  0
  9 10  1  0  0  0
  9 28  1  0  0  0
 10 11  2  0  0  0
 10 13  1  0  0  0
 11 29  1  0  0  0
 12 19  2  0  0  0
 12 23  1  0  0  0
 14 15  2  0  0  0
 14 30  1  0  0  0
 15 16  1  0  0  0
 16 17  2  0  0  0
 16 18  1  0  0  0
 18 31  1  0  0  0
 18 32  1  0  0  0
 19 20  1  0  0  0
 19 33  1  0  0  0
 20 21  2  0  0  0
 20 34  1  0  0  0
 21 22  1  0  0  0
 21 35  1  0  0  0
 22 23  2  0  0  0
 22 36  1  0  0  0
 23 24  1  0  0  0
M  END
>  <Name>
Ro22-2038

>  <Family>
A.22

>  <IC50_uM>
0.002800

>  <set>
1

$$$$
Ro22-3245
  Cerius2 12180215283D 1   1.00000                          
 Structure written by MMmdl.
 34 37  0  0  0  0  0  0  0  0999 V2000
    0.2787    2.1582    0.0487 C   0  0  0  0  0  0
    0.0482    0.7654    0.1449 C   0  0  0  0  0  0
    1.1691   -0.2313    0.2416 C   0  0  0  0  0  0
    2.2386   -0.1127    0.9602 N   0  0  0  0  0  0
    2.4132    1.0815    1.7830 C   0  0  0  0  0  0
    2.6225    2.2905    0.9343 C   0  0  0  0  0  0
    1.6226    2.7715    0.1067 C   0  0  0  0  0  0
   -0.8507    2.9958   -0.0944 C   0  0  0  0  0  0
   -2.1505    2.4840   -0.1266 C   0  0  0  0  0  0
   -2.3514    1.1160   -0.0133 C   0  0  0  0  0  0
   -1.2653    0.2565    0.1217 C   0  0  0  0  0  0
    1.0583   -1.4586   -0.5960 C   0  0  0  0  0  0
   -3.9501    0.4793   -0.0407 Cl  0  0  0  0  0  0
    3.8176    2.9815    0.9085 C   0  0  0  0  0  0
    4.0376    4.0703    0.1432 N   0  0  0  0  0  0
    3.0068    4.4607   -0.6200 C   0  0  0  0  0  0
    1.8048    3.8656   -0.6754 N   0  0  0  0  0  0
    1.4683   -2.6751   -0.0315 C   0  0  0  0  0  0
    1.3720   -3.8530   -0.7730 C   0  0  0  0  0  0
    0.8669   -3.8200   -2.0724 C   0  0  0  0  0  0
    0.4576   -2.6089   -2.6357 C   0  0  0  0  0  0
    0.5500   -1.4235   -1.9005 C   0  0  0  0  0  0
    0.0783    0.0473   -2.6756 Cl  0  0  0  0  0  0
    3.2870    0.9187    2.4253 H   0  0  0  0  0  0
    1.5713    1.2240    2.4729 H   0  0  0  0  0  0
   -0.7222    4.0761   -0.1721 H   0  0  0  0  0  0
   -2.9927    3.1638   -0.2336 H   0  0  0  0  0  0
   -1.4511   -0.8105    0.2169 H   0  0  0  0  0  0
    4.6611    2.6681    1.5206 H   0  0  0  0  0  0
    3.1555    5.3348   -1.2468 H   0  0  0  0  0  0
    1.8536   -2.7152    0.9853 H   0  0  0  0  0  0
    1.6885   -4.7987   -0.3360 H   0  0  0  0  0  0
    0.7928   -4.7399   -2.6504 H   0  0  0  0  0  0
    0.0727   -2.5993   -3.6535 H   0  0  0  0  0  0
  1  2  2  0  0  0
  1  7  1  0  0  0
  1  8  1  0  0  0
  2  3  1  0  0  0
  2 11  1  0  0  0
  3  4  2  0  0  0
  3 12  1  0  0  0
  4  5  1  0  0  0
  5  6  1  0  0  0
  5 24  1  0  0  0
  5 25  1  0  0  0
  6  7  2  0  0  0
  6 14  1  0  0  0
  7 17  1  0  0  0
  8  9  2  0  0  0
  8 26  1  0  0  0
  9 10  1  0  0  0
  9 27  1  0  0  0
 10 11  2  0  0  0
 10 13  1  0  0  0
 11 28  1  0  0  0
 12 18  2  0  0  0
 12 22  1  0  0  0
 14 15  2  0  0  0
 14 29  1  0  0  0
 15 16  1  0  0  0
 16 17  2  0  0  0
 16 30  1  0  0  0
 18 19  1  0  0  0
 18 31  1  0  0  0
 19 20  2  0  0  0
 19 32  1  0  0  0
 20 21  1  0  0  0
 20 33  1  0  0  0
 21 22  2  0  0  0
 21 34  1  0  0  0
 22 23  1  0  0  0
M  END
>  <Name>
Ro22-3245

>  <Family>
A.22

>  <IC50_uM>
0.002800

>  <set>
2

$$$$
Ro22-3148
  Cerius2 12180215283D 1   1.00000                          
 Structure written by MMmdl.
 32 35  0  0  0  0  0  0  0  0999 V2000
    0.0082    2.1359   -0.0320 C   0  0  0  0  0  0
   -0.1193    0.7383    0.1131 C   0  0  0  0  0  0
    1.0611   -0.2031    0.1630 C   0  0  0  0  0  0
    2.1506   -0.0497    0.8466 N   0  0  0  0  0  0
    2.3789    1.1352    1.6781 C   0  0  0  0  0  0
    2.3900    2.3580    0.8363 C   0  0  0  0  0  0
    1.3024    2.7922    0.0494 C   0  0  0  0  0  0
   -1.1485    2.9210   -0.1837 C   0  0  0  0  0  0
   -2.4158    2.3376   -0.1612 C   0  0  0  0  0  0
   -2.5446    0.9651    0.0218 C   0  0  0  0  0  0
   -1.4058    0.1696    0.1591 C   0  0  0  0  0  0
    3.4229    3.2037    0.7127 N   0  0  0  0  0  0
    2.9111    4.1220   -0.1424 N   0  0  0  0  0  0
    1.6369    3.9383   -0.5649 N   0  0  0  0  0  0
    0.9844   -1.4467   -0.6758 C   0  0  0  0  0  0
    0.4932   -1.4028   -1.9870 C   0  0  0  0  0  0
    0.4445   -2.5702   -2.7521 C   0  0  0  0  0  0
    0.8922   -3.7777   -2.2161 C   0  0  0  0  0  0
    1.3955   -3.8221   -0.9162 C   0  0  0  0  0  0
    1.4474   -2.6580   -0.1469 C   0  0  0  0  0  0
    3.3448    1.0183    2.1822 H   0  0  0  0  0  0
    1.6199    1.2057    2.4663 H   0  0  0  0  0  0
   -1.0705    4.0019   -0.2979 H   0  0  0  0  0  0
   -3.3029    2.9590   -0.2716 H   0  0  0  0  0  0
   -3.5331    0.5096    0.0523 H   0  0  0  0  0  0
   -1.5381   -0.9025    0.2978 H   0  0  0  0  0  0
    3.4617    4.9240   -0.4517 H   0  0  0  0  0  0
    0.1563   -0.4685   -2.4304 H   0  0  0  0  0  0
    0.0607   -2.5367   -3.7704 H   0  0  0  0  0  0
    0.8536   -4.6860   -2.8154 H   0  0  0  0  0  0
    1.7499   -4.7642   -0.5013 H   0  0  0  0  0  0
    1.8430   -2.7032    0.8659 H   0  0  0  0  0  0
  1  2  2  0  0  0
  1  7  1  0  0  0
  1  8  1  0  0  0
  2  3  1  0  0  0
  2 11  1  0  0  0
  3  4  2  0  0  0
  3 15  1  0  0  0
  4  5  1  0  0  0
  5  6  1  0  0  0
  5 21  1  0  0  0
  5 22  1  0  0  0
  6  7  1  0  0  0
  6 12  2  0  0  0
  7 14  2  0  0  0
  8  9  2  0  0  0
  8 23  1  0  0  0
  9 10  1  0  0  0
  9 24  1  0  0  0
 10 11  2  0  0  0
 10 25  1  0  0  0
 11 26  1  0  0  0
 12 13  1  0  0  0
 13 14  1  0  0  0
 13 27  1  0  0  0
 15 16  2  0  0  0
 15 20  1  0  0  0
 16 17  1  0  0  0
 16 28  1  0  0  0
 17 18  2  0  0  0
 17 29  1  0  0  0
 18 19  1  0  0  0
 18 30  1  0  0  0
 19 20  2  0  0  0
 19 31  1  0  0  0
 20 32  1  0  0  0
M  END
>  <Name>
Ro22-3148

>  <Family>
A.23

>  <IC50_uM>
0.420000

>  <set>
1

$$$$
Ro22-3147
  Cerius2 12180215283D 1   1.00000                          
 Structure written by MMmdl.
 32 35  0  0  0  0  0  0  0  0999 V2000
    0.0074    2.1186   -0.0194 C   0  0  0  0  0  0
   -0.1042    0.7184    0.1197 C   0  0  0  0  0  0
    1.0867   -0.2073    0.1905 C   0  0  0  0  0  0
    2.1917   -0.0334    0.8404 N   0  0  0  0  0  0
    2.4172    1.1513    1.6708 C   0  0  0  0  0  0
    2.3944    2.3774    0.8369 C   0  0  0  0  0  0
    1.2914    2.7963    0.0645 C   0  0  0  0  0  0
   -1.1572    2.8892   -0.1905 C   0  0  0  0  0  0
   -2.4169    2.2902   -0.2033 C   0  0  0  0  0  0
   -2.5306    0.9145   -0.0411 C   0  0  0  0  0  0
   -1.3846    0.1330    0.1169 C   0  0  0  0  0  0
    3.4097    3.2442    0.7118 N   0  0  0  0  0  0
    2.8733    4.1585   -0.1314 N   0  0  0  0  0  0
    1.6001    3.9527   -0.5448 N   0  0  0  0  0  0
    1.0031   -1.4565   -0.6225 C   0  0  0  0  0  0
    1.5123   -2.6374   -0.0633 C   0  0  0  0  0  0
    1.4426   -3.8323   -0.7801 C   0  0  0  0  0  0
    0.8650   -3.8517   -2.0493 C   0  0  0  0  0  0
    0.3561   -2.6762   -2.6070 C   0  0  0  0  0  0
    0.4210   -1.4742   -1.8964 C   0  0  0  0  0  0
   -0.1813   -0.0473   -2.6631 Cl  0  0  0  0  0  0
    3.3928    1.0465    2.1586 H   0  0  0  0  0  0
    1.6709    1.2074    2.4722 H   0  0  0  0  0  0
   -1.0916    3.9716   -0.2988 H   0  0  0  0  0  0
   -3.3092    2.9010   -0.3300 H   0  0  0  0  0  0
   -3.5131    0.4450   -0.0426 H   0  0  0  0  0  0
   -1.5137   -0.9408    0.2392 H   0  0  0  0  0  0
    3.4055    4.9736   -0.4389 H   0  0  0  0  0  0
    1.9552   -2.6363    0.9307 H   0  0  0  0  0  0
    1.8365   -4.7504   -0.3473 H   0  0  0  0  0  0
    0.8117   -4.7848   -2.6080 H   0  0  0  0  0  0
   -0.0855   -2.7072   -3.6010 H   0  0  0  0  0  0
  1  2  2  0  0  0
  1  7  1  0  0  0
  1  8  1  0  0  0
  2  3  1  0  0  0
  2 11  1  0  0  0
  3  4  2  0  0  0
  3 15  1  0  0  0
  4  5  1  0  0  0
  5  6  1  0  0  0
  5 22  1  0  0  0
  5 23  1  0  0  0
  6  7  1  0  0  0
  6 12  2  0  0  0
  7 14  2  0  0  0
  8  9  2  0  0  0
  8 24  1  0  0  0
  9 10  1  0  0  0
  9 25  1  0  0  0
 10 11  2  0  0  0
 10 26  1  0  0  0
 11 27  1  0  0  0
 12 13  1  0  0  0
 13 14  1  0  0  0
 13 28  1  0  0  0
 15 16  2  0  0  0
 15 20  1  0  0  0
 16 17  1  0  0  0
 16 29  1  0  0  0
 17 18  2  0  0  0
 17 30  1  0  0  0
 18 19  1  0  0  0
 18 31  1  0  0  0
 19 20  2  0  0  0
 19 32  1  0  0  0
 20 21  1  0  0  0
M  END
>  <Name>
Ro22-3147

>  <Family>
A.23

>  <IC50_uM>
0.005200

>  <set>
2

$$$$
Ro22-0780
  Cerius2 12180215283D 1   1.00000                          
 Structure written by MMmdl.
 32 35  0  0  0  0  0  0  0  0999 V2000
    0.0370    2.1547   -0.0347 C   0  0  0  0  0  0
   -0.1056    0.7581    0.1110 C   0  0  0  0  0  0
    1.0659   -0.1939    0.1658 C   0  0  0  0  0  0
    2.1535   -0.0505    0.8538 N   0  0  0  0  0  0
    2.3918    1.1318    1.6859 C   0  0  0  0  0  0
    2.4173    2.3544    0.8442 C   0  0  0  0  0  0
    1.3372    2.7986    0.0529 C   0  0  0  0  0  0
   -1.1108    2.9511   -0.1941 C   0  0  0  0  0  0
   -2.3844    2.3791   -0.1793 C   0  0  0  0  0  0
   -2.5215    1.0076    0.0040 C   0  0  0  0  0  0
   -1.3962    0.1982    0.1508 C   0  0  0  0  0  0
    3.4583    3.1909    0.7253 N   0  0  0  0  0  0
    2.9584    4.1140   -0.1317 N   0  0  0  0  0  0
    1.6844    3.9414   -0.5598 N   0  0  0  0  0  0
    0.9804   -1.4369   -0.6728 C   0  0  0  0  0  0
    0.4829   -1.3900   -1.9815 C   0  0  0  0  0  0
    0.4218   -2.5574   -2.7453 C   0  0  0  0  0  0
    0.8635   -3.7678   -2.2105 C   0  0  0  0  0  0
    1.3733   -3.8148   -0.9131 C   0  0  0  0  0  0
    1.4374   -2.6508   -0.1451 C   0  0  0  0  0  0
   -4.0918    0.3033    0.0419 Cl  0  0  0  0  0  0
    3.3550    1.0051    2.1928 H   0  0  0  0  0  0
    1.6312    1.2101    2.4719 H   0  0  0  0  0  0
   -1.0224    4.0311   -0.3089 H   0  0  0  0  0  0
   -3.2595    3.0142   -0.2969 H   0  0  0  0  0  0
   -1.5304   -0.8724    0.2910 H   0  0  0  0  0  0
    3.5174    4.9113   -0.4383 H   0  0  0  0  0  0
    0.1512   -0.4535   -2.4245 H   0  0  0  0  0  0
    0.0331   -2.5220   -3.7617 H   0  0  0  0  0  0
    0.8152   -4.6762   -2.8089 H   0  0  0  0  0  0
    1.7228   -4.7592   -0.4995 H   0  0  0  0  0  0
    1.8374   -2.6979    0.8659 H   0  0  0  0  0  0
  1  2  2  0  0  0
  1  7  1  0  0  0
  1  8  1  0  0  0
  2  3  1  0  0  0
  2 11  1  0  0  0
  3  4  2  0  0  0
  3 15  1  0  0  0
  4  5  1  0  0  0
  5  6  1  0  0  0
  5 22  1  0  0  0
  5 23  1  0  0  0
  6  7  1  0  0  0
  6 12  2  0  0  0
  7 14  2  0  0  0
  8  9  2  0  0  0
  8 24  1  0  0  0
  9 10  1  0  0  0
  9 25  1  0  0  0
 10 11  2  0  0  0
 10 21  1  0  0  0
 11 26  1  0  0  0
 12 13  1  0  0  0
 13 14  1  0  0  0
 13 27  1  0  0  0
 15 16  2  0  0  0
 15 20  1  0  0  0
 16 17  1  0  0  0
 16 28  1  0  0  0
 17 18  2  0  0  0
 17 29  1  0  0  0
 18 19  1  0  0  0
 18 30  1  0  0  0
 19 20  2  0  0  0
 19 31  1  0  0  0
 20 32  1  0  0  0
M  END
>  <Name>
Ro22-0780

>  <Family>
A.23

>  <IC50_uM>
0.011000

>  <set>
2

$$$$
Ro22-2466
  Cerius2 12180215283D 1   1.00000                          
 Structure written by MMmdl.
 32 35  0  0  0  0  0  0  0  0999 V2000
    0.0375    2.1503   -0.0202 C   0  0  0  0  0  0
   -0.0967    0.7515    0.1177 C   0  0  0  0  0  0
    1.0798   -0.1940    0.1751 C   0  0  0  0  0  0
    2.1776   -0.0422    0.8428 N   0  0  0  0  0  0
    2.4181    1.1368    1.6783 C   0  0  0  0  0  0
    2.4239    2.3644    0.8449 C   0  0  0  0  0  0
    1.3332    2.8044    0.0665 C   0  0  0  0  0  0
   -1.1149    2.9397   -0.1831 C   0  0  0  0  0  0
   -2.3848    2.3596   -0.1850 C   0  0  0  0  0  0
   -2.5139    0.9858   -0.0167 C   0  0  0  0  0  0
   -1.3844    0.1826    0.1346 C   0  0  0  0  0  0
    3.4564    3.2110    0.7234 N   0  0  0  0  0  0
    2.9413    4.1357   -0.1225 N   0  0  0  0  0  0
    1.6657    3.9543   -0.5415 N   0  0  0  0  0  0
    0.9848   -1.4324   -0.6548 C   0  0  0  0  0  0
    1.4516   -2.6533   -0.1514 C   0  0  0  0  0  0
    1.3510   -3.8080   -0.9313 C   0  0  0  0  0  0
    0.7835   -3.7473   -2.2059 C   0  0  0  0  0  0
    0.3132   -2.5320   -2.7047 C   0  0  0  0  0  0
    0.4126   -1.3808   -1.9275 C   0  0  0  0  0  0
   -4.0794    0.2699   -0.0034 Cl  0  0  0  0  0  0
   -0.0236   -0.2208   -2.4416 F   0  0  0  0  0  0
    3.3881    1.0139    2.1727 H   0  0  0  0  0  0
    1.6667    1.2051    2.4740 H   0  0  0  0  0  0
   -1.0331    4.0209   -0.2912 H   0  0  0  0  0  0
   -3.2629    2.9898   -0.3060 H   0  0  0  0  0  0
   -1.5162   -0.8893    0.2638 H   0  0  0  0  0  0
    3.4904    4.9402   -0.4279 H   0  0  0  0  0  0
    1.8833   -2.7209    0.8448 H   0  0  0  0  0  0
    1.7129   -4.7589   -0.5430 H   0  0  0  0  0  0
    0.7073   -4.6496   -2.8107 H   0  0  0  0  0  0
   -0.1265   -2.4780   -3.6968 H   0  0  0  0  0  0
  1  2  2  0  0  0
  1  7  1  0  0  0
  1  8  1  0  0  0
  2  3  1  0  0  0
  2 11  1  0  0  0
  3  4  2  0  0  0
  3 15  1  0  0  0
  4  5  1  0  0  0
  5  6  1  0  0  0
  5 23  1  0  0  0
  5 24  1  0  0  0
  6  7  1  0  0  0
  6 12  2  0  0  0
  7 14  2  0  0  0
  8  9  2  0  0  0
  8 25  1  0  0  0
  9 10  1  0  0  0
  9 26  1  0  0  0
 10 11  2  0  0  0
 10 21  1  0  0  0
 11 27  1  0  0  0
 12 13  1  0  0  0
 13 14  1  0  0  0
 13 28  1  0  0  0
 15 16  2  0  0  0
 15 20  1  0  0  0
 16 17  1  0  0  0
 16 29  1  0  0  0
 17 18  2  0  0  0
 17 30  1  0  0  0
 18 19  1  0  0  0
 18 31  1  0  0  0
 19 20  2  0  0  0
 19 32  1  0  0  0
 20 22  1  0  0  0
M  END
>  <Name>
Ro22-2466

>  <Family>
A.23

>  <IC50_uM>
0.001900

>  <set>
1

$$$$
Ro22-2468
  Cerius2 12180215283D 1   1.00000                          
 Structure written by MMmdl.
 32 35  0  0  0  0  0  0  0  0999 V2000
    0.0376    2.1420   -0.0156 C   0  0  0  0  0  0
   -0.0899    0.7427    0.1256 C   0  0  0  0  0  0
    1.0918   -0.1951    0.1948 C   0  0  0  0  0  0
    2.1992   -0.0319    0.8428 N   0  0  0  0  0  0
    2.4409    1.1505    1.6714 C   0  0  0  0  0  0
    2.4293    2.3760    0.8365 C   0  0  0  0  0  0
    1.3293    2.8056    0.0656 C   0  0  0  0  0  0
   -1.1184    2.9254   -0.1872 C   0  0  0  0  0  0
   -2.3852    2.3394   -0.1989 C   0  0  0  0  0  0
   -2.5078    0.9651   -0.0343 C   0  0  0  0  0  0
   -1.3751    0.1678    0.1259 C   0  0  0  0  0  0
    3.4533    3.2320    0.7082 N   0  0  0  0  0  0
    2.9247    4.1511   -0.1349 N   0  0  0  0  0  0
    1.6486    3.9580   -0.5455 N   0  0  0  0  0  0
    0.9938   -1.4438   -0.6172 C   0  0  0  0  0  0
    1.4915   -2.6295   -0.0580 C   0  0  0  0  0  0
    1.4109   -3.8233   -0.7756 C   0  0  0  0  0  0
    0.8338   -3.8368   -2.0450 C   0  0  0  0  0  0
    0.3365   -2.6563   -2.6027 C   0  0  0  0  0  0
    0.4127   -1.4553   -1.8916 C   0  0  0  0  0  0
   -4.0692    0.2403   -0.0356 Cl  0  0  0  0  0  0
   -0.1719   -0.0216   -2.6588 Cl  0  0  0  0  0  0
    3.4167    1.0352    2.1564 H   0  0  0  0  0  0
    1.6976    1.2158    2.4749 H   0  0  0  0  0  0
   -1.0413    4.0068   -0.2974 H   0  0  0  0  0  0
   -3.2654    2.9652   -0.3269 H   0  0  0  0  0  0
   -1.5065   -0.9042    0.2518 H   0  0  0  0  0  0
    3.4647    4.9603   -0.4443 H   0  0  0  0  0  0
    1.9336   -2.6335    0.9362 H   0  0  0  0  0  0
    1.7957   -4.7454   -0.3430 H   0  0  0  0  0  0
    0.7719   -4.7691   -2.6041 H   0  0  0  0  0  0
   -0.1043   -2.6826   -3.5973 H   0  0  0  0  0  0
  1  2  2  0  0  0
  1  7  1  0  0  0
  1  8  1  0  0  0
  2  3  1  0  0  0
  2 11  1  0  0  0
  3  4  2  0  0  0
  3 15  1  0  0  0
  4  5  1  0  0  0
  5  6  1  0  0  0
  5 23  1  0  0  0
  5 24  1  0  0  0
  6  7  1  0  0  0
  6 12  2  0  0  0
  7 14  2  0  0  0
  8  9  2  0  0  0
  8 25  1  0  0  0
  9 10  1  0  0  0
  9 26  1  0  0  0
 10 11  2  0  0  0
 10 21  1  0  0  0
 11 27  1  0  0  0
 12 13  1  0  0  0
 13 14  1  0  0  0
 13 28  1  0  0  0
 15 16  2  0  0  0
 15 20  1  0  0  0
 16 17  1  0  0  0
 16 29  1  0  0  0
 17 18  2  0  0  0
 17 30  1  0  0  0
 18 19  1  0  0  0
 18 31  1  0  0  0
 19 20  2  0  0  0
 19 32  1  0  0  0
 20 22  1  0  0  0
M  END
>  <Name>
Ro22-2468

>  <Family>
A.23

>  <IC50_uM>
0.002500

>  <set>
0

$$$$
Ro14-7181
  Cerius2 12180215283D 1   1.00000                          
 Structure written by MMmdl.
 35 38  0  0  0  0  0  0  0  0999 V2000
    0.2569    2.1251    0.0688 C   0  0  0  0  0  0
    0.0066    0.7566    0.2242 C   0  0  0  0  0  0
    1.0427   -0.3035    0.2801 C   0  0  0  0  0  0
    2.2242   -0.0737    0.9434 N   0  0  0  0  0  0
    2.5488    1.0695    1.7932 C   0  0  0  0  0  0
    2.6189    2.2970    0.9499 C   0  0  0  0  0  0
    1.5585    2.6835    0.1374 N   0  0  0  0  0  0
   -0.8261    3.0024   -0.1546 C   0  0  0  0  0  0
   -2.1382    2.5268   -0.1952 C   0  0  0  0  0  0
   -2.3892    1.1721   -0.0286 C   0  0  0  0  0  0
   -1.3244    0.2947    0.1690 C   0  0  0  0  0  0
    3.1378   -1.1844    1.1669 C   0  0  0  0  0  0
    3.7566   -0.8815    2.5149 C   0  0  0  0  0  0
    3.8561    0.6342    2.4681 C   0  0  0  0  0  0
    3.5356    3.3460    0.8406 C   0  0  0  0  0  0
    3.1417    4.2311   -0.1520 N   0  0  0  0  0  0
    1.9662    3.8099   -0.5388 C   0  0  0  0  0  0
    0.7955   -1.3802   -0.2632 O   0  0  0  0  0  0
    4.7490    3.6373    1.6109 C   0  0  0  0  0  0
    5.2055    2.9428    2.5103 O   0  0  0  0  0  0
    5.3212    4.8336    1.2800 N   0  0  0  0  0  0
    1.7547    1.1675    2.5442 H   0  0  0  0  0  0
   -0.6817    4.0764   -0.2595 H   0  0  0  0  0  0
   -2.9638    3.2167   -0.3546 H   0  0  0  0  0  0
   -3.4072    0.7925   -0.0690 H   0  0  0  0  0  0
   -1.5336   -0.7713    0.2588 H   0  0  0  0  0  0
    3.8884   -1.1589    0.3689 H   0  0  0  0  0  0
    2.6334   -2.1550    1.1521 H   0  0  0  0  0  0
    4.7227   -1.3728    2.6580 H   0  0  0  0  0  0
    3.0843   -1.1888    3.3246 H   0  0  0  0  0  0
    3.9718    1.0613    3.4683 H   0  0  0  0  0  0
    4.7352    0.8900    1.8652 H   0  0  0  0  0  0
    1.3660    4.2781   -1.3083 H   0  0  0  0  0  0
    4.7860    5.4613    0.6897 H   0  0  0  0  0  0
    6.0428    5.1993    1.8818 H   0  0  0  0  0  0
  1  2  2  0  0  0
  1  7  1  0  0  0
  1  8  1  0  0  0
  2  3  1  0  0  0
  2 11  1  0  0  0
  3  4  1  0  0  0
  3 18  2  0  0  0
  4  5  1  0  0  0
  4 12  1  0  0  0
  5  6  1  0  0  0
  5 14  1  0  0  0
  5 22  1  0  0  0
  6  7  1  0  0  0
  6 15  2  0  0  0
  7 17  1  0  0  0
  8  9  2  0  0  0
  8 23  1  0  0  0
  9 10  1  0  0  0
  9 24  1  0  0  0
 10 11  2  0  0  0
 10 25  1  0  0  0
 11 26  1  0  0  0
 12 13  1  0  0  0
 12 27  1  0  0  0
 12 28  1  0  0  0
 13 14  1  0  0  0
 13 29  1  0  0  0
 13 30  1  0  0  0
 14 31  1  0  0  0
 14 32  1  0  0  0
 15 16  1  0  0  0
 15 19  1  0  0  0
 16 17  2  0  0  0
 17 33  1  0  0  0
 19 20  2  0  0  0
 19 21  1  0  0  0
 21 34  1  0  0  0
 21 35  1  0  0  0
M  END
>  <Name>
Ro14-7181

>  <Family>
A.24

>  <IC50_uM>
>1

>  <set>
1

$$$$
Ro16-4234
  Cerius2 12180215283D 1   1.00000                          
 Structure written by MMmdl.
 35 38  0  0  0  0  0  0  0  0999 V2000
    0.2641    2.0999    0.0255 C   0  0  0  0  0  0
   -0.0032    0.7415    0.2615 C   0  0  0  0  0  0
    1.0684   -0.2784    0.2253 C   0  0  0  0  0  0
    2.2017   -0.0793    0.9735 N   0  0  0  0  0  0
    2.5246    1.0697    1.8152 C   0  0  0  0  0  0
    2.6114    2.2785    0.9400 C   0  0  0  0  0  0
    1.5766    2.6388    0.0798 N   0  0  0  0  0  0
   -0.8027    2.9908   -0.2106 C   0  0  0  0  0  0
   -2.1226    2.5462   -0.1613 C   0  0  0  0  0  0
   -2.3921    1.2150    0.1345 C   0  0  0  0  0  0
   -1.3429    0.3126    0.3418 C   0  0  0  0  0  0
    3.1357   -1.1754    1.1663 C   0  0  0  0  0  0
    3.7446   -0.8861    2.5216 C   0  0  0  0  0  0
    3.8276    0.6331    2.4998 C   0  0  0  0  0  0
    3.5270    3.3277    0.8291 C   0  0  0  0  0  0
    3.1690    4.1746   -0.2095 N   0  0  0  0  0  0
    2.0094    3.7367   -0.6253 C   0  0  0  0  0  0
    0.9211   -1.2635   -0.4934 O   0  0  0  0  0  0
    4.7074    3.6463    1.6378 C   0  0  0  0  0  0
    5.1237    2.9805    2.5773 O   0  0  0  0  0  0
    5.2935    4.8310    1.2907 N   0  0  0  0  0  0
    1.7245    1.1862    2.5566 H   0  0  0  0  0  0
   -0.6378    4.0534   -0.3827 H   0  0  0  0  0  0
   -2.9416    3.2430   -0.3263 H   0  0  0  0  0  0
   -3.4255    0.8794    0.1984 H   0  0  0  0  0  0
   -1.7982   -1.3049    0.7642 Cl  0  0  0  0  0  0
    3.8846   -1.1193    0.3683 H   0  0  0  0  0  0
    2.6410   -2.1505    1.1274 H   0  0  0  0  0  0
    4.7152   -1.3687    2.6631 H   0  0  0  0  0  0
    3.0712   -1.2130    3.3230 H   0  0  0  0  0  0
    3.9271    1.0464    3.5075 H   0  0  0  0  0  0
    4.7128    0.9072    1.9142 H   0  0  0  0  0  0
    1.4365    4.1762   -1.4316 H   0  0  0  0  0  0
    4.7901    5.4361    0.6507 H   0  0  0  0  0  0
    5.9963    5.2155    1.9027 H   0  0  0  0  0  0
  1  2  2  0  0  0
  1  7  1  0  0  0
  1  8  1  0  0  0
  2  3  1  0  0  0
  2 11  1  0  0  0
  3  4  1  0  0  0
  3 18  2  0  0  0
  4  5  1  0  0  0
  4 12  1  0  0  0
  5  6  1  0  0  0
  5 14  1  0  0  0
  5 22  1  0  0  0
  6  7  1  0  0  0
  6 15  2  0  0  0
  7 17  1  0  0  0
  8  9  2  0  0  0
  8 23  1  0  0  0
  9 10  1  0  0  0
  9 24  1  0  0  0
 10 11  2  0  0  0
 10 25  1  0  0  0
 11 26  1  0  0  0
 12 13  1  0  0  0
 12 27  1  0  0  0
 12 28  1  0  0  0
 13 14  1  0  0  0
 13 29  1  0  0  0
 13 30  1  0  0  0
 14 31  1  0  0  0
 14 32  1  0  0  0
 15 16  1  0  0  0
 15 19  1  0  0  0
 16 17  2  0  0  0
 17 33  1  0  0  0
 19 20  2  0  0  0
 19 21  1  0  0  0
 21 34  1  0  0  0
 21 35  1  0  0  0
M  END
>  <Name>
Ro16-4234

>  <Family>
A.24

>  <IC50_uM>
3.000000

>  <set>
2

$$$$
Ro14-5974
  Cerius2 12180215283D 1   1.00000                          
 Structure written by MMmdl.
 40 43  0  0  0  0  0  0  0  0999 V2000
    0.2688    2.1214    0.0570 C   0  0  0  0  0  0
    0.0043    0.7594    0.2402 C   0  0  0  0  0  0
    1.0304   -0.3100    0.2947 C   0  0  0  0  0  0
    2.2251   -0.0832    0.9364 N   0  0  0  0  0  0
    2.5689    1.0602    1.7778 C   0  0  0  0  0  0
    2.6327    2.2860    0.9309 C   0  0  0  0  0  0
    1.5757    2.6674    0.1117 N   0  0  0  0  0  0
   -0.8056    3.0081   -0.1712 C   0  0  0  0  0  0
   -2.1237    2.5485   -0.1879 C   0  0  0  0  0  0
   -2.3892    1.2005    0.0102 C   0  0  0  0  0  0
   -1.3327    0.3133    0.2123 C   0  0  0  0  0  0
    3.1436   -1.1945    1.1341 C   0  0  0  0  0  0
    3.8003   -0.8941    2.4640 C   0  0  0  0  0  0
    3.8900    0.6229    2.4282 C   0  0  0  0  0  0
    3.5441    3.3443    0.8319 C   0  0  0  0  0  0
    3.1564    4.2142   -0.1706 N   0  0  0  0  0  0
    1.9908    3.7839   -0.5744 C   0  0  0  0  0  0
    0.7657   -1.3899   -0.2332 O   0  0  0  0  0  0
    4.7273    3.6324    1.6503 C   0  0  0  0  0  0
    5.1238    2.9040    2.5528 O   0  0  0  0  0  0
    5.3144    4.8173    1.3098 O   0  0  0  0  0  0
    1.7898    1.1656    2.5430 H   0  0  0  0  0  0
   -0.6485    4.0782   -0.2950 H   0  0  0  0  0  0
   -2.9424    3.2460   -0.3493 H   0  0  0  0  0  0
   -3.4124    0.8331   -0.0102 H   0  0  0  0  0  0
   -1.5536   -0.7482    0.3260 H   0  0  0  0  0  0
    3.8706   -1.1706    0.3146 H   0  0  0  0  0  0
    2.6368   -2.1641    1.1339 H   0  0  0  0  0  0
    4.7730   -1.3803    2.5769 H   0  0  0  0  0  0
    3.1536   -1.2114    3.2908 H   0  0  0  0  0  0
    4.0169    1.0363    3.4329 H   0  0  0  0  0  0
    4.7605    0.8959    1.8191 H   0  0  0  0  0  0
    1.4025    4.2428   -1.3585 H   0  0  0  0  0  0
    6.4554    5.2010    2.0865 C   0  0  0  0  0  0
    7.7104    4.5505    1.5359 C   0  0  0  0  0  0
    6.5433    6.2896    2.0097 H   0  0  0  0  0  0
    6.3115    4.9644    3.1470 H   0  0  0  0  0  0
    8.5957    4.9000    2.0746 H   0  0  0  0  0  0
    7.6595    3.4604    1.6214 H   0  0  0  0  0  0
    7.8279    4.7811    0.4719 H   0  0  0  0  0  0
  1  2  2  0  0  0
  1  7  1  0  0  0
  1  8  1  0  0  0
  2  3  1  0  0  0
  2 11  1  0  0  0
  3  4  1  0  0  0
  3 18  2  0  0  0
  4  5  1  0  0  0
  4 12  1  0  0  0
  5  6  1  0  0  0
  5 14  1  0  0  0
  5 22  1  0  0  0
  6  7  1  0  0  0
  6 15  2  0  0  0
  7 17  1  0  0  0
  8  9  2  0  0  0
  8 23  1  0  0  0
  9 10  1  0  0  0
  9 24  1  0  0  0
 10 11  2  0  0  0
 10 25  1  0  0  0
 11 26  1  0  0  0
 12 13  1  0  0  0
 12 27  1  0  0  0
 12 28  1  0  0  0
 13 14  1  0  0  0
 13 29  1  0  0  0
 13 30  1  0  0  0
 14 31  1  0  0  0
 14 32  1  0  0  0
 15 16  1  0  0  0
 15 19  1  0  0  0
 16 17  2  0  0  0
 17 33  1  0  0  0
 19 20  2  0  0  0
 19 21  1  0  0  0
 21 34  1  0  0  0
 34 36  1  0  0  0
 34 37  1  0  0  0
 35 34  1  0  0  0
 35 38  1  0  0  0
 35 39  1  0  0  0
 35 40  1  0  0  0
M  END
>  <Name>
Ro14-5974

>  <Family>
A.24

>  <IC50_uM>
0.006400

>  <set>
0

$$$$
Ro15-4941
  Cerius2 12180215283D 1   1.00000                          
 Structure written by MMmdl.
 40 43  0  0  0  0  0  0  0  0999 V2000
    0.2650    2.1016    0.0263 C   0  0  0  0  0  0
   -0.0030    0.7434    0.2642 C   0  0  0  0  0  0
    1.0670   -0.2786    0.2273 C   0  0  0  0  0  0
    2.2039   -0.0811    0.9706 N   0  0  0  0  0  0
    2.5309    1.0669    1.8095 C   0  0  0  0  0  0
    2.6161    2.2777    0.9365 C   0  0  0  0  0  0
    1.5769    2.6429    0.0828 N   0  0  0  0  0  0
   -0.8028    2.9902   -0.2150 C   0  0  0  0  0  0
   -2.1227    2.5457   -0.1652 C   0  0  0  0  0  0
   -2.3925    1.2158    0.1357 C   0  0  0  0  0  0
   -1.3430    0.3151    0.3467 C   0  0  0  0  0  0
    3.1310   -1.1831    1.1665 C   0  0  0  0  0  0
    3.7572   -0.8876    2.5125 C   0  0  0  0  0  0
    3.8382    0.6308    2.4867 C   0  0  0  0  0  0
    3.5409    3.3232    0.8223 C   0  0  0  0  0  0
    3.1682    4.1777   -0.2001 N   0  0  0  0  0  0
    2.0057    3.7471   -0.6125 C   0  0  0  0  0  0
    0.9151   -1.2676   -0.4857 O   0  0  0  0  0  0
    4.7258    3.6140    1.6393 C   0  0  0  0  0  0
    5.1110    2.9009    2.5586 O   0  0  0  0  0  0
    5.3277    4.7841    1.2737 O   0  0  0  0  0  0
    1.7350    1.1837    2.5551 H   0  0  0  0  0  0
   -0.6389    4.0521   -0.3918 H   0  0  0  0  0  0
   -2.9417    3.2418   -0.3331 H   0  0  0  0  0  0
   -3.4259    0.8811    0.2019 H   0  0  0  0  0  0
   -1.7980   -1.2994    0.7815 Cl  0  0  0  0  0  0
    3.8715   -1.1436    0.3599 H   0  0  0  0  0  0
    2.6267   -2.1540    1.1435 H   0  0  0  0  0  0
    4.7309   -1.3673    2.6423 H   0  0  0  0  0  0
    3.0963   -1.2134    3.3246 H   0  0  0  0  0  0
    3.9440    1.0444    3.4934 H   0  0  0  0  0  0
    4.7200    0.9057    1.8965 H   0  0  0  0  0  0
    1.4301    4.1991   -1.4098 H   0  0  0  0  0  0
    6.4727    5.1744    2.0414 C   0  0  0  0  0  0
    7.7243    4.5181    1.4891 C   0  0  0  0  0  0
    6.5603    6.2624    1.9537 H   0  0  0  0  0  0
    6.3358    4.9477    3.1051 H   0  0  0  0  0  0
    8.6124    4.8633    2.0261 H   0  0  0  0  0  0
    7.6669    3.4284    1.5737 H   0  0  0  0  0  0
    7.8425    4.7493    0.4255 H   0  0  0  0  0  0
  1  2  2  0  0  0
  1  7  1  0  0  0
  1  8  1  0  0  0
  2  3  1  0  0  0
  2 11  1  0  0  0
  3  4  1  0  0  0
  3 18  2  0  0  0
  4  5  1  0  0  0
  4 12  1  0  0  0
  5  6  1  0  0  0
  5 14  1  0  0  0
  5 22  1  0  0  0
  6  7  1  0  0  0
  6 15  2  0  0  0
  7 17  1  0  0  0
  8  9  2  0  0  0
  8 23  1  0  0  0
  9 10  1  0  0  0
  9 24  1  0  0  0
 10 11  2  0  0  0
 10 25  1  0  0  0
 11 26  1  0  0  0
 12 13  1  0  0  0
 12 27  1  0  0  0
 12 28  1  0  0  0
 13 14  1  0  0  0
 13 29  1  0  0  0
 13 30  1  0  0  0
 14 31  1  0  0  0
 14 32  1  0  0  0
 15 16  1  0  0  0
 15 19  1  0  0  0
 16 17  2  0  0  0
 17 33  1  0  0  0
 19 20  2  0  0  0
 19 21  1  0  0  0
 21 34  1  0  0  0
 34 36  1  0  0  0
 34 37  1  0  0  0
 35 34  1  0  0  0
 35 38  1  0  0  0
 35 39  1  0  0  0
 35 40  1  0  0  0
M  END
>  <Name>
Ro15-4941

>  <Family>
A.24

>  <IC50_uM>
0.001700

>  <set>
1

$$$$
Ro14-5975
  Cerius2 12180215283D 1   1.00000                          
 Structure written by MMmdl.
 40 43  0  0  0  0  0  0  0  0999 V2000
    0.2684    2.1218    0.0556 C   0  0  0  0  0  0
    0.0041    0.7587    0.2393 C   0  0  0  0  0  0
    1.0319   -0.3085    0.2913 C   0  0  0  0  0  0
    2.2241   -0.0829    0.9367 N   0  0  0  0  0  0
    2.5670    1.0604    1.7791 C   0  0  0  0  0  0
    2.6309    2.2860    0.9317 C   0  0  0  0  0  0
    1.5759    2.6666    0.1104 N   0  0  0  0  0  0
   -0.8050    3.0096   -0.1710 C   0  0  0  0  0  0
   -2.1231    2.5493   -0.1830 C   0  0  0  0  0  0
   -2.3810    1.1995    0.0150 C   0  0  0  0  0  0
   -1.3313    0.3083    0.2137 C   0  0  0  0  0  0
    3.1419   -1.1948    1.1374 C   0  0  0  0  0  0
    3.7967   -0.8927    2.4680 C   0  0  0  0  0  0
    3.8876    0.6239    2.4302 C   0  0  0  0  0  0
    3.5431    3.3437    0.8321 C   0  0  0  0  0  0
    3.1556    4.2126   -0.1718 N   0  0  0  0  0  0
    1.9910    3.7818   -0.5768 C   0  0  0  0  0  0
    0.7668   -1.3842   -0.2431 O   0  0  0  0  0  0
    4.7263    3.6336    1.6497 C   0  0  0  0  0  0
    5.1233    2.9070    2.5533 O   0  0  0  0  0  0
    5.3111    4.8186    1.3071 O   0  0  0  0  0  0
    1.7865    1.1644    2.5434 H   0  0  0  0  0  0
   -0.6482    4.0801   -0.2963 H   0  0  0  0  0  0
   -2.9403    3.2495   -0.3410 H   0  0  0  0  0  0
   -4.0024    0.6304    0.0011 Cl  0  0  0  0  0  0
   -1.5462   -0.7537    0.3288 H   0  0  0  0  0  0
    3.8699   -1.1725    0.3189 H   0  0  0  0  0  0
    2.6350   -2.1643    1.1374 H   0  0  0  0  0  0
    4.7692   -1.3788    2.5831 H   0  0  0  0  0  0
    3.1490   -1.2080    3.2949 H   0  0  0  0  0  0
    4.0133    1.0384    3.4345 H   0  0  0  0  0  0
    4.7582    0.8957    1.8206 H   0  0  0  0  0  0
    1.4039    4.2398   -1.3625 H   0  0  0  0  0  0
    6.4553    5.2034    2.0780 C   0  0  0  0  0  0
    7.7069    4.5468    1.5260 C   0  0  0  0  0  0
    6.5453    6.2915    1.9945 H   0  0  0  0  0  0
    6.3147    4.9737    3.1405 H   0  0  0  0  0  0
    8.5951    4.8920    2.0623 H   0  0  0  0  0  0
    7.6501    3.4572    1.6115 H   0  0  0  0  0  0
    7.8243    4.7765    0.4619 H   0  0  0  0  0  0
  1  2  2  0  0  0
  1  7  1  0  0  0
  1  8  1  0  0  0
  2  3  1  0  0  0
  2 11  1  0  0  0
  3  4  1  0  0  0
  3 18  2  0  0  0
  4  5  1  0  0  0
  4 12  1  0  0  0
  5  6  1  0  0  0
  5 14  1  0  0  0
  5 22  1  0  0  0
  6  7  1  0  0  0
  6 15  2  0  0  0
  7 17  1  0  0  0
  8  9  2  0  0  0
  8 23  1  0  0  0
  9 10  1  0  0  0
  9 24  1  0  0  0
 10 11  2  0  0  0
 10 25  1  0  0  0
 11 26  1  0  0  0
 12 13  1  0  0  0
 12 27  1  0  0  0
 12 28  1  0  0  0
 13 14  1  0  0  0
 13 29  1  0  0  0
 13 30  1  0  0  0
 14 31  1  0  0  0
 14 32  1  0  0  0
 15 16  1  0  0  0
 15 19  1  0  0  0
 16 17  2  0  0  0
 17 33  1  0  0  0
 19 20  2  0  0  0
 19 21  1  0  0  0
 21 34  1  0  0  0
 34 36  1  0  0  0
 34 37  1  0  0  0
 35 34  1  0  0  0
 35 38  1  0  0  0
 35 39  1  0  0  0
 35 40  1  0  0  0
M  END
>  <Name>
Ro14-5975

>  <Family>
A.24

>  <IC50_uM>
0.062000

>  <set>
1

$$$$
Ro16-3607
  Cerius2 12180215283D 1   1.00000                          
 Structure written by MMmdl.
 50 53  0  0  0  0  0  0  0  0999 V2000
    0.2758    2.0994    0.0199 C   0  0  0  0  0  0
   -0.0019    0.7470    0.2635 C   0  0  0  0  0  0
    1.0519   -0.2960    0.2482 C   0  0  0  0  0  0
    2.2096   -0.0876    0.9595 N   0  0  0  0  0  0
    2.5443    1.0602    1.7979 C   0  0  0  0  0  0
    2.6244    2.2729    0.9276 C   0  0  0  0  0  0
    1.5904    2.6300    0.0663 N   0  0  0  0  0  0
   -0.7866    2.9979   -0.2141 C   0  0  0  0  0  0
   -2.1119    2.5676   -0.1481 C   0  0  0  0  0  0
   -2.3932    1.2398    0.1485 C   0  0  0  0  0  0
   -1.3468    0.3303    0.3282 C   0  0  0  0  0  0
    3.1401   -1.1882    1.1419 C   0  0  0  0  0  0
    3.7874   -0.8943    2.4772 C   0  0  0  0  0  0
    3.8612    0.6245    2.4585 C   0  0  0  0  0  0
    3.5318    3.3353    0.8317 C   0  0  0  0  0  0
    3.1742    4.1720   -0.2115 N   0  0  0  0  0  0
    2.0256    3.7229   -0.6426 C   0  0  0  0  0  0
    0.8761   -1.3100   -0.4256 O   0  0  0  0  0  0
    4.6832    3.6577    1.6851 C   0  0  0  0  0  0
    5.0464    2.9567    2.6211 O   0  0  0  0  0  0
    5.2602    4.8412    1.3345 O   0  0  0  0  0  0
    1.7573    1.1762    2.5530 H   0  0  0  0  0  0
   -0.6120    4.0584   -0.3882 H   0  0  0  0  0  0
   -2.9244    3.2759   -0.2954 H   0  0  0  0  0  0
   -3.4257    0.9144    0.2458 H   0  0  0  0  0  0
   -1.6594   -0.9593    0.6826 O   0  0  0  0  0  0
    3.8668   -1.1486    0.3229 H   0  0  0  0  0  0
    2.6379   -2.1601    1.1286 H   0  0  0  0  0  0
    4.7649   -1.3707    2.5892 H   0  0  0  0  0  0
    3.1412   -1.2276    3.2980 H   0  0  0  0  0  0
    3.9750    1.0289    3.4683 H   0  0  0  0  0  0
    4.7355    0.9113    1.8619 H   0  0  0  0  0  0
    1.4599    4.1551   -1.4581 H   0  0  0  0  0  0
    6.3751    5.3865    2.0820 C   0  0  0  0  0  0
    7.5988    4.4670    2.0092 C   0  0  0  0  0  0
    6.7097    6.7070    1.3719 C   0  0  0  0  0  0
    5.9764    5.6949    3.5295 C   0  0  0  0  0  0
    8.4843    4.9482    2.4386 H   0  0  0  0  0  0
    7.4403    3.5305    2.5524 H   0  0  0  0  0  0
    7.8186    4.1935    0.9711 H   0  0  0  0  0  0
   -3.0728   -1.1324    0.8062 C   0  0  0  0  0  0
    5.8442    7.3799    1.3725 H   0  0  0  0  0  0
    7.5499    7.2241    1.8470 H   0  0  0  0  0  0
    6.9620    6.5302    0.3198 H   0  0  0  0  0  0
    5.0425    6.2673    3.5624 H   0  0  0  0  0  0
    5.8059    4.7827    4.1092 H   0  0  0  0  0  0
    6.7551    6.2681    4.0441 H   0  0  0  0  0  0
   -3.2804   -2.2065    0.7938 H   0  0  0  0  0  0
   -3.4264   -0.7297    1.7609 H   0  0  0  0  0  0
   -3.6184   -0.6697   -0.0240 H   0  0  0  0  0  0
  1  2  2  0  0  0
  1  7  1  0  0  0
  1  8  1  0  0  0
  2  3  1  0  0  0
  2 11  1  0  0  0
  3  4  1  0  0  0
  3 18  2  0  0  0
  4  5  1  0  0  0
  4 12  1  0  0  0
  5  6  1  0  0  0
  5 14  1  0  0  0
  5 22  1  0  0  0
  6  7  1  0  0  0
  6 15  2  0  0  0
  7 17  1  0  0  0
  8  9  2  0  0  0
  8 23  1  0  0  0
  9 10  1  0  0  0
  9 24  1  0  0  0
 10 11  2  0  0  0
 10 25  1  0  0  0
 11 26  1  0  0  0
 12 13  1  0  0  0
 12 27  1  0  0  0
 12 28  1  0  0  0
 13 14  1  0  0  0
 13 29  1  0  0  0
 13 30  1  0  0  0
 14 31  1  0  0  0
 14 32  1  0  0  0
 15 16  1  0  0  0
 15 19  1  0  0  0
 16 17  2  0  0  0
 17 33  1  0  0  0
 19 20  2  0  0  0
 19 21  1  0  0  0
 21 34  1  0  0  0
 34 36  1  0  0  0
 34 37  1  0  0  0
 35 34  1  0  0  0
 35 38  1  0  0  0
 35 39  1  0  0  0
 35 40  1  0  0  0
 36 42  1  0  0  0
 36 43  1  0  0  0
 36 44  1  0  0  0
 37 45  1  0  0  0
 37 46  1  0  0  0
 37 47  1  0  0  0
 41 26  1  0  0  0
 41 48  1  0  0  0
 41 49  1  0  0  0
 41 50  1  0  0  0
M  END
>  <Name>
Ro16-3607

>  <Family>
A.24

>  <IC50_uM>
0.046000

>  <set>
1

$$$$
Ro16-6624
  Cerius2 12180215283D 1   1.00000                          
 Structure written by MMmdl.
 52 55  0  0  0  0  0  0  0  0999 V2000
    0.2749    2.0945    0.0150 C   0  0  0  0  0  0
   -0.0085    0.7403    0.2638 C   0  0  0  0  0  0
    1.0633   -0.2903    0.2323 C   0  0  0  0  0  0
    2.2103   -0.0858    0.9590 N   0  0  0  0  0  0
    2.5367    1.0617    1.7999 C   0  0  0  0  0  0
    2.6212    2.2710    0.9274 C   0  0  0  0  0  0
    1.5910    2.6234    0.0594 N   0  0  0  0  0  0
   -0.7800    2.9991   -0.2175 C   0  0  0  0  0  0
   -2.1038    2.5761   -0.1485 C   0  0  0  0  0  0
   -2.3916    1.2522    0.1582 C   0  0  0  0  0  0
   -1.3603    0.3178    0.3640 C   0  0  0  0  0  0
    3.1530   -1.1771    1.1345 C   0  0  0  0  0  0
    3.7818   -0.8910    2.4805 C   0  0  0  0  0  0
    3.8488    0.6281    2.4718 C   0  0  0  0  0  0
    3.5292    3.3325    0.8316 C   0  0  0  0  0  0
    3.1740    4.1677   -0.2138 N   0  0  0  0  0  0
    2.0277    3.7163   -0.6488 C   0  0  0  0  0  0
    0.8925   -1.3024   -0.4441 O   0  0  0  0  0  0
    4.6793    3.6541    1.6870 C   0  0  0  0  0  0
    5.0396    2.9539    2.6246 O   0  0  0  0  0  0
    5.2607    4.8346    1.3338 O   0  0  0  0  0  0
    1.7428    1.1764    2.5480 H   0  0  0  0  0  0
   -0.6011    4.0569   -0.4006 H   0  0  0  0  0  0
   -2.9129    3.2850   -0.3106 H   0  0  0  0  0  0
   -3.4331    0.9422    0.2284 H   0  0  0  0  0  0
   -1.7680   -1.1037    0.6983 C   0  0  0  0  0  0
    3.8884   -1.1144    0.3247 H   0  0  0  0  0  0
    2.6648   -2.1559    1.1001 H   0  0  0  0  0  0
    4.7599   -1.3638    2.6016 H   0  0  0  0  0  0
    3.1266   -1.2325    3.2907 H   0  0  0  0  0  0
    3.9516    1.0282    3.4845 H   0  0  0  0  0  0
    4.7278    0.9198    1.8850 H   0  0  0  0  0  0
    1.4639    4.1470   -1.4664 H   0  0  0  0  0  0
    6.3832    5.3699    2.0757 C   0  0  0  0  0  0
    7.6010    4.4438    1.9866 C   0  0  0  0  0  0
    6.7210    6.6937    1.3726 C   0  0  0  0  0  0
    5.9977    5.6735    3.5278 C   0  0  0  0  0  0
    8.4942    4.9186    2.4072 H   0  0  0  0  0  0
    7.4430    3.5061    2.5279 H   0  0  0  0  0  0
    7.8080    4.1729    0.9451 H   0  0  0  0  0  0
   -1.9273   -1.9765   -0.5388 C   0  0  0  0  0  0
    5.8590    7.3710    1.3830 H   0  0  0  0  0  0
    7.5666    7.2027    1.8473 H   0  0  0  0  0  0
    6.9668    6.5233    0.3179 H   0  0  0  0  0  0
    5.0745    6.2625    3.5694 H   0  0  0  0  0  0
    5.8126    4.7608    4.1021 H   0  0  0  0  0  0
    6.7891    6.2288    4.0427 H   0  0  0  0  0  0
   -2.2058   -2.9945   -0.2481 H   0  0  0  0  0  0
   -2.7113   -1.5918   -1.1997 H   0  0  0  0  0  0
   -1.0012   -2.0298   -1.1189 H   0  0  0  0  0  0
   -1.0666   -1.5644    1.4017 H   0  0  0  0  0  0
   -2.7231   -1.0733    1.2396 H   0  0  0  0  0  0
  1  2  2  0  0  0
  1  7  1  0  0  0
  1  8  1  0  0  0
  2  3  1  0  0  0
  2 11  1  0  0  0
  3  4  1  0  0  0
  3 18  2  0  0  0
  4  5  1  0  0  0
  4 12  1  0  0  0
  5  6  1  0  0  0
  5 14  1  0  0  0
  5 22  1  0  0  0
  6  7  1  0  0  0
  6 15  2  0  0  0
  7 17  1  0  0  0
  8  9  2  0  0  0
  8 23  1  0  0  0
  9 10  1  0  0  0
  9 24  1  0  0  0
 10 11  2  0  0  0
 10 25  1  0  0  0
 11 26  1  0  0  0
 12 13  1  0  0  0
 12 27  1  0  0  0
 12 28  1  0  0  0
 13 14  1  0  0  0
 13 29  1  0  0  0
 13 30  1  0  0  0
 14 31  1  0  0  0
 14 32  1  0  0  0
 15 16  1  0  0  0
 15 19  1  0  0  0
 16 17  2  0  0  0
 17 33  1  0  0  0
 19 20  2  0  0  0
 19 21  1  0  0  0
 21 34  1  0  0  0
 26 51  1  0  0  0
 26 52  1  0  0  0
 34 36  1  0  0  0
 34 37  1  0  0  0
 35 34  1  0  0  0
 35 38  1  0  0  0
 35 39  1  0  0  0
 35 40  1  0  0  0
 36 42  1  0  0  0
 36 43  1  0  0  0
 36 44  1  0  0  0
 37 45  1  0  0  0
 37 46  1  0  0  0
 37 47  1  0  0  0
 41 26  1  0  0  0
 41 48  1  0  0  0
 41 49  1  0  0  0
 41 50  1  0  0  0
M  END
>  <Name>
Ro16-6624

>  <Family>
A.24

>  <IC50_uM>
0.010000

>  <set>
1

$$$$
Ro16-3774
  Cerius2 12180215283D 1   1.00000                          
 Structure written by MMmdl.
 49 52  0  0  0  0  0  0  0  0999 V2000
    0.2749    2.0989    0.0217 C   0  0  0  0  0  0
   -0.0088    0.7456    0.2700 C   0  0  0  0  0  0
    1.0539   -0.2947    0.2484 C   0  0  0  0  0  0
    2.2140   -0.0855    0.9529 N   0  0  0  0  0  0
    2.5466    1.0601    1.7943 C   0  0  0  0  0  0
    2.6256    2.2736    0.9275 C   0  0  0  0  0  0
    1.5905    2.6302    0.0671 N   0  0  0  0  0  0
   -0.7821    2.9988   -0.2204 C   0  0  0  0  0  0
   -2.1059    2.5707   -0.1694 C   0  0  0  0  0  0
   -2.3934    1.2449    0.1308 C   0  0  0  0  0  0
   -1.3603    0.3216    0.3586 C   0  0  0  0  0  0
    3.1541   -1.1803    1.1256 C   0  0  0  0  0  0
    3.7924   -0.8945    2.4670 C   0  0  0  0  0  0
    3.8627    0.6244    2.4559 C   0  0  0  0  0  0
    3.5318    3.3374    0.8341 C   0  0  0  0  0  0
    3.1736    4.1756   -0.2069 N   0  0  0  0  0  0
    2.0253    3.7256   -0.6390 C   0  0  0  0  0  0
    0.8624   -1.3211   -0.4010 O   0  0  0  0  0  0
    4.6817    3.6576    1.6913 C   0  0  0  0  0  0
    5.0423    2.9524    2.6250 O   0  0  0  0  0  0
    5.2621    4.8420    1.3467 O   0  0  0  0  0  0
    1.7575    1.1719    2.5478 H   0  0  0  0  0  0
   -0.6048    4.0567   -0.4033 H   0  0  0  0  0  0
   -2.9151    3.2759   -0.3457 H   0  0  0  0  0  0
   -3.4338    0.9268    0.1760 H   0  0  0  0  0  0
   -1.7454   -1.1066    0.6498 C   0  0  0  0  0  0
    3.8851   -1.1207    0.3115 H   0  0  0  0  0  0
    2.6641   -2.1580    1.0965 H   0  0  0  0  0  0
    4.7709   -1.3685    2.5821 H   0  0  0  0  0  0
    3.1415   -1.2333    3.2819 H   0  0  0  0  0  0
    3.9735    1.0247    3.4676 H   0  0  0  0  0  0
    4.7373    0.9159    1.8619 H   0  0  0  0  0  0
    1.4600    4.1585   -1.4543 H   0  0  0  0  0  0
    6.3845    5.3724    2.0939 C   0  0  0  0  0  0
    7.6020    4.4457    2.0034 C   0  0  0  0  0  0
    6.7273    6.6995    1.3998 C   0  0  0  0  0  0
    5.9970    5.6691    3.5470 C   0  0  0  0  0  0
    8.4950    4.9185    2.4263 H   0  0  0  0  0  0
    7.4434    3.5067    2.5421 H   0  0  0  0  0  0
    7.8100    4.1782    0.9613 H   0  0  0  0  0  0
    5.8673    7.3794    1.4115 H   0  0  0  0  0  0
    7.5726    7.2036    1.8802 H   0  0  0  0  0  0
    6.9768    6.5353    0.3450 H   0  0  0  0  0  0
    5.0727    6.2560    3.5906 H   0  0  0  0  0  0
    5.8140    4.7537    4.1176 H   0  0  0  0  0  0
    6.7866    6.2241    4.0649 H   0  0  0  0  0  0
   -1.0912   -1.5425    1.4121 H   0  0  0  0  0  0
   -2.7645   -1.1641    1.0486 H   0  0  0  0  0  0
   -1.7044   -1.7061   -0.2643 H   0  0  0  0  0  0
  1  2  2  0  0  0
  1  7  1  0  0  0
  1  8  1  0  0  0
  2  3  1  0  0  0
  2 11  1  0  0  0
  3  4  1  0  0  0
  3 18  2  0  0  0
  4  5  1  0  0  0
  4 12  1  0  0  0
  5  6  1  0  0  0
  5 14  1  0  0  0
  5 22  1  0  0  0
  6  7  1  0  0  0
  6 15  2  0  0  0
  7 17  1  0  0  0
  8  9  2  0  0  0
  8 23  1  0  0  0
  9 10  1  0  0  0
  9 24  1  0  0  0
 10 11  2  0  0  0
 10 25  1  0  0  0
 11 26  1  0  0  0
 12 13  1  0  0  0
 12 27  1  0  0  0
 12 28  1  0  0  0
 13 14  1  0  0  0
 13 29  1  0  0  0
 13 30  1  0  0  0
 14 31  1  0  0  0
 14 32  1  0  0  0
 15 16  1  0  0  0
 15 19  1  0  0  0
 16 17  2  0  0  0
 17 33  1  0  0  0
 19 20  2  0  0  0
 19 21  1  0  0  0
 21 34  1  0  0  0
 26 47  1  0  0  0
 26 48  1  0  0  0
 26 49  1  0  0  0
 34 36  1  0  0  0
 34 37  1  0  0  0
 35 34  1  0  0  0
 35 38  1  0  0  0
 35 39  1  0  0  0
 35 40  1  0  0  0
 36 41  1  0  0  0
 36 42  1  0  0  0
 36 43  1  0  0  0
 37 44  1  0  0  0
 37 45  1  0  0  0
 37 46  1  0  0  0
M  END
>  <Name>
Ro16-3774

>  <Family>
A.24

>  <IC50_uM>
0.003200

>  <set>
0

$$$$
Ro16-0071
  Cerius2 12180215283D 1   1.00000                          
 Structure written by MMmdl.
 46 49  0  0  0  0  0  0  0  0999 V2000
    0.2467    2.1105    0.0918 C   0  0  0  0  0  0
   -0.0102    0.7368    0.1767 C   0  0  0  0  0  0
    1.0232   -0.3260    0.2516 C   0  0  0  0  0  0
    2.1698   -0.1230    0.9828 N   0  0  0  0  0  0
    2.4417    0.9773    1.9000 C   0  0  0  0  0  0
    2.5495    2.2438    1.1236 C   0  0  0  0  0  0
    1.5391    2.6666    0.2669 N   0  0  0  0  0  0
   -0.8213    2.9961   -0.1695 C   0  0  0  0  0  0
   -2.1268    2.5246   -0.3181 C   0  0  0  0  0  0
   -2.3855    1.1649   -0.2204 C   0  0  0  0  0  0
   -1.3344    0.2795    0.0160 C   0  0  0  0  0  0
    3.0902   -1.2327    1.1820 C   0  0  0  0  0  0
    3.6537   -0.9949    2.5665 C   0  0  0  0  0  0
    3.7222    0.5227    2.6165 C   0  0  0  0  0  0
    3.4771    3.2920    1.1116 C   0  0  0  0  0  0
    3.1340    4.2218    0.1498 N   0  0  0  0  0  0
    1.9859    3.8224   -0.3287 C   0  0  0  0  0  0
    0.8071   -1.3821   -0.3421 O   0  0  0  0  0  0
    4.6490    3.5225    1.9618 C   0  0  0  0  0  0
    5.0116    2.7431    2.8330 O   0  0  0  0  0  0
    5.3123    4.6633    1.6128 O   0  0  0  0  0  0
    6.5791    4.9987    2.2375 C   0  0  0  0  0  0
    6.4295    5.2125    3.7479 C   0  0  0  0  0  0
    6.9915    6.3322    1.5943 C   0  0  0  0  0  0
    7.6494    3.9515    1.9095 C   0  0  0  0  0  0
    1.6123    1.0361    2.6159 H   0  0  0  0  0  0
   -0.6717    4.0729   -0.2244 H   0  0  0  0  0  0
   -2.9403    3.2212   -0.5082 H   0  0  0  0  0  0
   -3.3974    0.7876   -0.3463 H   0  0  0  0  0  0
   -1.5484   -0.7890    0.0488 H   0  0  0  0  0  0
    3.8692   -1.1569    0.4154 H   0  0  0  0  0  0
    2.6000   -2.2070    1.0972 H   0  0  0  0  0  0
    4.6242   -1.4750    2.7177 H   0  0  0  0  0  0
    2.9592   -1.3623    3.3312 H   0  0  0  0  0  0
    3.7722    0.8825    3.6467 H   0  0  0  0  0  0
    4.6290    0.8395    2.0883 H   0  0  0  0  0  0
    1.4374    4.3293   -1.1120 H   0  0  0  0  0  0
    7.3384    5.6452    4.1801 H   0  0  0  0  0  0
    6.2346    4.2754    4.2774 H   0  0  0  0  0  0
    5.5880    5.8788    3.9670 H   0  0  0  0  0  0
    7.9557    6.6866    1.9737 H   0  0  0  0  0  0
    6.2410    7.1075    1.7854 H   0  0  0  0  0  0
    7.0630    6.2338    0.5048 H   0  0  0  0  0  0
    8.6390    4.2698    2.2549 H   0  0  0  0  0  0
    7.6986    3.7726    0.8294 H   0  0  0  0  0  0
    7.4339    2.9860    2.3763 H   0  0  0  0  0  0
  1  2  2  0  0  0
  1  7  1  0  0  0
  1  8  1  0  0  0
  2  3  1  0  0  0
  2 11  1  0  0  0
  3  4  1  0  0  0
  3 18  2  0  0  0
  4  5  1  0  0  0
  4 12  1  0  0  0
  5  6  1  0  0  0
  5 14  1  0  0  0
  5 26  1  0  0  0
  6  7  1  0  0  0
  6 15  2  0  0  0
  7 17  1  0  0  0
  8  9  2  0  0  0
  8 27  1  0  0  0
  9 10  1  0  0  0
  9 28  1  0  0  0
 10 11  2  0  0  0
 10 29  1  0  0  0
 11 30  1  0  0  0
 12 13  1  0  0  0
 12 31  1  0  0  0
 12 32  1  0  0  0
 13 14  1  0  0  0
 13 33  1  0  0  0
 13 34  1  0  0  0
 14 35  1  0  0  0
 14 36  1  0  0  0
 15 16  1  0  0  0
 15 19  1  0  0  0
 16 17  2  0  0  0
 17 37  1  0  0  0
 19 20  2  0  0  0
 19 21  1  0  0  0
 21 22  1  0  0  0
 22 23  1  0  0  0
 22 24  1  0  0  0
 22 25  1  0  0  0
 23 38  1  0  0  0
 23 39  1  0  0  0
 23 40  1  0  0  0
 24 41  1  0  0  0
 24 42  1  0  0  0
 24 43  1  0  0  0
 25 44  1  0  0  0
 25 45  1  0  0  0
 25 46  1  0  0  0
M  END
>  <Name>
Ro16-0071

>  <Family>
A.24

>  <IC50_uM>
0.003200

>  <set>
1

$$$$
Ro16-5824
  Cerius2 12180215283D 1   1.00000                          
 Structure written by MMmdl.
 50 53  0  0  0  0  0  0  0  0999 V2000
    0.2792    2.0875    0.0016 C   0  0  0  0  0  0
   -0.0107    0.7433    0.2909 C   0  0  0  0  0  0
    1.0543   -0.2868    0.2393 C   0  0  0  0  0  0
    2.2036   -0.0907    0.9646 N   0  0  0  0  0  0
    2.5402    1.0563    1.8033 C   0  0  0  0  0  0
    2.6226    2.2659    0.9271 C   0  0  0  0  0  0
    1.5984    2.6113    0.0472 N   0  0  0  0  0  0
   -0.7726    2.9878   -0.2575 C   0  0  0  0  0  0
   -2.0983    2.5722   -0.1652 C   0  0  0  0  0  0
   -2.3893    1.2616    0.1980 C   0  0  0  0  0  0
   -1.3592    0.3341    0.4175 C   0  0  0  0  0  0
    3.1492   -1.1814    1.1220 C   0  0  0  0  0  0
    3.7942   -0.9008    2.4614 C   0  0  0  0  0  0
    3.8580    0.6193    2.4625 C   0  0  0  0  0  0
    3.5233    3.3350    0.8390 C   0  0  0  0  0  0
    3.1802    4.1568   -0.2212 N   0  0  0  0  0  0
    2.0442    3.6943   -0.6704 C   0  0  0  0  0  0
    0.8937   -1.2682   -0.4831 O   0  0  0  0  0  0
    4.6544    3.6782    1.7127 C   0  0  0  0  0  0
    5.0057    2.9927    2.6644 O   0  0  0  0  0  0
    5.2229    4.8661    1.3613 O   0  0  0  0  0  0
    1.7528    1.1753    2.5574 H   0  0  0  0  0  0
   -0.5906    4.0393   -0.4731 H   0  0  0  0  0  0
   -2.9062    3.2802   -0.3371 H   0  0  0  0  0  0
   -3.4315    0.9674    0.3121 H   0  0  0  0  0  0
   -1.8646   -1.2986    0.9759 S   0  0  0  0  0  0
    3.8747   -1.1147    0.3038 H   0  0  0  0  0  0
    2.6597   -2.1594    1.0882 H   0  0  0  0  0  0
    4.7754   -1.3711    2.5685 H   0  0  0  0  0  0
    3.1498   -1.2494    3.2776 H   0  0  0  0  0  0
    3.9656    1.0113    3.4779 H   0  0  0  0  0  0
    4.7326    0.9204    1.8736 H   0  0  0  0  0  0
    1.4933    4.1123   -1.5029 H   0  0  0  0  0  0
    6.3003    5.4487    2.1357 C   0  0  0  0  0  0
    7.5445    4.5549    2.1231 C   0  0  0  0  0  0
    6.6315    6.7627    1.4120 C   0  0  0  0  0  0
    5.8436    5.7767    3.5613 C   0  0  0  0  0  0
    8.4048    5.0643    2.5708 H   0  0  0  0  0  0
    7.3873    3.6268    2.6807 H   0  0  0  0  0  0
    7.8045    4.2654    1.0988 H   0  0  0  0  0  0
   -3.6718   -1.1884    1.0749 C   0  0  0  0  0  0
    5.7497    7.4125    1.3610 H   0  0  0  0  0  0
    7.4374    7.3113    1.9111 H   0  0  0  0  0  0
    6.9334    6.5710    0.3754 H   0  0  0  0  0  0
    4.9009    6.3354    3.5488 H   0  0  0  0  0  0
    5.6641    4.8725    4.1508 H   0  0  0  0  0  0
    6.5941    6.3714    4.0934 H   0  0  0  0  0  0
   -4.0740   -2.1660    1.3527 H   0  0  0  0  0  0
   -3.9695   -0.4622    1.8362 H   0  0  0  0  0  0
   -4.0999   -0.8962    0.1128 H   0  0  0  0  0  0
  1  2  2  0  0  0
  1  7  1  0  0  0
  1  8  1  0  0  0
  2  3  1  0  0  0
  2 11  1  0  0  0
  3  4  1  0  0  0
  3 18  2  0  0  0
  4  5  1  0  0  0
  4 12  1  0  0  0
  5  6  1  0  0  0
  5 14  1  0  0  0
  5 22  1  0  0  0
  6  7  1  0  0  0
  6 15  2  0  0  0
  7 17  1  0  0  0
  8  9  2  0  0  0
  8 23  1  0  0  0
  9 10  1  0  0  0
  9 24  1  0  0  0
 10 11  2  0  0  0
 10 25  1  0  0  0
 11 26  1  0  0  0
 12 13  1  0  0  0
 12 27  1  0  0  0
 12 28  1  0  0  0
 13 14  1  0  0  0
 13 29  1  0  0  0
 13 30  1  0  0  0
 14 31  1  0  0  0
 14 32  1  0  0  0
 15 16  1  0  0  0
 15 19  1  0  0  0
 16 17  2  0  0  0
 17 33  1  0  0  0
 19 20  2  0  0  0
 19 21  1  0  0  0
 21 34  1  0  0  0
 34 36  1  0  0  0
 34 37  1  0  0  0
 35 34  1  0  0  0
 35 38  1  0  0  0
 35 39  1  0  0  0
 35 40  1  0  0  0
 36 42  1  0  0  0
 36 43  1  0  0  0
 36 44  1  0  0  0
 37 45  1  0  0  0
 37 46  1  0  0  0
 37 47  1  0  0  0
 41 26  1  0  0  0
 41 48  1  0  0  0
 41 49  1  0  0  0
 41 50  1  0  0  0
M  END
>  <Name>
Ro16-5824

>  <Family>
A.24

>  <IC50_uM>
0.003400

>  <set>
0

$$$$
Ro16-8912
  Cerius2 12180215283D 1   1.00000                          
 Structure written by MMmdl.
 46 49  0  0  0  0  0  0  0  0999 V2000
    0.2822    2.1026    0.0078 C   0  0  0  0  0  0
    0.0008    0.7543    0.2450 C   0  0  0  0  0  0
    1.0324   -0.3007    0.2698 C   0  0  0  0  0  0
    2.1856   -0.0961    0.9916 N   0  0  0  0  0  0
    2.5391    1.0684    1.8088 C   0  0  0  0  0  0
    2.6232    2.2742    0.9221 C   0  0  0  0  0  0
    1.5983    2.6248    0.0463 N   0  0  0  0  0  0
   -0.7787    3.0038   -0.2124 C   0  0  0  0  0  0
   -2.1041    2.5707   -0.1326 C   0  0  0  0  0  0
   -2.3864    1.2343    0.1309 C   0  0  0  0  0  0
   -1.3373    0.3341    0.2903 C   0  0  0  0  0  0
    3.1543   -1.1704    1.1342 C   0  0  0  0  0  0
    3.8406   -0.8836    2.4453 C   0  0  0  0  0  0
    3.8627    0.6387    2.4750 C   0  0  0  0  0  0
    3.4992    3.3638    0.8560 C   0  0  0  0  0  0
    3.1867    4.1699   -0.2258 N   0  0  0  0  0  0
    2.0446    3.7080   -0.6739 C   0  0  0  0  0  0
    0.8358   -1.3338   -0.3718 O   0  0  0  0  0  0
   -1.6445   -0.9569    0.4950 F   0  0  0  0  0  0
    4.5612    3.7729    1.7844 C   0  0  0  0  0  0
    4.8924    3.1125    2.7614 O   0  0  0  0  0  0
    5.1913    4.8899    1.3340 O   0  0  0  0  0  0
    6.4426    5.3559    1.8990 C   0  0  0  0  0  0
    6.3135    5.6872    3.3876 C   0  0  0  0  0  0
    6.7516    6.6445    1.1237 C   0  0  0  0  0  0
    7.5625    4.3427    1.6425 C   0  0  0  0  0  0
    1.7613    1.2095    2.5702 H   0  0  0  0  0  0
   -0.6033    4.0633   -0.3978 H   0  0  0  0  0  0
   -2.9166    3.2821   -0.2621 H   0  0  0  0  0  0
   -3.4141    0.8895    0.1943 H   0  0  0  0  0  0
    3.8513   -1.0927    0.2958 H   0  0  0  0  0  0
    2.6783   -2.1543    1.1094 H   0  0  0  0  0  0
    4.8402   -1.3224    2.5015 H   0  0  0  0  0  0
    3.2465   -1.2712    3.2791 H   0  0  0  0  0  0
    3.9474    0.9973    3.5051 H   0  0  0  0  0  0
    4.7423    0.9834    1.9161 H   0  0  0  0  0  0
    1.4817    4.1180   -1.5057 H   0  0  0  0  0  0
    7.1874    6.2426    3.7441 H   0  0  0  0  0  0
    6.2364    4.7796    3.9935 H   0  0  0  0  0  0
    5.4136    6.2790    3.5840 H   0  0  0  0  0  0
    7.7290    7.0609    1.3924 H   0  0  0  0  0  0
    5.9896    7.4106    1.3125 H   0  0  0  0  0  0
    6.7376    6.4602    0.0422 H   0  0  0  0  0  0
    8.5315    4.7514    1.9494 H   0  0  0  0  0  0
    7.6148    4.0729    0.5818 H   0  0  0  0  0  0
    7.3969    3.4131    2.1964 H   0  0  0  0  0  0
  1  2  2  0  0  0
  1  7  1  0  0  0
  1  8  1  0  0  0
  2  3  1  0  0  0
  2 11  1  0  0  0
  3  4  1  0  0  0
  3 18  2  0  0  0
  4  5  1  0  0  0
  4 12  1  0  0  0
  5  6  1  0  0  0
  5 14  1  0  0  0
  5 27  1  0  0  0
  6  7  1  0  0  0
  6 15  2  0  0  0
  7 17  1  0  0  0
  8  9  2  0  0  0
  8 28  1  0  0  0
  9 10  1  0  0  0
  9 29  1  0  0  0
 10 11  2  0  0  0
 10 30  1  0  0  0
 11 19  1  0  0  0
 12 13  1  0  0  0
 12 31  1  0  0  0
 12 32  1  0  0  0
 13 14  1  0  0  0
 13 33  1  0  0  0
 13 34  1  0  0  0
 14 35  1  0  0  0
 14 36  1  0  0  0
 15 16  1  0  0  0
 15 20  1  0  0  0
 16 17  2  0  0  0
 17 37  1  0  0  0
 20 21  2  0  0  0
 20 22  1  0  0  0
 22 23  1  0  0  0
 23 24  1  0  0  0
 23 25  1  0  0  0
 23 26  1  0  0  0
 24 38  1  0  0  0
 24 39  1  0  0  0
 24 40  1  0  0  0
 25 41  1  0  0  0
 25 42  1  0  0  0
 25 43  1  0  0  0
 26 44  1  0  0  0
 26 45  1  0  0  0
 26 46  1  0  0  0
M  END
>  <Name>
Ro16-8912

>  <Family>
A.24

>  <IC50_uM>
0.006200

>  <set>
0

$$$$
Ro16-4261
  Cerius2 12180215283D 1   1.00000                          
 Structure written by MMmdl.
 46 49  0  0  0  0  0  0  0  0999 V2000
    0.2475    2.1269    0.0520 C   0  0  0  0  0  0
    0.0004    0.7581    0.2335 C   0  0  0  0  0  0
    1.0497   -0.2886    0.2807 C   0  0  0  0  0  0
    2.2045   -0.0620    0.9859 N   0  0  0  0  0  0
    2.5147    1.0945    1.8264 C   0  0  0  0  0  0
    2.5952    2.3137    0.9670 C   0  0  0  0  0  0
    1.5479    2.6897    0.1299 N   0  0  0  0  0  0
   -0.8366    2.9959   -0.1945 C   0  0  0  0  0  0
   -2.1458    2.5122   -0.2167 C   0  0  0  0  0  0
   -2.3789    1.1619   -0.0110 C   0  0  0  0  0  0
   -1.3252    0.2845    0.2014 C   0  0  0  0  0  0
    3.1752   -1.1320    1.1682 C   0  0  0  0  0  0
    3.7918   -0.8355    2.5171 C   0  0  0  0  0  0
    3.8252    0.6834    2.5157 C   0  0  0  0  0  0
    3.5160    3.3627    0.8632 C   0  0  0  0  0  0
    3.1515    4.2216   -0.1604 N   0  0  0  0  0  0
    1.9726    3.8064   -0.5540 C   0  0  0  0  0  0
    0.8413   -1.3495   -0.3126 O   0  0  0  0  0  0
   -3.6347    0.6958   -0.0347 F   0  0  0  0  0  0
    4.7051    3.6621    1.6704 C   0  0  0  0  0  0
    5.0808    2.9424    2.5901 O   0  0  0  0  0  0
    5.3712    4.7598    1.2131 O   0  0  0  0  0  0
    6.6464    5.1690    1.7810 C   0  0  0  0  0  0
    7.7127    4.0874    1.5760 C   0  0  0  0  0  0
    6.4997    5.5629    3.2547 C   0  0  0  0  0  0
    7.0575    6.4141    0.9794 C   0  0  0  0  0  0
    1.7130    1.2025    2.5671 H   0  0  0  0  0  0
   -0.6934    4.0676   -0.3278 H   0  0  0  0  0  0
   -2.9804    3.1873   -0.3867 H   0  0  0  0  0  0
   -1.5435   -0.7740    0.3238 H   0  0  0  0  0  0
    3.9120   -1.0501    0.3615 H   0  0  0  0  0  0
    2.7116   -2.1217    1.1278 H   0  0  0  0  0  0
    4.7803   -1.2852    2.6405 H   0  0  0  0  0  0
    3.1418   -1.1941    3.3244 H   0  0  0  0  0  0
    3.9003    1.0766    3.5319 H   0  0  0  0  0  0
    4.7089    0.9999    1.9502 H   0  0  0  0  0  0
    1.3790    4.2666   -1.3349 H   0  0  0  0  0  0
    8.7085    4.4488    1.8542 H   0  0  0  0  0  0
    7.7392    3.7621    0.5298 H   0  0  0  0  0  0
    7.5090    3.1956    2.1760 H   0  0  0  0  0  0
    7.4241    6.0030    3.6441 H   0  0  0  0  0  0
    6.2536    4.7026    3.8842 H   0  0  0  0  0  0
    5.6885    6.2880    3.3849 H   0  0  0  0  0  0
    8.0229    6.8102    1.3116 H   0  0  0  0  0  0
    6.3094    7.2084    1.0764 H   0  0  0  0  0  0
    7.1270    6.1835   -0.0903 H   0  0  0  0  0  0
  1  2  2  0  0  0
  1  7  1  0  0  0
  1  8  1  0  0  0
  2  3  1  0  0  0
  2 11  1  0  0  0
  3  4  1  0  0  0
  3 18  2  0  0  0
  4  5  1  0  0  0
  4 12  1  0  0  0
  5  6  1  0  0  0
  5 14  1  0  0  0
  5 27  1  0  0  0
  6  7  1  0  0  0
  6 15  2  0  0  0
  7 17  1  0  0  0
  8  9  2  0  0  0
  8 28  1  0  0  0
  9 10  1  0  0  0
  9 29  1  0  0  0
 10 11  2  0  0  0
 10 19  1  0  0  0
 11 30  1  0  0  0
 12 13  1  0  0  0
 12 31  1  0  0  0
 12 32  1  0  0  0
 13 14  1  0  0  0
 13 33  1  0  0  0
 13 34  1  0  0  0
 14 35  1  0  0  0
 14 36  1  0  0  0
 15 16  1  0  0  0
 15 20  1  0  0  0
 16 17  2  0  0  0
 17 37  1  0  0  0
 20 21  2  0  0  0
 20 22  1  0  0  0
 22 23  1  0  0  0
 23 24  1  0  0  0
 23 25  1  0  0  0
 23 26  1  0  0  0
 24 38  1  0  0  0
 24 39  1  0  0  0
 24 40  1  0  0  0
 25 41  1  0  0  0
 25 42  1  0  0  0
 25 43  1  0  0  0
 26 44  1  0  0  0
 26 45  1  0  0  0
 26 46  1  0  0  0
M  END
>  <Name>
Ro16-4261

>  <Family>
A.24

>  <IC50_uM>
0.007700

>  <set>
0

$$$$
Ro16-0075
  Cerius2 12180215283D 1   1.00000                          
 Structure written by MMmdl.
 46 49  0  0  0  0  0  0  0  0999 V2000
    0.2641    2.0962    0.0122 C   0  0  0  0  0  0
   -0.0062    0.7433    0.2728 C   0  0  0  0  0  0
    1.0646   -0.2776    0.2505 C   0  0  0  0  0  0
    2.2035   -0.0675    0.9877 N   0  0  0  0  0  0
    2.5239    1.0838    1.8266 C   0  0  0  0  0  0
    2.5991    2.2965    0.9539 C   0  0  0  0  0  0
    1.5737    2.6397    0.0751 N   0  0  0  0  0  0
   -0.8006    2.9819   -0.2538 C   0  0  0  0  0  0
   -2.1207    2.5390   -0.2090 C   0  0  0  0  0  0
   -2.3935    1.2152    0.1150 C   0  0  0  0  0  0
   -1.3468    0.3174    0.3518 C   0  0  0  0  0  0
    3.1487   -1.1566    1.1680 C   0  0  0  0  0  0
    3.7807   -0.8617    2.5108 C   0  0  0  0  0  0
    3.8402    0.6581    2.4957 C   0  0  0  0  0  0
    3.4962    3.3691    0.8667 C   0  0  0  0  0  0
    3.1422    4.1993   -0.1830 N   0  0  0  0  0  0
    2.0083    3.7330   -0.6331 C   0  0  0  0  0  0
    0.9140   -1.2738   -0.4525 O   0  0  0  0  0  0
   -1.8056   -1.2896    0.8093 Cl  0  0  0  0  0  0
    4.6398    3.7029    1.7273 C   0  0  0  0  0  0
    5.0017    3.0101    2.6696 O   0  0  0  0  0  0
    5.2138    4.8859    1.3705 O   0  0  0  0  0  0
    6.3470    5.4228    2.0950 C   0  0  0  0  0  0
    5.9970    5.7081    3.5595 C   0  0  0  0  0  0
    6.6585    6.7561    1.3981 C   0  0  0  0  0  0
    7.5670    4.5047    1.9675 C   0  0  0  0  0  0
    1.7299    1.1941    2.5756 H   0  0  0  0  0  0
   -0.6340    4.0404   -0.4470 H   0  0  0  0  0  0
   -2.9377    3.2323   -0.3982 H   0  0  0  0  0  0
   -3.4275    0.8822    0.1762 H   0  0  0  0  0  0
    3.8821   -1.0977    0.3559 H   0  0  0  0  0  0
    2.6601   -2.1355    1.1417 H   0  0  0  0  0  0
    4.7619   -1.3288    2.6310 H   0  0  0  0  0  0
    3.1294   -1.2019    3.3248 H   0  0  0  0  0  0
    3.9433    1.0617    3.5071 H   0  0  0  0  0  0
    4.7157    0.9521    1.9038 H   0  0  0  0  0  0
    1.4549    4.1521   -1.4635 H   0  0  0  0  0  0
    6.7936    6.2727    4.0561 H   0  0  0  0  0  0
    5.8467    4.7880    4.1321 H   0  0  0  0  0  0
    5.0657    6.2806    3.6332 H   0  0  0  0  0  0
    7.5118    7.2660    1.8573 H   0  0  0  0  0  0
    5.7923    7.4271    1.4368 H   0  0  0  0  0  0
    6.8792    6.5988    0.3358 H   0  0  0  0  0  0
    8.4652    4.9755    2.3814 H   0  0  0  0  0  0
    7.7570    4.2539    0.9178 H   0  0  0  0  0  0
    7.4212    3.5564    2.4936 H   0  0  0  0  0  0
  1  2  2  0  0  0
  1  7  1  0  0  0
  1  8  1  0  0  0
  2  3  1  0  0  0
  2 11  1  0  0  0
  3  4  1  0  0  0
  3 18  2  0  0  0
  4  5  1  0  0  0
  4 12  1  0  0  0
  5  6  1  0  0  0
  5 14  1  0  0  0
  5 27  1  0  0  0
  6  7  1  0  0  0
  6 15  2  0  0  0
  7 17  1  0  0  0
  8  9  2  0  0  0
  8 28  1  0  0  0
  9 10  1  0  0  0
  9 29  1  0  0  0
 10 11  2  0  0  0
 10 30  1  0  0  0
 11 19  1  0  0  0
 12 13  1  0  0  0
 12 31  1  0  0  0
 12 32  1  0  0  0
 13 14  1  0  0  0
 13 33  1  0  0  0
 13 34  1  0  0  0
 14 35  1  0  0  0
 14 36  1  0  0  0
 15 16  1  0  0  0
 15 20  1  0  0  0
 16 17  2  0  0  0
 17 37  1  0  0  0
 20 21  2  0  0  0
 20 22  1  0  0  0
 22 23  1  0  0  0
 23 24  1  0  0  0
 23 25  1  0  0  0
 23 26  1  0  0  0
 24 38  1  0  0  0
 24 39  1  0  0  0
 24 40  1  0  0  0
 25 41  1  0  0  0
 25 42  1  0  0  0
 25 43  1  0  0  0
 26 44  1  0  0  0
 26 45  1  0  0  0
 26 46  1  0  0  0
M  END
>  <Name>
Ro16-0075

>  <Family>
A.24

>  <IC50_uM>
0.002500

>  <set>
0

$$$$
Ro16-6127
  Cerius2 12180215283D 1   1.00000                          
 Structure written by MMmdl.
 46 49  0  0  0  0  0  0  0  0999 V2000
    0.2611    2.0988    0.0095 C   0  0  0  0  0  0
   -0.0076    0.7441    0.2759 C   0  0  0  0  0  0
    1.0670   -0.2713    0.2472 C   0  0  0  0  0  0
    2.2007   -0.0637    0.9911 N   0  0  0  0  0  0
    2.5191    1.0880    1.8298 C   0  0  0  0  0  0
    2.5962    2.2976    0.9531 C   0  0  0  0  0  0
    1.5722    2.6424    0.0731 N   0  0  0  0  0  0
   -0.8043    2.9824   -0.2585 C   0  0  0  0  0  0
   -2.1215    2.5330   -0.2069 C   0  0  0  0  0  0
   -2.3824    1.2096    0.1219 C   0  0  0  0  0  0
   -1.3442    0.3076    0.3623 C   0  0  0  0  0  0
    3.1501   -1.1499    1.1689 C   0  0  0  0  0  0
    3.7790   -0.8561    2.5132 C   0  0  0  0  0  0
    3.8331    0.6641    2.5047 C   0  0  0  0  0  0
    3.4995    3.3634    0.8621 C   0  0  0  0  0  0
    3.1473    4.1956   -0.1861 N   0  0  0  0  0  0
    2.0080    3.7370   -0.6323 C   0  0  0  0  0  0
    0.9209   -1.2587   -0.4680 O   0  0  0  0  0  0
   -1.7803   -1.3015    0.8352 Cl  0  0  0  0  0  0
    4.6415    3.6919    1.7256 C   0  0  0  0  0  0
    4.9971    2.9928    2.6657 O   0  0  0  0  0  0
    5.2150    4.8764    1.3764 O   0  0  0  0  0  0
    6.3092    5.4385    2.1404 C   0  0  0  0  0  0
    5.8732    5.7660    3.5729 C   0  0  0  0  0  0
    6.6500    6.7513    1.4186 C   0  0  0  0  0  0
    7.5425    4.5290    2.1108 C   0  0  0  0  0  0
    1.7227    1.2001    2.5754 H   0  0  0  0  0  0
   -0.6413    4.0408   -0.4575 H   0  0  0  0  0  0
   -2.9500    3.2123   -0.3889 H   0  0  0  0  0  0
   -3.6632    0.8201    0.2076 F   0  0  0  0  0  0
    3.8855   -1.0878    0.3589 H   0  0  0  0  0  0
    2.6637   -2.1298    1.1383 H   0  0  0  0  0  0
    4.7614   -1.3200    2.6328 H   0  0  0  0  0  0
    3.1287   -1.2036    3.3248 H   0  0  0  0  0  0
    3.9280    1.0653    3.5179 H   0  0  0  0  0  0
    4.7122    0.9646    1.9222 H   0  0  0  0  0  0
    1.4531    4.1645   -1.4577 H   0  0  0  0  0  0
    6.6442    6.3343    4.1045 H   0  0  0  0  0  0
    5.6716    4.8622    4.1560 H   0  0  0  0  0  0
    4.9467    6.3514    3.5733 H   0  0  0  0  0  0
    7.4726    7.2840    1.9070 H   0  0  0  0  0  0
    5.7781    7.4151    1.3858 H   0  0  0  0  0  0
    6.9309    6.5603    0.3763 H   0  0  0  0  0  0
    8.4176    5.0310    2.5383 H   0  0  0  0  0  0
    7.7802    4.2281    1.0843 H   0  0  0  0  0  0
    7.3859    3.6074    2.6797 H   0  0  0  0  0  0
  1  2  2  0  0  0
  1  7  1  0  0  0
  1  8  1  0  0  0
  2  3  1  0  0  0
  2 11  1  0  0  0
  3  4  1  0  0  0
  3 18  2  0  0  0
  4  5  1  0  0  0
  4 12  1  0  0  0
  5  6  1  0  0  0
  5 14  1  0  0  0
  5 27  1  0  0  0
  6  7  1  0  0  0
  6 15  2  0  0  0
  7 17  1  0  0  0
  8  9  2  0  0  0
  8 28  1  0  0  0
  9 10  1  0  0  0
  9 29  1  0  0  0
 10 11  2  0  0  0
 10 30  1  0  0  0
 11 19  1  0  0  0
 12 13  1  0  0  0
 12 31  1  0  0  0
 12 32  1  0  0  0
 13 14  1  0  0  0
 13 33  1  0  0  0
 13 34  1  0  0  0
 14 35  1  0  0  0
 14 36  1  0  0  0
 15 16  1  0  0  0
 15 20  1  0  0  0
 16 17  2  0  0  0
 17 37  1  0  0  0
 20 21  2  0  0  0
 20 22  1  0  0  0
 22 23  1  0  0  0
 23 24  1  0  0  0
 23 25  1  0  0  0
 23 26  1  0  0  0
 24 38  1  0  0  0
 24 39  1  0  0  0
 24 40  1  0  0  0
 25 41  1  0  0  0
 25 42  1  0  0  0
 25 43  1  0  0  0
 26 44  1  0  0  0
 26 45  1  0  0  0
 26 46  1  0  0  0
M  END
>  <Name>
Ro16-6127

>  <Family>
A.24

>  <IC50_uM>
0.003100

>  <set>
1

$$$$
Ro16-3058
  Cerius2 12180215283D 1   1.00000                          
 Structure written by MMmdl.
 46 49  0  0  0  0  0  0  0  0999 V2000
    0.2411    2.1310    0.0641 C   0  0  0  0  0  0
    0.0054    0.7584    0.2225 C   0  0  0  0  0  0
    1.0632   -0.2823    0.2691 C   0  0  0  0  0  0
    2.2105   -0.0550    0.9882 N   0  0  0  0  0  0
    2.5050    1.1013    1.8342 C   0  0  0  0  0  0
    2.5896    2.3208    0.9756 C   0  0  0  0  0  0
    1.5367    2.7027    0.1491 N   0  0  0  0  0  0
   -0.8482    2.9939   -0.1742 C   0  0  0  0  0  0
   -2.1548    2.5012   -0.2156 C   0  0  0  0  0  0
   -2.3848    1.1438   -0.0347 C   0  0  0  0  0  0
   -1.3173    0.2750    0.1722 C   0  0  0  0  0  0
    3.1773   -1.1254    1.1912 C   0  0  0  0  0  0
    3.7604   -0.8277    2.5555 C   0  0  0  0  0  0
    3.8037    0.6920    2.5450 C   0  0  0  0  0  0
    3.5206    3.3589    0.8557 C   0  0  0  0  0  0
    3.1406    4.2318   -0.1501 N   0  0  0  0  0  0
    1.9527    3.8279   -0.5259 C   0  0  0  0  0  0
    0.8685   -1.3399   -0.3337 O   0  0  0  0  0  0
   -3.9926    0.5326   -0.0858 Cl  0  0  0  0  0  0
    4.7356    3.6360    1.6306 C   0  0  0  0  0  0
    5.1271    2.9042    2.5336 O   0  0  0  0  0  0
    5.4005    4.7300    1.1635 O   0  0  0  0  0  0
    6.6959    5.1185    1.6979 C   0  0  0  0  0  0
    6.5980    5.4994    3.1789 C   0  0  0  0  0  0
    7.0978    6.3669    0.8967 C   0  0  0  0  0  0
    7.7452    4.0279    1.4532 C   0  0  0  0  0  0
    1.6909    1.2033    2.5623 H   0  0  0  0  0  0
   -0.7145    4.0691   -0.2879 H   0  0  0  0  0  0
   -2.9822    3.1876   -0.3824 H   0  0  0  0  0  0
   -1.5109   -0.7912    0.2775 H   0  0  0  0  0  0
    3.9344   -1.0415    0.4033 H   0  0  0  0  0  0
    2.7162   -2.1157    1.1397 H   0  0  0  0  0  0
    4.7419   -1.2845    2.7079 H   0  0  0  0  0  0
    3.0863   -1.1770    3.3467 H   0  0  0  0  0  0
    3.8671    1.0958    3.5584 H   0  0  0  0  0  0
    4.6962    0.9983    1.9881 H   0  0  0  0  0  0
    1.3474    4.3006   -1.2907 H   0  0  0  0  0  0
    7.5391    5.9253    3.5428 H   0  0  0  0  0  0
    6.3630    4.6356    3.8080 H   0  0  0  0  0  0
    5.7996    6.2321    3.3410 H   0  0  0  0  0  0
    8.0785    6.7468    1.2024 H   0  0  0  0  0  0
    6.3637    7.1696    1.0275 H   0  0  0  0  0  0
    7.1294    6.1487   -0.1772 H   0  0  0  0  0  0
    8.7522    4.3787    1.7037 H   0  0  0  0  0  0
    7.7375    3.7089    0.4048 H   0  0  0  0  0  0
    7.5520    3.1343    2.0542 H   0  0  0  0  0  0
  1  2  2  0  0  0
  1  7  1  0  0  0
  1  8  1  0  0  0
  2  3  1  0  0  0
  2 11  1  0  0  0
  3  4  1  0  0  0
  3 18  2  0  0  0
  4  5  1  0  0  0
  4 12  1  0  0  0
  5  6  1  0  0  0
  5 14  1  0  0  0
  5 27  1  0  0  0
  6  7  1  0  0  0
  6 15  2  0  0  0
  7 17  1  0  0  0
  8  9  2  0  0  0
  8 28  1  0  0  0
  9 10  1  0  0  0
  9 29  1  0  0  0
 10 11  2  0  0  0
 10 19  1  0  0  0
 11 30  1  0  0  0
 12 13  1  0  0  0
 12 31  1  0  0  0
 12 32  1  0  0  0
 13 14  1  0  0  0
 13 33  1  0  0  0
 13 34  1  0  0  0
 14 35  1  0  0  0
 14 36  1  0  0  0
 15 16  1  0  0  0
 15 20  1  0  0  0
 16 17  2  0  0  0
 17 37  1  0  0  0
 20 21  2  0  0  0
 20 22  1  0  0  0
 22 23  1  0  0  0
 23 24  1  0  0  0
 23 25  1  0  0  0
 23 26  1  0  0  0
 24 38  1  0  0  0
 24 39  1  0  0  0
 24 40  1  0  0  0
 25 41  1  0  0  0
 25 42  1  0  0  0
 25 43  1  0  0  0
 26 44  1  0  0  0
 26 45  1  0  0  0
 26 46  1  0  0  0
M  END
>  <Name>
Ro16-3058

>  <Family>
A.24

>  <IC50_uM>
0.090000

>  <set>
0

$$$$
Ro16-6028
  Cerius2 12180215283D 1   1.00000                          
 Structure written by MMmdl.
 46 49  0  0  0  0  0  0  0  0999 V2000
    0.2605    2.0976    0.0112 C   0  0  0  0  0  0
   -0.0026    0.7413    0.2639 C   0  0  0  0  0  0
    1.0790   -0.2695    0.2319 C   0  0  0  0  0  0
    2.2038   -0.0634    0.9906 N   0  0  0  0  0  0
    2.5125    1.0901    1.8301 C   0  0  0  0  0  0
    2.5952    2.2983    0.9521 C   0  0  0  0  0  0
    1.5693    2.6449    0.0751 N   0  0  0  0  0  0
   -0.8083    2.9805   -0.2443 C   0  0  0  0  0  0
   -2.1266    2.5327   -0.1904 C   0  0  0  0  0  0
   -2.3933    1.2057    0.1272 C   0  0  0  0  0  0
   -1.3414    0.3098    0.3492 C   0  0  0  0  0  0
    3.1461   -1.1513    1.1864 C   0  0  0  0  0  0
    3.7597   -0.8518    2.5371 C   0  0  0  0  0  0
    3.8194    0.6682    2.5188 C   0  0  0  0  0  0
    3.5018    3.3606    0.8566 C   0  0  0  0  0  0
    3.1461    4.1967   -0.1872 N   0  0  0  0  0  0
    2.0023    3.7433   -0.6263 C   0  0  0  0  0  0
    0.9471   -1.2542   -0.4903 O   0  0  0  0  0  0
   -1.8447   -1.4602    0.8447 Br  0  0  0  0  0  0
    4.6505    3.6847    1.7120 C   0  0  0  0  0  0
    5.0120    2.9842    2.6487 O   0  0  0  0  0  0
    5.2255    4.8681    1.3594 O   0  0  0  0  0  0
    6.3336    5.4211    2.1103 C   0  0  0  0  0  0
    5.9178    5.7487    3.5481 C   0  0  0  0  0  0
    6.6759    6.7319    1.3868 C   0  0  0  0  0  0
    7.5585    4.5018    2.0632 C   0  0  0  0  0  0
    1.7089    1.2030    2.5679 H   0  0  0  0  0  0
   -0.6457    4.0399   -0.4363 H   0  0  0  0  0  0
   -2.9476    3.2247   -0.3672 H   0  0  0  0  0  0
   -3.4275    0.8734    0.1952 H   0  0  0  0  0  0
    3.8903   -1.0974    0.3841 H   0  0  0  0  0  0
    2.6564   -2.1295    1.1564 H   0  0  0  0  0  0
    4.7389   -1.3186    2.6731 H   0  0  0  0  0  0
    3.0973   -1.1900    3.3428 H   0  0  0  0  0  0
    3.9080    1.0765    3.5296 H   0  0  0  0  0  0
    4.7038    0.9604    1.9402 H   0  0  0  0  0  0
    1.4415    4.1762   -1.4446 H   0  0  0  0  0  0
    6.6966    6.3151    4.0696 H   0  0  0  0  0  0
    5.7231    4.8445    4.1327 H   0  0  0  0  0  0
    4.9921    6.3352    3.5604 H   0  0  0  0  0  0
    7.5107    7.2556    1.8644 H   0  0  0  0  0  0
    5.8099    7.4041    1.3685 H   0  0  0  0  0  0
    6.9397    6.5409    0.3399 H   0  0  0  0  0  0
    8.4416    4.9937    2.4856 H   0  0  0  0  0  0
    7.7831    4.2057    1.0324 H   0  0  0  0  0  0
    7.3993    3.5781    2.6275 H   0  0  0  0  0  0
  1  2  2  0  0  0
  1  7  1  0  0  0
  1  8  1  0  0  0
  2  3  1  0  0  0
  2 11  1  0  0  0
  3  4  1  0  0  0
  3 18  2  0  0  0
  4  5  1  0  0  0
  4 12  1  0  0  0
  5  6  1  0  0  0
  5 14  1  0  0  0
  5 27  1  0  0  0
  6  7  1  0  0  0
  6 15  2  0  0  0
  7 17  1  0  0  0
  8  9  2  0  0  0
  8 28  1  0  0  0
  9 10  1  0  0  0
  9 29  1  0  0  0
 10 11  2  0  0  0
 10 30  1  0  0  0
 11 19  1  0  0  0
 12 13  1  0  0  0
 12 31  1  0  0  0
 12 32  1  0  0  0
 13 14  1  0  0  0
 13 33  1  0  0  0
 13 34  1  0  0  0
 14 35  1  0  0  0
 14 36  1  0  0  0
 15 16  1  0  0  0
 15 20  1  0  0  0
 16 17  2  0  0  0
 17 37  1  0  0  0
 20 21  2  0  0  0
 20 22  1  0  0  0
 22 23  1  0  0  0
 23 24  1  0  0  0
 23 25  1  0  0  0
 23 26  1  0  0  0
 24 38  1  0  0  0
 24 39  1  0  0  0
 24 40  1  0  0  0
 25 41  1  0  0  0
 25 42  1  0  0  0
 25 43  1  0  0  0
 26 44  1  0  0  0
 26 45  1  0  0  0
 26 46  1  0  0  0
M  END
>  <Name>
Ro16-6028

>  <Family>
A.24

>  <IC50_uM>
0.002200

>  <set>
0

$$$$
Ro16-6605
  Cerius2 12180215283D 1   1.00000                          
 Structure written by MMmdl.
 46 49  0  0  0  0  0  0  0  0999 V2000
    0.2625    2.0920    0.0049 C   0  0  0  0  0  0
   -0.0064    0.7399    0.2774 C   0  0  0  0  0  0
    1.0772   -0.2688    0.2334 C   0  0  0  0  0  0
    2.2015   -0.0664    0.9937 N   0  0  0  0  0  0
    2.5120    1.0875    1.8318 C   0  0  0  0  0  0
    2.5950    2.2939    0.9514 C   0  0  0  0  0  0
    1.5735    2.6351    0.0668 N   0  0  0  0  0  0
   -0.8015    2.9777   -0.2608 C   0  0  0  0  0  0
   -2.1219    2.5377   -0.1987 C   0  0  0  0  0  0
   -2.3968    1.2185    0.1448 C   0  0  0  0  0  0
   -1.3485    0.3192    0.3804 C   0  0  0  0  0  0
    3.1559   -1.1467    1.1708 C   0  0  0  0  0  0
    3.7734   -0.8541    2.5206 C   0  0  0  0  0  0
    3.8222    0.6664    2.5158 C   0  0  0  0  0  0
    3.4983    3.3592    0.8593 C   0  0  0  0  0  0
    3.1507    4.1869   -0.1942 N   0  0  0  0  0  0
    2.0116    3.7280   -0.6405 C   0  0  0  0  0  0
    0.9482   -1.2440   -0.5022 O   0  0  0  0  0  0
   -1.9336   -1.6147    0.9955 I   0  0  0  0  0  0
    4.6368    3.6904    1.7262 C   0  0  0  0  0  0
    4.9893    2.9963    2.6713 O   0  0  0  0  0  0
    5.2142    4.8721    1.3726 O   0  0  0  0  0  0
    6.3125    5.4310    2.1333 C   0  0  0  0  0  0
    5.8807    5.7641    3.5654 C   0  0  0  0  0  0
    6.6580    6.7399    1.4078 C   0  0  0  0  0  0
    7.5407    4.5150    2.1026 C   0  0  0  0  0  0
    1.7106    1.2017    2.5716 H   0  0  0  0  0  0
   -0.6338    4.0342   -0.4645 H   0  0  0  0  0  0
   -2.9388    3.2317   -0.3859 H   0  0  0  0  0  0
   -3.4352    0.9020    0.2217 H   0  0  0  0  0  0
    3.8944   -1.0757    0.3646 H   0  0  0  0  0  0
    2.6753   -2.1287    1.1332 H   0  0  0  0  0  0
    4.7571   -1.3143    2.6471 H   0  0  0  0  0  0
    3.1174   -1.2047    3.3261 H   0  0  0  0  0  0
    3.9099    1.0667    3.5300 H   0  0  0  0  0  0
    4.7043    0.9694    1.9392 H   0  0  0  0  0  0
    1.4571    4.1531   -1.4671 H   0  0  0  0  0  0
    6.6542    6.3324    4.0929 H   0  0  0  0  0  0
    5.6785    4.8631    4.1521 H   0  0  0  0  0  0
    4.9558    6.3519    3.5655 H   0  0  0  0  0  0
    7.4846    7.2694    1.8933 H   0  0  0  0  0  0
    5.7895    7.4083    1.3764 H   0  0  0  0  0  0
    6.9355    6.5456    0.3652 H   0  0  0  0  0  0
    8.4188    5.0120    2.5293 H   0  0  0  0  0  0
    7.7758    4.2138    1.0756 H   0  0  0  0  0  0
    7.3795    3.5940    2.6706 H   0  0  0  0  0  0
  1  2  2  0  0  0
  1  7  1  0  0  0
  1  8  1  0  0  0
  2  3  1  0  0  0
  2 11  1  0  0  0
  3  4  1  0  0  0
  3 18  2  0  0  0
  4  5  1  0  0  0
  4 12  1  0  0  0
  5  6  1  0  0  0
  5 14  1  0  0  0
  5 27  1  0  0  0
  6  7  1  0  0  0
  6 15  2  0  0  0
  7 17  1  0  0  0
  8  9  2  0  0  0
  8 28  1  0  0  0
  9 10  1  0  0  0
  9 29  1  0  0  0
 10 11  2  0  0  0
 10 30  1  0  0  0
 11 19  1  0  0  0
 12 13  1  0  0  0
 12 31  1  0  0  0
 12 32  1  0  0  0
 13 14  1  0  0  0
 13 33  1  0  0  0
 13 34  1  0  0  0
 14 35  1  0  0  0
 14 36  1  0  0  0
 15 16  1  0  0  0
 15 20  1  0  0  0
 16 17  2  0  0  0
 17 37  1  0  0  0
 20 21  2  0  0  0
 20 22  1  0  0  0
 22 23  1  0  0  0
 23 24  1  0  0  0
 23 25  1  0  0  0
 23 26  1  0  0  0
 24 38  1  0  0  0
 24 39  1  0  0  0
 24 40  1  0  0  0
 25 41  1  0  0  0
 25 42  1  0  0  0
 25 43  1  0  0  0
 26 44  1  0  0  0
 26 45  1  0  0  0
 26 46  1  0  0  0
M  END
>  <Name>
Ro16-6605

>  <Family>
A.24

>  <IC50_uM>
0.002100

>  <set>
0

$$$$
Ro16-6048
  Cerius2 12180215283D 1   1.00000                          
 Structure written by MMmdl.
 49 52  0  0  0  0  0  0  0  0999 V2000
    0.2625    2.1057    0.0181 C   0  0  0  0  0  0
   -0.0019    0.7502    0.2742 C   0  0  0  0  0  0
    1.0696   -0.2706    0.2555 C   0  0  0  0  0  0
    2.2141   -0.0570    0.9753 N   0  0  0  0  0  0
    2.5253    1.0906    1.8212 C   0  0  0  0  0  0
    2.5996    2.3035    0.9511 C   0  0  0  0  0  0
    1.5702    2.6551    0.0821 N   0  0  0  0  0  0
   -0.8067    2.9814   -0.2509 C   0  0  0  0  0  0
   -2.1224    2.5254   -0.2215 C   0  0  0  0  0  0
   -2.3880    1.1973    0.0901 C   0  0  0  0  0  0
   -1.3394    0.2962    0.3502 C   0  0  0  0  0  0
    3.1579   -1.1463    1.1617 C   0  0  0  0  0  0
    3.7785   -0.8543    2.5104 C   0  0  0  0  0  0
    3.8354    0.6661    2.5025 C   0  0  0  0  0  0
    3.5033    3.3678    0.8609 C   0  0  0  0  0  0
    3.1474    4.2086   -0.1784 N   0  0  0  0  0  0
    2.0022    3.7565   -0.6169 C   0  0  0  0  0  0
    0.8782   -1.2815   -0.4137 O   0  0  0  0  0  0
   -1.6854   -1.1325    0.7110 C   0  0  0  0  0  0
    4.6469    3.6831    1.7246 C   0  0  0  0  0  0
    5.0000    2.9708    2.6558 O   0  0  0  0  0  0
    5.2308    4.8655    1.3852 O   0  0  0  0  0  0
    6.3447    5.3922    2.1453 C   0  0  0  0  0  0
    5.9354    5.6957    3.5908 C   0  0  0  0  0  0
    6.7008    6.7149    1.4495 C   0  0  0  0  0  0
    7.5611    4.4619    2.0787 C   0  0  0  0  0  0
    1.7255    1.1978    2.5640 H   0  0  0  0  0  0
   -0.6488    4.0419   -0.4399 H   0  0  0  0  0  0
   -2.9432    3.2128   -0.4160 H   0  0  0  0  0  0
   -3.4236    0.8581    0.1292 H   0  0  0  0  0  0
    3.8986   -1.0863    0.3564 H   0  0  0  0  0  0
    2.6703   -2.1251    1.1281 H   0  0  0  0  0  0
    4.7602   -1.3187    2.6359 H   0  0  0  0  0  0
    3.1216   -1.2003    3.3177 H   0  0  0  0  0  0
    3.9256    1.0656    3.5169 H   0  0  0  0  0  0
    4.7174    0.9653    1.9238 H   0  0  0  0  0  0
    1.4398    4.1909   -1.4332 H   0  0  0  0  0  0
    6.7259    6.2341    4.1244 H   0  0  0  0  0  0
    5.7220    4.7837    4.1561 H   0  0  0  0  0  0
    5.0223    6.3009    3.6165 H   0  0  0  0  0  0
    7.5342    7.2245    1.9445 H   0  0  0  0  0  0
    5.8391    7.3925    1.4370 H   0  0  0  0  0  0
    6.9734    6.5433    0.4016 H   0  0  0  0  0  0
    8.4502    4.9377    2.5071 H   0  0  0  0  0  0
    7.7803    4.1813    1.0425 H   0  0  0  0  0  0
    7.3942    3.5302    2.6275 H   0  0  0  0  0  0
   -2.9259   -1.2133    1.2848 F   0  0  0  0  0  0
   -1.7358   -1.9716   -0.3551 F   0  0  0  0  0  0
   -0.8516   -1.6856    1.6344 F   0  0  0  0  0  0
  1  2  2  0  0  0
  1  7  1  0  0  0
  1  8  1  0  0  0
  2  3  1  0  0  0
  2 11  1  0  0  0
  3  4  1  0  0  0
  3 18  2  0  0  0
  4  5  1  0  0  0
  4 12  1  0  0  0
  5  6  1  0  0  0
  5 14  1  0  0  0
  5 27  1  0  0  0
  6  7  1  0  0  0
  6 15  2  0  0  0
  7 17  1  0  0  0
  8  9  2  0  0  0
  8 28  1  0  0  0
  9 10  1  0  0  0
  9 29  1  0  0  0
 10 11  2  0  0  0
 10 30  1  0  0  0
 11 19  1  0  0  0
 12 13  1  0  0  0
 12 31  1  0  0  0
 12 32  1  0  0  0
 13 14  1  0  0  0
 13 33  1  0  0  0
 13 34  1  0  0  0
 14 35  1  0  0  0
 14 36  1  0  0  0
 15 16  1  0  0  0
 15 20  1  0  0  0
 16 17  2  0  0  0
 17 37  1  0  0  0
 19 47  1  0  0  0
 19 48  1  0  0  0
 19 49  1  0  0  0
 20 21  2  0  0  0
 20 22  1  0  0  0
 22 23  1  0  0  0
 23 24  1  0  0  0
 23 25  1  0  0  0
 23 26  1  0  0  0
 24 38  1  0  0  0
 24 39  1  0  0  0
 24 40  1  0  0  0
 25 41  1  0  0  0
 25 42  1  0  0  0
 25 43  1  0  0  0
 26 44  1  0  0  0
 26 45  1  0  0  0
 26 46  1  0  0  0
M  END
>  <Name>
Ro16-6048

>  <Family>
A.24

>  <IC50_uM>
0.003300

>  <set>
1

$$$$
Ro16-6950
  Cerius2 12180215283D 1   1.00000                          
 Structure written by MMmdl.
 48 51  0  0  0  0  0  0  0  0999 V2000
    0.3060    2.0535   -0.0206 C   0  0  0  0  0  0
   -0.0630    0.7694    0.4106 C   0  0  0  0  0  0
    0.9209   -0.3359    0.4657 C   0  0  0  0  0  0
    2.1330   -0.1321    1.0698 N   0  0  0  0  0  0
    2.5382    1.0233    1.8761 C   0  0  0  0  0  0
    2.6312    2.2178    0.9793 C   0  0  0  0  0  0
    1.6447    2.5351    0.0414 N   0  0  0  0  0  0
   -0.6964    2.9478   -0.4614 C   0  0  0  0  0  0
   -2.0479    2.6031   -0.4204 C   0  0  0  0  0  0
   -2.4264    1.3680    0.0868 C   0  0  0  0  0  0
   -1.4343    0.4594    0.4836 C   0  0  0  0  0  0
    3.1295   -1.1953    1.0859 C   0  0  0  0  0  0
    4.3929   -0.5170    1.5517 C   0  0  0  0  0  0
    3.8555    0.5390    2.5067 C   0  0  0  0  0  0
    3.4706    3.3385    0.9591 C   0  0  0  0  0  0
    3.2395    4.0815   -0.1854 N   0  0  0  0  0  0
    2.1525    3.5700   -0.7108 C   0  0  0  0  0  0
    0.6344   -1.3953   -0.0946 O   0  0  0  0  0  0
   -1.8752   -0.8215    1.0142 N   0  3  0  0  0  0
   -2.7119   -1.4649    0.3565 O   0  0  0  0  0  0
   -1.4106   -1.1833    2.1115 O   0  5  0  0  0  0
    4.4505    3.8141    1.9476 C   0  0  0  0  0  0
    4.7013    3.2035    2.9811 O   0  0  0  0  0  0
    5.0990    4.9388    1.5319 O   0  0  0  0  0  0
    6.1644    5.5432    2.3168 C   0  0  0  0  0  0
    5.7221    5.8805    3.7464 C   0  0  0  0  0  0
    6.4858    6.8573    1.5891 C   0  0  0  0  0  0
    7.4074    4.6504    2.3004 C   0  0  0  0  0  0
    1.7823    1.2088    2.6478 H   0  0  0  0  0  0
   -0.4567    3.9529   -0.8071 H   0  0  0  0  0  0
   -2.8030    3.3108   -0.7629 H   0  0  0  0  0  0
   -3.4831    1.1174    0.1525 H   0  0  0  0  0  0
    3.2284   -1.6633    0.1023 H   0  0  0  0  0  0
    2.7886   -1.9513    1.8023 H   0  0  0  0  0  0
    4.9086   -0.0364    0.7131 H   0  0  0  0  0  0
    5.0939   -1.2009    2.0368 H   0  0  0  0  0  0
    3.6366    0.0651    3.4722 H   0  0  0  0  0  0
    4.6244    1.2858    2.6808 H   0  0  0  0  0  0
    1.6642    3.9261   -1.6083 H   0  0  0  0  0  0
    6.4699    6.4964    4.2592 H   0  0  0  0  0  0
    5.5749    4.9827    4.3534 H   0  0  0  0  0  0
    4.7678    6.4180    3.7458 H   0  0  0  0  0  0
    7.3163    7.3938    2.0616 H   0  0  0  0  0  0
    5.6104    7.5169    1.5777 H   0  0  0  0  0  0
    6.7423    6.6691    0.5400 H   0  0  0  0  0  0
    8.2549    5.1357    2.7970 H   0  0  0  0  0  0
    7.6995    4.4100    1.2718 H   0  0  0  0  0  0
    7.2260    3.6948    2.8013 H   0  0  0  0  0  0
  1  2  2  0  0  0
  1  7  1  0  0  0
  1  8  1  0  0  0
  2  3  1  0  0  0
  2 11  1  0  0  0
  3  4  1  0  0  0
  3 18  2  0  0  0
  4  5  1  0  0  0
  4 12  1  0  0  0
  5  6  1  0  0  0
  5 14  1  0  0  0
  5 29  1  0  0  0
  6  7  1  0  0  0
  6 15  2  0  0  0
  7 17  1  0  0  0
  8  9  2  0  0  0
  8 30  1  0  0  0
  9 10  1  0  0  0
  9 31  1  0  0  0
 10 11  2  0  0  0
 10 32  1  0  0  0
 11 19  1  0  0  0
 12 13  1  0  0  0
 12 33  1  0  0  0
 12 34  1  0  0  0
 13 14  1  0  0  0
 13 35  1  0  0  0
 13 36  1  0  0  0
 14 37  1  0  0  0
 14 38  1  0  0  0
 15 16  1  0  0  0
 15 22  1  0  0  0
 16 17  2  0  0  0
 17 39  1  0  0  0
 19 20  2  0  0  0
 19 21  1  0  0  0
 22 23  2  0  0  0
 22 24  1  0  0  0
 24 25  1  0  0  0
 25 26  1  0  0  0
 25 27  1  0  0  0
 25 28  1  0  0  0
 26 40  1  0  0  0
 26 41  1  0  0  0
 26 42  1  0  0  0
 27 43  1  0  0  0
 27 44  1  0  0  0
 27 45  1  0  0  0
 28 46  1  0  0  0
 28 47  1  0  0  0
 28 48  1  0  0  0
M  CHG  2  19   1  21  -1
M  END
>  <Name>
Ro16-6950

>  <Family>
A.24

>  <IC50_uM>
0.002800

>  <set>
2

$$$$
Ro16-4019
  Cerius2 12180215283D 1   1.00000                          
 Structure written by MMmdl.
 43 46  0  0  0  0  0  0  0  0999 V2000
    0.2589    2.0997    0.0169 C   0  0  0  0  0  0
   -0.0030    0.7422    0.2630 C   0  0  0  0  0  0
    1.0736   -0.2723    0.2392 C   0  0  0  0  0  0
    2.2045   -0.0622    0.9881 N   0  0  0  0  0  0
    2.5167    1.0900    1.8281 C   0  0  0  0  0  0
    2.5971    2.3021    0.9554 C   0  0  0  0  0  0
    1.5665    2.6509    0.0846 N   0  0  0  0  0  0
   -0.8119    2.9794   -0.2433 C   0  0  0  0  0  0
   -2.1296    2.5268   -0.2044 C   0  0  0  0  0  0
   -2.3937    1.1979    0.1062 C   0  0  0  0  0  0
   -1.3411    0.3054    0.3349 C   0  0  0  0  0  0
    3.1400   -1.1561    1.1900 C   0  0  0  0  0  0
    3.7554   -0.8542    2.5391 C   0  0  0  0  0  0
    3.8245    0.6649    2.5113 C   0  0  0  0  0  0
    3.5041    3.3660    0.8598 C   0  0  0  0  0  0
    3.1395    4.2075   -0.1765 N   0  0  0  0  0  0
    1.9944    3.7542   -0.6125 C   0  0  0  0  0  0
    0.9337   -1.2650   -0.4708 O   0  0  0  0  0  0
   -1.7894   -1.3098    0.7744 Cl  0  0  0  0  0  0
    4.6624    3.6854    1.7050 C   0  0  0  0  0  0
    5.0407    2.9860    2.6383 O   0  0  0  0  0  0
    5.2480    4.8704    1.3577 O   0  0  0  0  0  0
    6.3611    5.2481    2.1755 C   0  0  0  0  0  0
    6.9088    6.5730    1.6545 C   0  0  0  0  0  0
    1.7158    1.2004    2.5695 H   0  0  0  0  0  0
   -0.6528    4.0406   -0.4280 H   0  0  0  0  0  0
   -2.9507    3.2165   -0.3884 H   0  0  0  0  0  0
   -3.4256    0.8569    0.1645 H   0  0  0  0  0  0
    3.8848   -1.1096    0.3876 H   0  0  0  0  0  0
    2.6450   -2.1316    1.1643 H   0  0  0  0  0  0
    4.7320   -1.3259    2.6758 H   0  0  0  0  0  0
    3.0918   -1.1840    3.3477 H   0  0  0  0  0  0
    3.9230    1.0787    3.5187 H   0  0  0  0  0  0
    4.7056    0.9473    1.9226 H   0  0  0  0  0  0
    1.4293    4.1894   -1.4266 H   0  0  0  0  0  0
    8.1116    7.0422    2.4687 C   0  0  0  0  0  0
    6.1150    7.3300    1.6781 H   0  0  0  0  0  0
    7.1839    6.4608    0.5984 H   0  0  0  0  0  0
    6.0300    5.3611    3.2143 H   0  0  0  0  0  0
    7.1356    4.4741    2.1196 H   0  0  0  0  0  0
    7.8200    7.1808    3.5163 H   0  0  0  0  0  0
    8.8946    6.2754    2.4499 H   0  0  0  0  0  0
    8.4977    7.9827    2.0593 H   0  0  0  0  0  0
  1  2  2  0  0  0
  1  7  1  0  0  0
  1  8  1  0  0  0
  2  3  1  0  0  0
  2 11  1  0  0  0
  3  4  1  0  0  0
  3 18  2  0  0  0
  4  5  1  0  0  0
  4 12  1  0  0  0
  5  6  1  0  0  0
  5 14  1  0  0  0
  5 25  1  0  0  0
  6  7  1  0  0  0
  6 15  2  0  0  0
  7 17  1  0  0  0
  8  9  2  0  0  0
  8 26  1  0  0  0
  9 10  1  0  0  0
  9 27  1  0  0  0
 10 11  2  0  0  0
 10 28  1  0  0  0
 11 19  1  0  0  0
 12 13  1  0  0  0
 12 29  1  0  0  0
 12 30  1  0  0  0
 13 14  1  0  0  0
 13 31  1  0  0  0
 13 32  1  0  0  0
 14 33  1  0  0  0
 14 34  1  0  0  0
 15 16  1  0  0  0
 15 20  1  0  0  0
 16 17  2  0  0  0
 17 35  1  0  0  0
 20 21  2  0  0  0
 20 22  1  0  0  0
 22 23  1  0  0  0
 23 24  1  0  0  0
 23 39  1  0  0  0
 23 40  1  0  0  0
 24 36  1  0  0  0
 24 37  1  0  0  0
 24 38  1  0  0  0
 36 41  1  0  0  0
 36 42  1  0  0  0
 36 43  1  0  0  0
M  END
>  <Name>
Ro16-4019

>  <Family>
A.24

>  <IC50_uM>
0.001400

>  <set>
2

$$$$
Ro16-3031
  Cerius2 12180215283D 1   1.00000                          
 Structure written by MMmdl.
 43 46  0  0  0  0  0  0  0  0999 V2000
    0.2639    2.0961    0.0080 C   0  0  0  0  0  0
   -0.0056    0.7435    0.2716 C   0  0  0  0  0  0
    1.0653   -0.2768    0.2488 C   0  0  0  0  0  0
    2.2035   -0.0657    0.9865 N   0  0  0  0  0  0
    2.5205    1.0857    1.8259 C   0  0  0  0  0  0
    2.5986    2.2971    0.9522 C   0  0  0  0  0  0
    1.5739    2.6409    0.0725 N   0  0  0  0  0  0
   -0.8019    2.9798   -0.2586 C   0  0  0  0  0  0
   -2.1220    2.5357   -0.2079 C   0  0  0  0  0  0
   -2.3934    1.2123    0.1209 C   0  0  0  0  0  0
   -1.3453    0.3161    0.3560 C   0  0  0  0  0  0
    3.1502   -1.1530    1.1669 C   0  0  0  0  0  0
    3.7785   -0.8589    2.5112 C   0  0  0  0  0  0
    3.8333    0.6611    2.5011 C   0  0  0  0  0  0
    3.4985    3.3670    0.8652 C   0  0  0  0  0  0
    3.1438    4.2009   -0.1809 N   0  0  0  0  0  0
    2.0080    3.7381   -0.6305 C   0  0  0  0  0  0
    0.9151   -1.2732   -0.4538 O   0  0  0  0  0  0
   -1.8007   -1.2898    0.8205 Cl  0  0  0  0  0  0
    4.6405    3.6978    1.7277 C   0  0  0  0  0  0
    5.0073    3.0041    2.6694 O   0  0  0  0  0  0
    5.2194    4.8856    1.3829 O   0  0  0  0  0  0
    6.3222    5.3232    2.1942 C   0  0  0  0  0  0
    6.3878    6.8413    2.0823 C   0  0  0  0  0  0
    1.7235    1.1974    2.5711 H   0  0  0  0  0  0
   -0.6367    4.0379   -0.4566 H   0  0  0  0  0  0
   -2.9399    3.2284   -0.3957 H   0  0  0  0  0  0
   -3.4270    0.8789    0.1885 H   0  0  0  0  0  0
    3.8847   -1.0928    0.3562 H   0  0  0  0  0  0
    2.6625   -2.1320    1.1383 H   0  0  0  0  0  0
    4.7613   -1.3227    2.6313 H   0  0  0  0  0  0
    3.1276   -1.2041    3.3235 H   0  0  0  0  0  0
    3.9290    1.0622    3.5141 H   0  0  0  0  0  0
    4.7122    0.9591    1.9173 H   0  0  0  0  0  0
    1.4522    4.1640   -1.4561 H   0  0  0  0  0  0
    5.4507    7.2885    2.4312 H   0  0  0  0  0  0
    6.5154    7.1546    1.0403 H   0  0  0  0  0  0
    6.1556    5.0615    3.2463 H   0  0  0  0  0  0
    7.6108    4.6865    1.6862 C   0  0  0  0  0  0
    7.2110    7.2494    2.6763 H   0  0  0  0  0  0
    7.5636    3.5953    1.7639 H   0  0  0  0  0  0
    7.7702    4.9180    0.6272 H   0  0  0  0  0  0
    8.4772    5.0352    2.2562 H   0  0  0  0  0  0
  1  2  2  0  0  0
  1  7  1  0  0  0
  1  8  1  0  0  0
  2  3  1  0  0  0
  2 11  1  0  0  0
  3  4  1  0  0  0
  3 18  2  0  0  0
  4  5  1  0  0  0
  4 12  1  0  0  0
  5  6  1  0  0  0
  5 14  1  0  0  0
  5 25  1  0  0  0
  6  7  1  0  0  0
  6 15  2  0  0  0
  7 17  1  0  0  0
  8  9  2  0  0  0
  8 26  1  0  0  0
  9 10  1  0  0  0
  9 27  1  0  0  0
 10 11  2  0  0  0
 10 28  1  0  0  0
 11 19  1  0  0  0
 12 13  1  0  0  0
 12 29  1  0  0  0
 12 30  1  0  0  0
 13 14  1  0  0  0
 13 31  1  0  0  0
 13 32  1  0  0  0
 14 33  1  0  0  0
 14 34  1  0  0  0
 15 16  1  0  0  0
 15 20  1  0  0  0
 16 17  2  0  0  0
 17 35  1  0  0  0
 20 21  2  0  0  0
 20 22  1  0  0  0
 22 23  1  0  0  0
 23 24  1  0  0  0
 23 38  1  0  0  0
 23 39  1  0  0  0
 24 36  1  0  0  0
 24 37  1  0  0  0
 24 40  1  0  0  0
 39 41  1  0  0  0
 39 42  1  0  0  0
 39 43  1  0  0  0
M  END
>  <Name>
Ro16-3031

>  <Family>
A.24

>  <IC50_uM>
0.002500

>  <set>
0

$$$$
Ro16-9906
  Cerius2 12180215283D 1   1.00000                          
 Structure written by MMmdl.
 41 44  0  0  0  0  0  0  0  0999 V2000
    0.2580    2.1008    0.0180 C   0  0  0  0  0  0
    0.0004    0.7399    0.2507 C   0  0  0  0  0  0
    1.0821   -0.2694    0.2264 C   0  0  0  0  0  0
    2.2027   -0.0622    0.9921 N   0  0  0  0  0  0
    2.5090    1.0923    1.8307 C   0  0  0  0  0  0
    2.5934    2.3016    0.9555 C   0  0  0  0  0  0
    1.5641    2.6513    0.0843 N   0  0  0  0  0  0
   -0.8143    2.9834   -0.2248 C   0  0  0  0  0  0
   -2.1304    2.5287   -0.1822 C   0  0  0  0  0  0
   -2.3901    1.1947    0.1095 C   0  0  0  0  0  0
   -1.3359    0.2996    0.3199 C   0  0  0  0  0  0
    3.1342   -1.1569    1.2069 C   0  0  0  0  0  0
    3.7435   -0.8473    2.5578 C   0  0  0  0  0  0
    3.8129    0.6715    2.5238 C   0  0  0  0  0  0
    3.5037    3.3610    0.8544 C   0  0  0  0  0  0
    3.1373    4.2055   -0.1789 N   0  0  0  0  0  0
    1.9911    3.7541   -0.6134 C   0  0  0  0  0  0
    0.9555   -1.2553   -0.4952 O   0  0  0  0  0  0
   -1.7820   -1.3231    0.7328 Cl  0  0  0  0  0  0
    4.6665    3.6775    1.6929 C   0  0  0  0  0  0
    5.0492    2.9776    2.6238 O   0  0  0  0  0  0
    5.2451    4.8617    1.3426 O   0  0  0  0  0  0
    6.3459    5.2397    2.1670 C   0  0  0  0  0  0
    6.8589    6.5473    1.6483 C   0  0  0  0  0  0
    1.7039    1.2036    2.5673 H   0  0  0  0  0  0
   -0.6562    4.0474   -0.3954 H   0  0  0  0  0  0
   -2.9543    3.2194   -0.3498 H   0  0  0  0  0  0
   -3.4207    0.8524    0.1690 H   0  0  0  0  0  0
    3.8831   -1.1205    0.4080 H   0  0  0  0  0  0
    2.6351   -2.1306    1.1867 H   0  0  0  0  0  0
    4.7190   -1.3193    2.7025 H   0  0  0  0  0  0
    3.0753   -1.1721    3.3644 H   0  0  0  0  0  0
    3.9035    1.0909    3.5296 H   0  0  0  0  0  0
    4.6983    0.9518    1.9412 H   0  0  0  0  0  0
    1.4257    4.1899   -1.4270 H   0  0  0  0  0  0
    8.1227    6.7750    1.2671 C   0  0  0  0  0  0
    6.1326    7.3541    1.5790 H   0  0  0  0  0  0
    6.0062    5.3735    3.2004 H   0  0  0  0  0  0
    7.1232    4.4673    2.1319 H   0  0  0  0  0  0
    8.4181    7.7494    0.8912 H   0  0  0  0  0  0
    8.8828    6.0013    1.3109 H   0  0  0  0  0  0
  1  2  2  0  0  0
  1  7  1  0  0  0
  1  8  1  0  0  0
  2  3  1  0  0  0
  2 11  1  0  0  0
  3  4  1  0  0  0
  3 18  2  0  0  0
  4  5  1  0  0  0
  4 12  1  0  0  0
  5  6  1  0  0  0
  5 14  1  0  0  0
  5 25  1  0  0  0
  6  7  1  0  0  0
  6 15  2  0  0  0
  7 17  1  0  0  0
  8  9  2  0  0  0
  8 26  1  0  0  0
  9 10  1  0  0  0
  9 27  1  0  0  0
 10 11  2  0  0  0
 10 28  1  0  0  0
 11 19  1  0  0  0
 12 13  1  0  0  0
 12 29  1  0  0  0
 12 30  1  0  0  0
 13 14  1  0  0  0
 13 31  1  0  0  0
 13 32  1  0  0  0
 14 33  1  0  0  0
 14 34  1  0  0  0
 15 16  1  0  0  0
 15 20  1  0  0  0
 16 17  2  0  0  0
 17 35  1  0  0  0
 20 21  2  0  0  0
 20 22  1  0  0  0
 22 23  1  0  0  0
 23 24  1  0  0  0
 23 38  1  0  0  0
 23 39  1  0  0  0
 24 36  2  0  0  0
 24 37  1  0  0  0
 36 40  1  0  0  0
 36 41  1  0  0  0
M  END
>  <Name>
Ro16-9906

>  <Family>
A.24

>  <IC50_uM>
0.001700

>  <set>
0

$$$$
Ro16-7081
  Cerius2 12180215283D 1   1.00000                          
 Structure written by MMmdl.
 46 49  0  0  0  0  0  0  0  0999 V2000
    0.2640    2.0961    0.0078 C   0  0  0  0  0  0
   -0.0046    0.7431    0.2711 C   0  0  0  0  0  0
    1.0671   -0.2768    0.2465 C   0  0  0  0  0  0
    2.2058   -0.0649    0.9830 N   0  0  0  0  0  0
    2.5204    1.0859    1.8242 C   0  0  0  0  0  0
    2.5992    2.2983    0.9518 C   0  0  0  0  0  0
    1.5734    2.6426    0.0734 N   0  0  0  0  0  0
   -0.8028    2.9782   -0.2591 C   0  0  0  0  0  0
   -2.1229    2.5342   -0.2064 C   0  0  0  0  0  0
   -2.3932    1.2112    0.1232 C   0  0  0  0  0  0
   -1.3443    0.3154    0.3570 C   0  0  0  0  0  0
    3.1511   -1.1530    1.1679 C   0  0  0  0  0  0
    3.7692   -0.8603    2.5173 C   0  0  0  0  0  0
    3.8305    0.6597    2.5039 C   0  0  0  0  0  0
    3.4991    3.3681    0.8645 C   0  0  0  0  0  0
    3.1436    4.2024   -0.1809 N   0  0  0  0  0  0
    2.0064    3.7406   -0.6287 C   0  0  0  0  0  0
    0.9171   -1.2729   -0.4565 O   0  0  0  0  0  0
   -1.7985   -1.2908    0.8210 Cl  0  0  0  0  0  0
    4.6427    3.6973    1.7255 C   0  0  0  0  0  0
    5.0108    3.0033    2.6668 O   0  0  0  0  0  0
    5.2270    4.8840    1.3828 O   0  0  0  0  0  0
    6.3283    5.2672    2.2138 C   0  0  0  0  0  0
    6.8621    6.6034    1.7091 C   0  0  0  0  0  0
    1.7211    1.1963    2.5673 H   0  0  0  0  0  0
   -0.6387    4.0362   -0.4575 H   0  0  0  0  0  0
   -2.9414    3.2264   -0.3933 H   0  0  0  0  0  0
   -3.4266    0.8775    0.1924 H   0  0  0  0  0  0
    3.8923   -1.0909    0.3635 H   0  0  0  0  0  0
    2.6652   -2.1326    1.1330 H   0  0  0  0  0  0
    4.7481   -1.3290    2.6475 H   0  0  0  0  0  0
    3.1087   -1.2010    3.3236 H   0  0  0  0  0  0
    3.9254    1.0631    3.5160 H   0  0  0  0  0  0
    4.7115    0.9534    1.9206 H   0  0  0  0  0  0
    1.4493    4.1671   -1.4529 H   0  0  0  0  0  0
    8.0556    7.0787    2.5320 C   0  0  0  0  0  0
    6.0588    7.3505    1.7391 H   0  0  0  0  0  0
    7.1426    6.5062    0.6529 H   0  0  0  0  0  0
    5.9887    5.3657    3.2517 H   0  0  0  0  0  0
    7.1123    4.5032    2.1551 H   0  0  0  0  0  0
    7.7606    7.1959    3.5810 H   0  0  0  0  0  0
    8.8529    6.3270    2.5010 H   0  0  0  0  0  0
    8.5980    8.4016    2.0166 C   0  0  0  0  0  0
    9.4446    8.7271    2.6288 H   0  0  0  0  0  0
    8.9434    8.3076    0.9821 H   0  0  0  0  0  0
    7.8320    9.1824    2.0539 H   0  0  0  0  0  0
  1  2  2  0  0  0
  1  7  1  0  0  0
  1  8  1  0  0  0
  2  3  1  0  0  0
  2 11  1  0  0  0
  3  4  1  0  0  0
  3 18  2  0  0  0
  4  5  1  0  0  0
  4 12  1  0  0  0
  5  6  1  0  0  0
  5 14  1  0  0  0
  5 25  1  0  0  0
  6  7  1  0  0  0
  6 15  2  0  0  0
  7 17  1  0  0  0
  8  9  2  0  0  0
  8 26  1  0  0  0
  9 10  1  0  0  0
  9 27  1  0  0  0
 10 11  2  0  0  0
 10 28  1  0  0  0
 11 19  1  0  0  0
 12 13  1  0  0  0
 12 29  1  0  0  0
 12 30  1  0  0  0
 13 14  1  0  0  0
 13 31  1  0  0  0
 13 32  1  0  0  0
 14 33  1  0  0  0
 14 34  1  0  0  0
 15 16  1  0  0  0
 15 20  1  0  0  0
 16 17  2  0  0  0
 17 35  1  0  0  0
 20 21  2  0  0  0
 20 22  1  0  0  0
 22 23  1  0  0  0
 23 24  1  0  0  0
 23 39  1  0  0  0
 23 40  1  0  0  0
 24 36  1  0  0  0
 24 37  1  0  0  0
 24 38  1  0  0  0
 36 41  1  0  0  0
 36 42  1  0  0  0
 36 43  1  0  0  0
 43 44  1  0  0  0
 43 45  1  0  0  0
 43 46  1  0  0  0
M  END
>  <Name>
Ro16-7081

>  <Family>
A.24

>  <IC50_uM>
0.002600

>  <set>
0

$$$$
Ro16-7082
  Cerius2 12180215283D 1   1.00000                          
 Structure written by MMmdl.
 46 49  0  0  0  0  0  0  0  0999 V2000
    0.2661    2.0946    0.0099 C   0  0  0  0  0  0
   -0.0049    0.7415    0.2666 C   0  0  0  0  0  0
    1.0660   -0.2788    0.2444 C   0  0  0  0  0  0
    2.2023   -0.0695    0.9857 N   0  0  0  0  0  0
    2.5231    1.0826    1.8232 C   0  0  0  0  0  0
    2.6026    2.2940    0.9492 C   0  0  0  0  0  0
    1.5764    2.6372    0.0706 N   0  0  0  0  0  0
   -0.7988    2.9824   -0.2473 C   0  0  0  0  0  0
   -2.1195    2.5410   -0.1958 C   0  0  0  0  0  0
   -2.3927    1.2157    0.1218 C   0  0  0  0  0  0
   -1.3456    0.3155    0.3471 C   0  0  0  0  0  0
    3.1417   -1.1618    1.1740 C   0  0  0  0  0  0
    3.7698   -0.8648    2.5179 C   0  0  0  0  0  0
    3.8355    0.6547    2.4975 C   0  0  0  0  0  0
    3.4979    3.3683    0.8643 C   0  0  0  0  0  0
    3.1412    4.2001   -0.1838 N   0  0  0  0  0  0
    2.0076    3.7338   -0.6343 C   0  0  0  0  0  0
    0.9179   -1.2740   -0.4603 O   0  0  0  0  0  0
   -1.8043   -1.2947    0.7925 Cl  0  0  0  0  0  0
    4.6357    3.7105    1.7282 C   0  0  0  0  0  0
    5.0104    3.0256    2.6730 O   0  0  0  0  0  0
    5.1983    4.9076    1.3881 O   0  0  0  0  0  0
    6.2663    5.3391    2.2391 C   0  0  0  0  0  0
    6.6311    6.7860    1.8831 C   0  0  0  0  0  0
    1.7272    1.1965    2.5695 H   0  0  0  0  0  0
   -0.6316    4.0411   -0.4384 H   0  0  0  0  0  0
   -2.9360    3.2371   -0.3746 H   0  0  0  0  0  0
   -3.4266    0.8833    0.1879 H   0  0  0  0  0  0
    3.8785   -1.1103    0.3648 H   0  0  0  0  0  0
    2.6484   -2.1382    1.1492 H   0  0  0  0  0  0
    4.7487   -1.3353    2.6425 H   0  0  0  0  0  0
    3.1150   -1.2002    3.3312 H   0  0  0  0  0  0
    3.9372    1.0612    3.5078 H   0  0  0  0  0  0
    4.7136    0.9440    1.9077 H   0  0  0  0  0  0
    1.4510    4.1584   -1.4601 H   0  0  0  0  0  0
    7.8634    7.2336    2.6663 C   0  0  0  0  0  0
    5.4577    7.7328    2.1497 C   0  0  0  0  0  0
    6.8571    6.8371    0.8103 H   0  0  0  0  0  0
    5.9605    5.2761    3.2907 H   0  0  0  0  0  0
    7.1291    4.6826    2.0759 H   0  0  0  0  0  0
    7.6822    7.2007    3.7459 H   0  0  0  0  0  0
    8.7200    6.5877    2.4464 H   0  0  0  0  0  0
    8.1420    8.2586    2.4000 H   0  0  0  0  0  0
    5.7276    8.7656    1.9045 H   0  0  0  0  0  0
    4.5881    7.4649    1.5407 H   0  0  0  0  0  0
    5.1559    7.7035    3.2023 H   0  0  0  0  0  0
  1  2  2  0  0  0
  1  7  1  0  0  0
  1  8  1  0  0  0
  2  3  1  0  0  0
  2 11  1  0  0  0
  3  4  1  0  0  0
  3 18  2  0  0  0
  4  5  1  0  0  0
  4 12  1  0  0  0
  5  6  1  0  0  0
  5 14  1  0  0  0
  5 25  1  0  0  0
  6  7  1  0  0  0
  6 15  2  0  0  0
  7 17  1  0  0  0
  8  9  2  0  0  0
  8 26  1  0  0  0
  9 10  1  0  0  0
  9 27  1  0  0  0
 10 11  2  0  0  0
 10 28  1  0  0  0
 11 19  1  0  0  0
 12 13  1  0  0  0
 12 29  1  0  0  0
 12 30  1  0  0  0
 13 14  1  0  0  0
 13 31  1  0  0  0
 13 32  1  0  0  0
 14 33  1  0  0  0
 14 34  1  0  0  0
 15 16  1  0  0  0
 15 20  1  0  0  0
 16 17  2  0  0  0
 17 35  1  0  0  0
 20 21  2  0  0  0
 20 22  1  0  0  0
 22 23  1  0  0  0
 23 24  1  0  0  0
 23 39  1  0  0  0
 23 40  1  0  0  0
 24 36  1  0  0  0
 24 37  1  0  0  0
 24 38  1  0  0  0
 36 41  1  0  0  0
 36 42  1  0  0  0
 36 43  1  0  0  0
 37 44  1  0  0  0
 37 45  1  0  0  0
 37 46  1  0  0  0
M  END
>  <Name>
Ro16-7082

>  <Family>
A.24

>  <IC50_uM>
0.006300

>  <set>
0

$$$$
Ro16-7083
  Cerius2 12180215283D 1   1.00000                          
 Structure written by MMmdl.
 46 49  0  0  0  0  0  0  0  0999 V2000
    0.2651    2.0963    0.0106 C   0  0  0  0  0  0
   -0.0048    0.7428    0.2698 C   0  0  0  0  0  0
    1.0665   -0.2777    0.2462 C   0  0  0  0  0  0
    2.2042   -0.0668    0.9851 N   0  0  0  0  0  0
    2.5221    1.0851    1.8238 C   0  0  0  0  0  0
    2.6015    2.2952    0.9481 C   0  0  0  0  0  0
    1.5761    2.6384    0.0696 N   0  0  0  0  0  0
   -0.8005    2.9830   -0.2477 C   0  0  0  0  0  0
   -2.1209    2.5404   -0.1955 C   0  0  0  0  0  0
   -2.3929    1.2150    0.1235 C   0  0  0  0  0  0
   -1.3451    0.3165    0.3525 C   0  0  0  0  0  0
    3.1511   -1.1538    1.1663 C   0  0  0  0  0  0
    3.7753   -0.8606    2.5129 C   0  0  0  0  0  0
    3.8338    0.6596    2.5018 C   0  0  0  0  0  0
    3.5000    3.3657    0.8605 C   0  0  0  0  0  0
    3.1482    4.1948   -0.1904 N   0  0  0  0  0  0
    2.0112    3.7325   -0.6377 C   0  0  0  0  0  0
    0.9171   -1.2733   -0.4575 O   0  0  0  0  0  0
   -1.8020   -1.2916    0.8068 Cl  0  0  0  0  0  0
    4.6324    3.7039    1.7326 C   0  0  0  0  0  0
    4.9923    3.0115    2.6777 O   0  0  0  0  0  0
    5.2030    4.8994    1.3996 O   0  0  0  0  0  0
    6.2664    5.3694    2.2522 C   0  0  0  0  0  0
    7.1599    6.2674    1.3871 C   0  0  0  0  0  0
    1.7250    1.1979    2.5684 H   0  0  0  0  0  0
   -0.6339    4.0424   -0.4382 H   0  0  0  0  0  0
   -2.9387    3.2354   -0.3750 H   0  0  0  0  0  0
   -3.4267    0.8816    0.1884 H   0  0  0  0  0  0
    3.8885   -1.0916    0.3581 H   0  0  0  0  0  0
    2.6648   -2.1332    1.1339 H   0  0  0  0  0  0
    4.7557   -1.3275    2.6374 H   0  0  0  0  0  0
    3.1201   -1.2043    3.3224 H   0  0  0  0  0  0
    3.9281    1.0605    3.5149 H   0  0  0  0  0  0
    4.7144    0.9580    1.9205 H   0  0  0  0  0  0
    1.4552    4.1563   -1.4640 H   0  0  0  0  0  0
    8.3897    6.7901    2.1125 C   0  0  0  0  0  0
    6.5774    7.1104    0.9944 H   0  0  0  0  0  0
    7.4825    5.6980    0.5058 H   0  0  0  0  0  0
    5.6498    6.1204    3.4292 C   0  0  0  0  0  0
    6.8640    4.5238    2.6142 H   0  0  0  0  0  0
    8.1192    7.4826    2.9150 H   0  0  0  0  0  0
    8.9707    5.9691    2.5438 H   0  0  0  0  0  0
    9.0362    7.3311    1.4140 H   0  0  0  0  0  0
    4.9522    5.4788    3.9782 H   0  0  0  0  0  0
    6.4117    6.4684    4.1321 H   0  0  0  0  0  0
    5.0718    6.9834    3.0805 H   0  0  0  0  0  0
  1  2  2  0  0  0
  1  7  1  0  0  0
  1  8  1  0  0  0
  2  3  1  0  0  0
  2 11  1  0  0  0
  3  4  1  0  0  0
  3 18  2  0  0  0
  4  5  1  0  0  0
  4 12  1  0  0  0
  5  6  1  0  0  0
  5 14  1  0  0  0
  5 25  1  0  0  0
  6  7  1  0  0  0
  6 15  2  0  0  0
  7 17  1  0  0  0
  8  9  2  0  0  0
  8 26  1  0  0  0
  9 10  1  0  0  0
  9 27  1  0  0  0
 10 11  2  0  0  0
 10 28  1  0  0  0
 11 19  1  0  0  0
 12 13  1  0  0  0
 12 29  1  0  0  0
 12 30  1  0  0  0
 13 14  1  0  0  0
 13 31  1  0  0  0
 13 32  1  0  0  0
 14 33  1  0  0  0
 14 34  1  0  0  0
 15 16  1  0  0  0
 15 20  1  0  0  0
 16 17  2  0  0  0
 17 35  1  0  0  0
 20 21  2  0  0  0
 20 22  1  0  0  0
 22 23  1  0  0  0
 23 24  1  0  0  0
 23 39  1  0  0  0
 23 40  1  0  0  0
 24 36  1  0  0  0
 24 37  1  0  0  0
 24 38  1  0  0  0
 36 41  1  0  0  0
 36 42  1  0  0  0
 36 43  1  0  0  0
 39 44  1  0  0  0
 39 45  1  0  0  0
 39 46  1  0  0  0
M  END
>  <Name>
Ro16-7083

>  <Family>
A.24

>  <IC50_uM>
0.002900

>  <set>
0

$$$$
Ro16-9918
  Cerius2 12180215283D 1   1.00000                          
 Structure written by MMmdl.
 44 48  0  0  0  0  0  0  0  0999 V2000
    0.2479    2.1078    0.0299 C   0  0  0  0  0  0
    0.0058    0.7396    0.2376 C   0  0  0  0  0  0
    1.1002   -0.2568    0.2119 C   0  0  0  0  0  0
    2.2065   -0.0485    0.9968 N   0  0  0  0  0  0
    2.4925    1.1048    1.8425 C   0  0  0  0  0  0
    2.5837    2.3134    0.9671 C   0  0  0  0  0  0
    1.5487    2.6709    0.1058 N   0  0  0  0  0  0
   -0.8332    2.9813   -0.2040 C   0  0  0  0  0  0
   -2.1439    2.5096   -0.1771 C   0  0  0  0  0  0
   -2.3895    1.1670    0.0873 C   0  0  0  0  0  0
   -1.3254    0.2814    0.2894 C   0  0  0  0  0  0
    3.1339   -1.1422    1.2321 C   0  0  0  0  0  0
    3.7077   -0.8325    2.5988 C   0  0  0  0  0  0
    3.7827    0.6864    2.5609 C   0  0  0  0  0  0
    3.5112    3.3541    0.8447 C   0  0  0  0  0  0
    3.1332    4.2119   -0.1729 N   0  0  0  0  0  0
    1.9697    3.7819   -0.5828 C   0  0  0  0  0  0
    0.9952   -1.2352   -0.5225 O   0  0  0  0  0  0
   -1.7549   -1.3538    0.6705 Cl  0  0  0  0  0  0
    4.7072    3.6350    1.6460 C   0  0  0  0  0  0
    5.0988    2.9188    2.5609 O   0  0  0  0  0  0
    5.3165    4.7956    1.2701 O   0  0  0  0  0  0
    6.4772    5.1182    2.0352 C   0  0  0  0  0  0
    7.0428    6.3963    1.5013 C   0  0  0  0  0  0
    1.6728    1.2120    2.5635 H   0  0  0  0  0  0
   -0.6870    4.0495   -0.3573 H   0  0  0  0  0  0
   -2.9751    3.1933   -0.3356 H   0  0  0  0  0  0
   -3.4166    0.8110    0.1329 H   0  0  0  0  0  0
    3.9031   -1.1024    0.4530 H   0  0  0  0  0  0
    2.6365   -2.1158    1.1973 H   0  0  0  0  0  0
    4.6775   -1.3069    2.7696 H   0  0  0  0  0  0
    3.0173   -1.1534    3.3882 H   0  0  0  0  0  0
    3.8592    1.1129    3.5651 H   0  0  0  0  0  0
    4.6785    0.9569    1.9908 H   0  0  0  0  0  0
    1.3911    4.2348   -1.3774 H   0  0  0  0  0  0
    6.5316    7.7271    1.9897 C   0  0  0  0  0  0
    7.3028    6.3128    0.4518 H   0  0  0  0  0  0
    6.2065    5.2199    3.0932 H   0  0  0  0  0  0
    7.2259    4.3247    1.9257 H   0  0  0  0  0  0
    5.7648    7.7377    2.7559 H   0  0  0  0  0  0
    6.4422    8.5286    1.2652 H   0  0  0  0  0  0
    7.9123    7.2660    2.3710 C   0  0  0  0  0  0
    8.0815    6.9699    3.4000 H   0  0  0  0  0  0
    8.7590    7.7559    1.9041 H   0  0  0  0  0  0
  1  2  2  0  0  0
  1  7  1  0  0  0
  1  8  1  0  0  0
  2  3  1  0  0  0
  2 11  1  0  0  0
  3  4  1  0  0  0
  3 18  2  0  0  0
  4  5  1  0  0  0
  4 12  1  0  0  0
  5  6  1  0  0  0
  5 14  1  0  0  0
  5 25  1  0  0  0
  6  7  1  0  0  0
  6 15  2  0  0  0
  7 17  1  0  0  0
  8  9  2  0  0  0
  8 26  1  0  0  0
  9 10  1  0  0  0
  9 27  1  0  0  0
 10 11  2  0  0  0
 10 28  1  0  0  0
 11 19  1  0  0  0
 12 13  1  0  0  0
 12 29  1  0  0  0
 12 30  1  0  0  0
 13 14  1  0  0  0
 13 31  1  0  0  0
 13 32  1  0  0  0
 14 33  1  0  0  0
 14 34  1  0  0  0
 15 16  1  0  0  0
 15 20  1  0  0  0
 16 17  2  0  0  0
 17 35  1  0  0  0
 20 21  2  0  0  0
 20 22  1  0  0  0
 22 23  1  0  0  0
 23 24  1  0  0  0
 23 38  1  0  0  0
 23 39  1  0  0  0
 24 36  1  0  0  0
 24 37  1  0  0  0
 36 40  1  0  0  0
 36 41  1  0  0  0
 36 42  1  0  0  0
 42 24  1  0  0  0
 42 43  1  0  0  0
 42 44  1  0  0  0
M  END
>  <Name>
Ro16-9918

>  <Family>
A.24

>  <IC50_uM>
0.002300

>  <set>
1

$$$$
Ro16-4020
  Cerius2 12180215283D 1   1.00000                          
 Structure written by MMmdl.
 52 55  0  0  0  0  0  0  0  0999 V2000
    0.2632    2.0962    0.0128 C   0  0  0  0  0  0
   -0.0035    0.7415    0.2654 C   0  0  0  0  0  0
    1.0700   -0.2763    0.2402 C   0  0  0  0  0  0
    2.2037   -0.0670    0.9851 N   0  0  0  0  0  0
    2.5178    1.0844    1.8265 C   0  0  0  0  0  0
    2.6005    2.2961    0.9526 C   0  0  0  0  0  0
    1.5721    2.6420    0.0769 N   0  0  0  0  0  0
   -0.8037    2.9814   -0.2444 C   0  0  0  0  0  0
   -2.1229    2.5359   -0.1978 C   0  0  0  0  0  0
   -2.3921    1.2088    0.1159 C   0  0  0  0  0  0
   -1.3429    0.3117    0.3443 C   0  0  0  0  0  0
    3.1452   -1.1572    1.1762 C   0  0  0  0  0  0
    3.7594   -0.8636    2.5272 C   0  0  0  0  0  0
    3.8236    0.6564    2.5132 C   0  0  0  0  0  0
    3.5004    3.3659    0.8621 C   0  0  0  0  0  0
    3.1397    4.2012   -0.1820 N   0  0  0  0  0  0
    2.0014    3.7404   -0.6259 C   0  0  0  0  0  0
    0.9249   -1.2688   -0.4691 O   0  0  0  0  0  0
   -1.7970   -1.2991    0.7928 Cl  0  0  0  0  0  0
    4.6473    3.7029    1.7158 C   0  0  0  0  0  0
    5.0284    3.0167    2.6572 O   0  0  0  0  0  0
    5.2093    4.8982    1.3697 O   0  0  0  0  0  0
    6.2766    5.3355    2.2179 C   0  0  0  0  0  0
    6.6644    6.7453    1.7859 C   0  0  0  0  0  0
    1.7156    1.1970    2.5659 H   0  0  0  0  0  0
   -0.6388    4.0415   -0.4317 H   0  0  0  0  0  0
   -2.9415    3.2296   -0.3782 H   0  0  0  0  0  0
   -3.4253    0.8732    0.1760 H   0  0  0  0  0  0
    3.8894   -1.1001    0.3741 H   0  0  0  0  0  0
    2.6555   -2.1350    1.1417 H   0  0  0  0  0  0
    4.7376   -1.3338    2.6611 H   0  0  0  0  0  0
    3.0962   -1.2023    3.3319 H   0  0  0  0  0  0
    3.9137    1.0606    3.5257 H   0  0  0  0  0  0
    4.7079    0.9474    1.9342 H   0  0  0  0  0  0
    1.4419    4.1682   -1.4481 H   0  0  0  0  0  0
    7.7868    7.3178    2.6475 C   0  0  0  0  0  0
    5.7806    7.3941    1.8362 H   0  0  0  0  0  0
    6.9662    6.7320    0.7310 H   0  0  0  0  0  0
    5.9437    5.3415    3.2624 H   0  0  0  0  0  0
    7.1287    4.6553    2.1069 H   0  0  0  0  0  0
    7.4758    7.3259    3.6990 H   0  0  0  0  0  0
    8.6715    6.6735    2.5764 H   0  0  0  0  0  0
    8.1478    8.7374    2.2096 C   0  0  0  0  0  0
    9.2571    9.3218    3.0685 C   0  0  0  0  0  0
    8.4685    8.7334    1.1612 H   0  0  0  0  0  0
    7.2644    9.3830    2.2768 H   0  0  0  0  0  0
    9.4945   10.3385    2.7401 C   0  0  0  0  0  0
    8.9568    9.3656    4.1202 H   0  0  0  0  0  0
   10.1683    8.7194    2.9955 H   0  0  0  0  0  0
   10.1883   10.6930    3.2837 H   0  0  0  0  0  0
    9.7800   10.3202    1.8342 H   0  0  0  0  0  0
    8.7212   10.8849    2.8175 H   0  0  0  0  0  0
  1  2  2  0  0  0
  1  7  1  0  0  0
  1  8  1  0  0  0
  2  3  1  0  0  0
  2 11  1  0  0  0
  3  4  1  0  0  0
  3 18  2  0  0  0
  4  5  1  0  0  0
  4 12  1  0  0  0
  5  6  1  0  0  0
  5 14  1  0  0  0
  5 25  1  0  0  0
  6  7  1  0  0  0
  6 15  2  0  0  0
  7 17  1  0  0  0
  8  9  2  0  0  0
  8 26  1  0  0  0
  9 10  1  0  0  0
  9 27  1  0  0  0
 10 11  2  0  0  0
 10 28  1  0  0  0
 11 19  1  0  0  0
 12 13  1  0  0  0
 12 29  1  0  0  0
 12 30  1  0  0  0
 13 14  1  0  0  0
 13 31  1  0  0  0
 13 32  1  0  0  0
 14 33  1  0  0  0
 14 34  1  0  0  0
 15 16  1  0  0  0
 15 20  1  0  0  0
 16 17  2  0  0  0
 17 35  1  0  0  0
 20 21  2  0  0  0
 20 22  1  0  0  0
 22 23  1  0  0  0
 23 24  1  0  0  0
 23 39  1  0  0  0
 23 40  1  0  0  0
 24 36  1  0  0  0
 24 37  1  0  0  0
 24 38  1  0  0  0
 36 41  1  0  0  0
 36 42  1  0  0  0
 43 36  1  0  0  0
 43 45  1  0  0  0
 43 46  1  0  0  0
 44 43  1  0  0  0
 44 47  1  0  0  0
 44 48  1  0  0  0
 44 49  1  0  0  0
 47 50  1  0  0  0
 47 51  1  0  0  0
 47 52  1  0  0  0
M  END
>  <Name>
Ro16-4020

>  <Family>
A.24

>  <IC50_uM>
0.002600

>  <set>
0

$$$$
Ro16-6654
  Cerius2 12180215283D 1   1.00000                          
 Structure written by MMmdl.
 50 54  0  0  0  0  0  0  0  0999 V2000
    0.2591    2.1000    0.0152 C   0  0  0  0  0  0
   -0.0021    0.7428    0.2640 C   0  0  0  0  0  0
    1.0759   -0.2709    0.2373 C   0  0  0  0  0  0
    2.2066   -0.0597    0.9862 N   0  0  0  0  0  0
    2.5115    1.0914    1.8305 C   0  0  0  0  0  0
    2.5936    2.3025    0.9571 C   0  0  0  0  0  0
    1.5664    2.6502    0.0820 N   0  0  0  0  0  0
   -0.8117    2.9801   -0.2429 C   0  0  0  0  0  0
   -2.1291    2.5268   -0.2004 C   0  0  0  0  0  0
   -2.3925    1.1982    0.1123 C   0  0  0  0  0  0
   -1.3392    0.3066    0.3417 C   0  0  0  0  0  0
    3.1499   -1.1475    1.1820 C   0  0  0  0  0  0
    3.7554   -0.8512    2.5371 C   0  0  0  0  0  0
    3.8159    0.6689    2.5223 C   0  0  0  0  0  0
    3.5030    3.3631    0.8588 C   0  0  0  0  0  0
    3.1428    4.2026   -0.1805 N   0  0  0  0  0  0
    1.9982    3.7497   -0.6187 C   0  0  0  0  0  0
    0.9370   -1.2615   -0.4755 O   0  0  0  0  0  0
   -1.7853   -1.3065    0.7899 Cl  0  0  0  0  0  0
    4.6607    3.6787    1.7045 C   0  0  0  0  0  0
    5.0314    2.9778    2.6392 O   0  0  0  0  0  0
    5.2508    4.8582    1.3508 O   0  0  0  0  0  0
    6.3727    5.2772    2.1451 C   0  0  0  0  0  0
    6.4911    6.7975    2.0070 C   0  0  0  0  0  0
    1.7053    1.1994    2.5664 H   0  0  0  0  0  0
   -0.6522    4.0410   -0.4290 H   0  0  0  0  0  0
   -2.9513    3.2159   -0.3819 H   0  0  0  0  0  0
   -3.4242    0.8571    0.1734 H   0  0  0  0  0  0
    3.8983   -1.0891    0.3836 H   0  0  0  0  0  0
    2.6624   -2.1264    1.1461 H   0  0  0  0  0  0
    4.7336   -1.3188    2.6775 H   0  0  0  0  0  0
    3.0877   -1.1910    3.3379 H   0  0  0  0  0  0
    3.9011    1.0761    3.5339 H   0  0  0  0  0  0
    4.7021    0.9614    1.9466 H   0  0  0  0  0  0
    1.4371    4.1824   -1.4369 H   0  0  0  0  0  0
    7.7240    7.3356    2.7250 C   0  0  0  0  0  0
    5.5871    7.2747    2.4043 H   0  0  0  0  0  0
    6.5277    7.0719    0.9445 H   0  0  0  0  0  0
    6.1975    5.0393    3.2029 H   0  0  0  0  0  0
    7.6088    7.1907    3.8064 H   0  0  0  0  0  0
    7.8084    8.4150    2.5548 H   0  0  0  0  0  0
    8.9979    6.6400    2.2523 C   0  0  0  0  0  0
    9.1979    6.9162    1.2097 H   0  0  0  0  0  0
    9.8508    6.9917    2.8441 H   0  0  0  0  0  0
    7.6485    4.5901    1.6487 C   0  0  0  0  0  0
    8.8884    5.1215    2.3620 C   0  0  0  0  0  0
    7.5751    3.5059    1.7933 H   0  0  0  0  0  0
    7.7490    4.7373    0.5654 H   0  0  0  0  0  0
    9.7857    4.6569    1.9377 H   0  0  0  0  0  0
    8.8497    4.8346    3.4202 H   0  0  0  0  0  0
  1  2  2  0  0  0
  1  7  1  0  0  0
  1  8  1  0  0  0
  2  3  1  0  0  0
  2 11  1  0  0  0
  3  4  1  0  0  0
  3 18  2  0  0  0
  4  5  1  0  0  0
  4 12  1  0  0  0
  5  6  1  0  0  0
  5 14  1  0  0  0
  5 25  1  0  0  0
  6  7  1  0  0  0
  6 15  2  0  0  0
  7 17  1  0  0  0
  8  9  2  0  0  0
  8 26  1  0  0  0
  9 10  1  0  0  0
  9 27  1  0  0  0
 10 11  2  0  0  0
 10 28  1  0  0  0
 11 19  1  0  0  0
 12 13  1  0  0  0
 12 29  1  0  0  0
 12 30  1  0  0  0
 13 14  1  0  0  0
 13 31  1  0  0  0
 13 32  1  0  0  0
 14 33  1  0  0  0
 14 34  1  0  0  0
 15 16  1  0  0  0
 15 20  1  0  0  0
 16 17  2  0  0  0
 17 35  1  0  0  0
 20 21  2  0  0  0
 20 22  1  0  0  0
 22 23  1  0  0  0
 23 24  1  0  0  0
 23 39  1  0  0  0
 24 36  1  0  0  0
 24 37  1  0  0  0
 24 38  1  0  0  0
 36 40  1  0  0  0
 36 41  1  0  0  0
 42 36  1  0  0  0
 42 43  1  0  0  0
 42 44  1  0  0  0
 42 46  1  0  0  0
 45 23  1  0  0  0
 45 47  1  0  0  0
 45 48  1  0  0  0
 46 45  1  0  0  0
 46 49  1  0  0  0
 46 50  1  0  0  0
M  END
>  <Name>
Ro16-6654

>  <Family>
A.24

>  <IC50_uM>
0.004000

>  <set>
1

$$$$
Ro17-3206
  Cerius2 12180215283D 1   1.00000                          
 Structure written by MMmdl.
 53 57  0  0  0  0  0  0  0  0999 V2000
    0.2671    2.0945    0.0068 C   0  0  0  0  0  0
   -0.0043    0.7429    0.2729 C   0  0  0  0  0  0
    1.0650   -0.2792    0.2468 C   0  0  0  0  0  0
    2.2067   -0.0677    0.9788 N   0  0  0  0  0  0
    2.5233    1.0825    1.8203 C   0  0  0  0  0  0
    2.6035    2.2949    0.9479 C   0  0  0  0  0  0
    1.5779    2.6375    0.0682 N   0  0  0  0  0  0
   -0.7977    2.9800   -0.2576 C   0  0  0  0  0  0
   -2.1185    2.5391   -0.2022 C   0  0  0  0  0  0
   -2.3916    1.2172    0.1301 C   0  0  0  0  0  0
   -1.3447    0.3189    0.3631 C   0  0  0  0  0  0
    3.1518   -1.1563    1.1616 C   0  0  0  0  0  0
    3.7693   -0.8667    2.5121 C   0  0  0  0  0  0
    3.8318    0.6534    2.5009 C   0  0  0  0  0  0
    3.4981    3.3703    0.8647 C   0  0  0  0  0  0
    3.1441    4.2003   -0.1852 N   0  0  0  0  0  0
    2.0116    3.7324   -0.6380 C   0  0  0  0  0  0
    0.9100   -1.2765   -0.4535 O   0  0  0  0  0  0
   -1.8017   -1.2851    0.8318 Cl  0  0  0  0  0  0
    4.6322    3.7105    1.7349 C   0  0  0  0  0  0
    4.9971    3.0204    2.6796 O   0  0  0  0  0  0
    5.2007    4.9079    1.4018 O   0  0  0  0  0  0
    6.2952    5.3595    2.2298 C   0  0  0  0  0  0
    7.1512    6.2654    1.3412 C   0  0  0  0  0  0
    1.7241    1.1939    2.5629 H   0  0  0  0  0  0
   -0.6305    4.0377   -0.4562 H   0  0  0  0  0  0
   -2.9356    3.2323   -0.3901 H   0  0  0  0  0  0
   -3.4256    0.8870    0.2028 H   0  0  0  0  0  0
    3.8940   -1.0920    0.3580 H   0  0  0  0  0  0
    2.6664   -2.1360    1.1242 H   0  0  0  0  0  0
    4.7481   -1.3365    2.6424 H   0  0  0  0  0  0
    3.1077   -1.2087    3.3169 H   0  0  0  0  0  0
    3.9245    1.0554    3.5140 H   0  0  0  0  0  0
    4.7138    0.9478    1.9197 H   0  0  0  0  0  0
    1.4575    4.1532   -1.4672 H   0  0  0  0  0  0
    8.3392    6.9296    2.0332 C   0  0  0  0  0  0
    6.5177    7.0285    0.8691 H   0  0  0  0  0  0
    7.5281    5.6601    0.5057 H   0  0  0  0  0  0
    6.9059    4.4968    2.5269 H   0  0  0  0  0  0
    8.9746    7.3588    1.2481 H   0  0  0  0  0  0
    8.9536    6.1908    2.5599 H   0  0  0  0  0  0
    7.9187    8.0640    2.9619 C   0  0  0  0  0  0
    7.5468    7.6384    4.3788 C   0  0  0  0  0  0
    6.7789    6.3299    4.5357 C   0  0  0  0  0  0
    5.7231    6.0621    3.4687 C   0  0  0  0  0  0
    8.7450    8.7821    3.0391 H   0  0  0  0  0  0
    7.0844    8.6204    2.5166 H   0  0  0  0  0  0
    8.4622    7.5649    4.9803 H   0  0  0  0  0  0
    6.9622    8.4497    4.8315 H   0  0  0  0  0  0
    7.4856    5.4916    4.5779 H   0  0  0  0  0  0
    6.2892    6.3498    5.5177 H   0  0  0  0  0  0
    5.1941    6.9810    3.1874 H   0  0  0  0  0  0
    4.9549    5.4159    3.9119 H   0  0  0  0  0  0
  1  2  2  0  0  0
  1  7  1  0  0  0
  1  8  1  0  0  0
  2  3  1  0  0  0
  2 11  1  0  0  0
  3  4  1  0  0  0
  3 18  2  0  0  0
  4  5  1  0  0  0
  4 12  1  0  0  0
  5  6  1  0  0  0
  5 14  1  0  0  0
  5 25  1  0  0  0
  6  7  1  0  0  0
  6 15  2  0  0  0
  7 17  1  0  0  0
  8  9  2  0  0  0
  8 26  1  0  0  0
  9 10  1  0  0  0
  9 27  1  0  0  0
 10 11  2  0  0  0
 10 28  1  0  0  0
 11 19  1  0  0  0
 12 13  1  0  0  0
 12 29  1  0  0  0
 12 30  1  0  0  0
 13 14  1  0  0  0
 13 31  1  0  0  0
 13 32  1  0  0  0
 14 33  1  0  0  0
 14 34  1  0  0  0
 15 16  1  0  0  0
 15 20  1  0  0  0
 16 17  2  0  0  0
 17 35  1  0  0  0
 20 21  2  0  0  0
 20 22  1  0  0  0
 22 23  1  0  0  0
 23 24  1  0  0  0
 23 39  1  0  0  0
 23 45  1  0  0  0
 24 36  1  0  0  0
 24 37  1  0  0  0
 24 38  1  0  0  0
 36 40  1  0  0  0
 36 41  1  0  0  0
 42 36  1  0  0  0
 42 46  1  0  0  0
 42 47  1  0  0  0
 43 42  1  0  0  0
 43 48  1  0  0  0
 43 49  1  0  0  0
 44 43  1  0  0  0
 44 50  1  0  0  0
 44 51  1  0  0  0
 45 44  1  0  0  0
 45 52  1  0  0  0
 45 53  1  0  0  0
M  END
>  <Name>
Ro17-3206

>  <Family>
A.24

>  <IC50_uM>
0.003400

>  <set>
0

$$$$
Ro17-3207
  Cerius2 12180215283D 1   1.00000                          
 Structure written by MMmdl.
 56 60  0  0  0  0  0  0  0  0999 V2000
    0.2650    2.0955    0.0118 C   0  0  0  0  0  0
   -0.0057    0.7427    0.2709 C   0  0  0  0  0  0
    1.0645   -0.2790    0.2478 C   0  0  0  0  0  0
    2.2036   -0.0698    0.9852 N   0  0  0  0  0  0
    2.5253    1.0813    1.8235 C   0  0  0  0  0  0
    2.6024    2.2941    0.9512 C   0  0  0  0  0  0
    1.5751    2.6384    0.0740 N   0  0  0  0  0  0
   -0.7996    2.9819   -0.2521 C   0  0  0  0  0  0
   -2.1201    2.5398   -0.2063 C   0  0  0  0  0  0
   -2.3931    1.2158    0.1161 C   0  0  0  0  0  0
   -1.3464    0.3172    0.3500 C   0  0  0  0  0  0
    3.1442   -1.1624    1.1709 C   0  0  0  0  0  0
    3.7725   -0.8676    2.5151 C   0  0  0  0  0  0
    3.8377    0.6518    2.4971 C   0  0  0  0  0  0
    3.4966    3.3695    0.8664 C   0  0  0  0  0  0
    3.1397    4.2011   -0.1811 N   0  0  0  0  0  0
    2.0059    3.7353   -0.6305 C   0  0  0  0  0  0
    0.9136   -1.2752   -0.4545 O   0  0  0  0  0  0
   -1.8053   -1.2901    0.8043 Cl  0  0  0  0  0  0
    4.6373    3.7107    1.7261 C   0  0  0  0  0  0
    5.0143    3.0273    2.6707 O   0  0  0  0  0  0
    5.1982    4.9063    1.3801 O   0  0  0  0  0  0
    6.3180    5.3627    2.1751 C   0  0  0  0  0  0
    7.1109    6.2823    1.2402 C   0  0  0  0  0  0
    1.7304    1.1940    2.5707 H   0  0  0  0  0  0
   -0.6326    4.0404   -0.4458 H   0  0  0  0  0  0
   -2.9365    3.2342   -0.3936 H   0  0  0  0  0  0
   -3.4272    0.8831    0.1792 H   0  0  0  0  0  0
    3.8806   -1.1091    0.3614 H   0  0  0  0  0  0
    2.6518   -2.1392    1.1447 H   0  0  0  0  0  0
    4.7512   -1.3386    2.6389 H   0  0  0  0  0  0
    3.1182   -1.2048    3.3278 H   0  0  0  0  0  0
    3.9395    1.0563    3.5083 H   0  0  0  0  0  0
    4.7163    0.9420    1.9082 H   0  0  0  0  0  0
    1.4488    4.1600   -1.4558 H   0  0  0  0  0  0
    8.3924    6.8746    1.8162 C   0  0  0  0  0  0
    6.4606    7.0752    0.8477 H   0  0  0  0  0  0
    7.3825    5.6879    0.3563 H   0  0  0  0  0  0
    6.9438    4.5018    2.4419 H   0  0  0  0  0  0
    8.9388    6.1274    2.4022 H   0  0  0  0  0  0
    9.0397    7.1124    0.9609 H   0  0  0  0  0  0
    8.1836    8.1793    2.5903 C   0  0  0  0  0  0
    8.4277    8.0569    4.0913 C   0  0  0  0  0  0
    7.2361    7.5617    4.9053 C   0  0  0  0  0  0
    6.7745    6.1435    4.5824 C   0  0  0  0  0  0
    5.7728    6.0606    3.4271 C   0  0  0  0  0  0
    8.9202    8.8994    2.2097 H   0  0  0  0  0  0
    7.2028    8.6257    2.3915 H   0  0  0  0  0  0
    9.3042    7.4274    4.2865 H   0  0  0  0  0  0
    8.6835    9.0546    4.4715 H   0  0  0  0  0  0
    7.5387    7.5825    5.9607 H   0  0  0  0  0  0
    6.4013    8.2678    4.8196 H   0  0  0  0  0  0
    7.6316    5.4768    4.4352 H   0  0  0  0  0  0
    6.2597    5.7688    5.4777 H   0  0  0  0  0  0
    5.3647    7.0443    3.1648 H   0  0  0  0  0  0
    4.9046    5.4947    3.7909 H   0  0  0  0  0  0
  1  2  2  0  0  0
  1  7  1  0  0  0
  1  8  1  0  0  0
  2  3  1  0  0  0
  2 11  1  0  0  0
  3  4  1  0  0  0
  3 18  2  0  0  0
  4  5  1  0  0  0
  4 12  1  0  0  0
  5  6  1  0  0  0
  5 14  1  0  0  0
  5 25  1  0  0  0
  6  7  1  0  0  0
  6 15  2  0  0  0
  7 17  1  0  0  0
  8  9  2  0  0  0
  8 26  1  0  0  0
  9 10  1  0  0  0
  9 27  1  0  0  0
 10 11  2  0  0  0
 10 28  1  0  0  0
 11 19  1  0  0  0
 12 13  1  0  0  0
 12 29  1  0  0  0
 12 30  1  0  0  0
 13 14  1  0  0  0
 13 31  1  0  0  0
 13 32  1  0  0  0
 14 33  1  0  0  0
 14 34  1  0  0  0
 15 16  1  0  0  0
 15 20  1  0  0  0
 16 17  2  0  0  0
 17 35  1  0  0  0
 20 21  2  0  0  0
 20 22  1  0  0  0
 22 23  1  0  0  0
 23 24  1  0  0  0
 23 39  1  0  0  0
 23 46  1  0  0  0
 24 36  1  0  0  0
 24 37  1  0  0  0
 24 38  1  0  0  0
 36 40  1  0  0  0
 36 41  1  0  0  0
 42 36  1  0  0  0
 42 47  1  0  0  0
 42 48  1  0  0  0
 43 42  1  0  0  0
 43 49  1  0  0  0
 43 50  1  0  0  0
 44 43  1  0  0  0
 44 51  1  0  0  0
 44 52  1  0  0  0
 45 44  1  0  0  0
 45 53  1  0  0  0
 45 54  1  0  0  0
 46 45  1  0  0  0
 46 55  1  0  0  0
 46 56  1  0  0  0
M  END
>  <Name>
Ro17-3207

>  <Family>
A.24

>  <IC50_uM>
0.005200

>  <set>
0

$$$$
Ro16-4021
  Cerius2 12180215283D 1   1.00000                          
 Structure written by MMmdl.
 47 51  0  0  0  0  0  0  0  0999 V2000
    0.2824    2.0879    0.0084 C   0  0  0  0  0  0
   -0.0093    0.7418    0.2844 C   0  0  0  0  0  0
    1.0426   -0.2989    0.2590 C   0  0  0  0  0  0
    2.2067   -0.0909    0.9592 N   0  0  0  0  0  0
    2.5553    1.0558    1.7944 C   0  0  0  0  0  0
    2.6302    2.2701    0.9251 C   0  0  0  0  0  0
    1.6016    2.6119    0.0489 N   0  0  0  0  0  0
   -0.7695    2.9925   -0.2459 C   0  0  0  0  0  0
   -2.0969    2.5765   -0.1758 C   0  0  0  0  0  0
   -2.3897    1.2594    0.1578 C   0  0  0  0  0  0
   -1.3572    0.3421    0.3832 C   0  0  0  0  0  0
    3.1391   -1.1942    1.1253 C   0  0  0  0  0  0
    3.8038   -0.9041    2.4527 C   0  0  0  0  0  0
    3.8779    0.6150    2.4390 C   0  0  0  0  0  0
    3.5121    3.3581    0.8517 C   0  0  0  0  0  0
    3.1654    4.1739   -0.2115 N   0  0  0  0  0  0
    2.0393    3.6970   -0.6693 C   0  0  0  0  0  0
    0.8572   -1.3082   -0.4170 O   0  0  0  0  0  0
   -1.8457   -1.2544    0.8494 Cl  0  0  0  0  0  0
    4.6250    3.7292    1.7392 C   0  0  0  0  0  0
    4.8169    3.2336    2.8436 O   0  0  0  0  0  0
    5.3875    4.7351    1.2208 O   0  0  0  0  0  0
    6.4169    5.2022    2.0958 C   0  0  0  0  0  0
    1.7765    1.1738    2.5575 H   0  0  0  0  0  0
   -0.5857    4.0468   -0.4477 H   0  0  0  0  0  0
   -2.9032    3.2855   -0.3542 H   0  0  0  0  0  0
   -3.4286    0.9477    0.2372 H   0  0  0  0  0  0
    3.8560   -1.1501    0.2979 H   0  0  0  0  0  0
    2.6375   -2.1664    1.1129 H   0  0  0  0  0  0
    4.7825   -1.3810    2.5508 H   0  0  0  0  0  0
    3.1678   -1.2399    3.2806 H   0  0  0  0  0  0
    4.0009    1.0137    3.4500 H   0  0  0  0  0  0
    4.7455    0.9063    1.8344 H   0  0  0  0  0  0
    1.4886    4.1084   -1.5055 H   0  0  0  0  0  0
    5.9876    5.4364    3.0777 H   0  0  0  0  0  0
    7.1849    4.4283    2.2115 H   0  0  0  0  0  0
    7.0519    6.4398    1.5074 C   0  0  0  0  0  0
    7.2384    7.5883    2.2918 C   0  0  0  0  0  0
    6.9051    7.6053    3.3272 H   0  0  0  0  0  0
    7.8472    8.7260    1.7554 C   0  0  0  0  0  0
    7.9821    9.6130    2.3698 H   0  0  0  0  0  0
    8.2808    8.7253    0.4311 C   0  0  0  0  0  0
    8.7523    9.6102    0.0119 H   0  0  0  0  0  0
    8.1070    7.5889   -0.3565 C   0  0  0  0  0  0
    8.4387    7.5841   -1.3911 H   0  0  0  0  0  0
    7.4998    6.4513    0.1788 C   0  0  0  0  0  0
    7.3673    5.5726   -0.4494 H   0  0  0  0  0  0
  1  2  2  0  0  0
  1  7  1  0  0  0
  1  8  1  0  0  0
  2  3  1  0  0  0
  2 11  1  0  0  0
  3  4  1  0  0  0
  3 18  2  0  0  0
  4  5  1  0  0  0
  4 12  1  0  0  0
  5  6  1  0  0  0
  5 14  1  0  0  0
  5 24  1  0  0  0
  6  7  1  0  0  0
  6 15  2  0  0  0
  7 17  1  0  0  0
  8  9  2  0  0  0
  8 25  1  0  0  0
  9 10  1  0  0  0
  9 26  1  0  0  0
 10 11  2  0  0  0
 10 27  1  0  0  0
 11 19  1  0  0  0
 12 13  1  0  0  0
 12 28  1  0  0  0
 12 29  1  0  0  0
 13 14  1  0  0  0
 13 30  1  0  0  0
 13 31  1  0  0  0
 14 32  1  0  0  0
 14 33  1  0  0  0
 15 16  1  0  0  0
 15 20  1  0  0  0
 16 17  2  0  0  0
 17 34  1  0  0  0
 20 21  2  0  0  0
 20 22  1  0  0  0
 22 23  1  0  0  0
 23 35  1  0  0  0
 23 36  1  0  0  0
 23 37  1  0  0  0
 37 38  1  0  0  0
 37 46  2  0  0  0
 38 39  1  0  0  0
 38 40  2  0  0  0
 40 41  1  0  0  0
 40 42  1  0  0  0
 42 43  1  0  0  0
 42 44  2  0  0  0
 44 45  1  0  0  0
 44 46  1  0  0  0
 46 47  1  0  0  0
M  END
>  <Name>
Ro16-4021

>  <Family>
A.24

>  <IC50_uM>
0.001500

>  <set>
0

$$$$
Ro17-1302
  Cerius2 12180215283D 1   1.00000                          
 Structure written by MMmdl.
 44 48  0  0  0  0  0  0  0  0999 V2000
    0.2489    2.1062    0.0323 C   0  0  0  0  0  0
   -0.0011    0.7406    0.2480 C   0  0  0  0  0  0
    1.0908   -0.2586    0.2245 C   0  0  0  0  0  0
    2.2003   -0.0509    1.0059 N   0  0  0  0  0  0
    2.4941    1.1023    1.8494 C   0  0  0  0  0  0
    2.5824    2.3068    0.9680 C   0  0  0  0  0  0
    1.5525    2.6597    0.1005 N   0  0  0  0  0  0
   -0.8251    2.9863   -0.2065 C   0  0  0  0  0  0
   -2.1382    2.5219   -0.1794 C   0  0  0  0  0  0
   -2.3924    1.1813    0.0894 C   0  0  0  0  0  0
   -1.3344    0.2897    0.2970 C   0  0  0  0  0  0
    3.1506   -1.1315    1.2060 C   0  0  0  0  0  0
    3.7415   -0.8344    2.5673 C   0  0  0  0  0  0
    3.7953    0.6861    2.5529 C   0  0  0  0  0  0
    3.5071    3.3490    0.8462 C   0  0  0  0  0  0
    3.1447    4.1912   -0.1891 N   0  0  0  0  0  0
    1.9834    3.7580   -0.6030 C   0  0  0  0  0  0
    0.9869   -1.2343   -0.5134 O   0  0  0  0  0  0
   -1.7733   -1.3434    0.6753 Cl  0  0  0  0  0  0
    4.6876    3.6433    1.6634 C   0  0  0  0  0  0
    5.0580    2.9357    2.5928 O   0  0  0  0  0  0
    5.2905    4.8362    1.2578 O   0  0  0  0  0  0
    1.6814    1.2127    2.5773 H   0  0  0  0  0  0
   -0.6723    4.0529   -0.3650 H   0  0  0  0  0  0
   -2.9642    3.2107   -0.3438 H   0  0  0  0  0  0
   -3.4209    0.8309    0.1316 H   0  0  0  0  0  0
    3.9055   -1.0624    0.4147 H   0  0  0  0  0  0
    2.6715   -2.1139    1.1607 H   0  0  0  0  0  0
    4.7206   -1.2975    2.7151 H   0  0  0  0  0  0
    3.0683   -1.1780    3.3617 H   0  0  0  0  0  0
    3.8741    1.0983    3.5632 H   0  0  0  0  0  0
    4.6845    0.9782    1.9819 H   0  0  0  0  0  0
    1.4120    4.1992   -1.4096 H   0  0  0  0  0  0
    6.4531    5.3984    1.8286 C   0  0  0  0  0  0
    7.4002    4.6817    2.5540 C   0  0  0  0  0  0
    7.2971    3.6193    2.7443 H   0  0  0  0  0  0
    8.5265    5.3441    3.0476 C   0  0  0  0  0  0
    9.2671    4.7931    3.6217 H   0  0  0  0  0  0
    8.7073    6.7065    2.8016 C   0  0  0  0  0  0
    9.5883    7.2144    3.1842 H   0  0  0  0  0  0
    7.7618    7.4133    2.0597 C   0  0  0  0  0  0
    7.9030    8.4712    1.8590 H   0  0  0  0  0  0
    6.6334    6.7586    1.5704 C   0  0  0  0  0  0
    5.8971    7.3050    0.9873 H   0  0  0  0  0  0
  1  2  2  0  0  0
  1  7  1  0  0  0
  1  8  1  0  0  0
  2  3  1  0  0  0
  2 11  1  0  0  0
  3  4  1  0  0  0
  3 18  2  0  0  0
  4  5  1  0  0  0
  4 12  1  0  0  0
  5  6  1  0  0  0
  5 14  1  0  0  0
  5 23  1  0  0  0
  6  7  1  0  0  0
  6 15  2  0  0  0
  7 17  1  0  0  0
  8  9  2  0  0  0
  8 24  1  0  0  0
  9 10  1  0  0  0
  9 25  1  0  0  0
 10 11  2  0  0  0
 10 26  1  0  0  0
 11 19  1  0  0  0
 12 13  1  0  0  0
 12 27  1  0  0  0
 12 28  1  0  0  0
 13 14  1  0  0  0
 13 29  1  0  0  0
 13 30  1  0  0  0
 14 31  1  0  0  0
 14 32  1  0  0  0
 15 16  1  0  0  0
 15 20  1  0  0  0
 16 17  2  0  0  0
 17 33  1  0  0  0
 20 21  2  0  0  0
 20 22  1  0  0  0
 22 34  1  0  0  0
 34 35  1  0  0  0
 34 43  2  0  0  0
 35 36  1  0  0  0
 35 37  2  0  0  0
 37 38  1  0  0  0
 37 39  1  0  0  0
 39 40  1  0  0  0
 39 41  2  0  0  0
 41 42  1  0  0  0
 41 43  1  0  0  0
 43 44  1  0  0  0
M  END
>  <Name>
Ro17-1302

>  <Family>
A.24

>  <IC50_uM>
0.005300

>  <set>
1

$$$$
Ro15-2427
  Cerius2 12180215283D 1   1.00000                          
 Structure written by MMmdl.
 31 33  0  0  0  0  0  0  0  0999 V2000
    0.1890    2.1737    0.0655 C   0  0  0  0  0  0
    0.0208    0.7851    0.2398 C   0  0  0  0  0  0
    1.1192   -0.2220    0.3963 C   0  0  0  0  0  0
    2.2531    0.0907    1.1280 N   0  0  0  0  0  0
    2.3539    1.2722    1.9501 C   0  0  0  0  0  0
    2.4791    2.4217    1.0386 C   0  0  0  0  0  0
    1.4487    2.8086    0.2100 N   0  0  0  0  0  0
   -0.9252    2.9744   -0.2572 C   0  0  0  0  0  0
   -2.1965    2.4107   -0.3771 C   0  0  0  0  0  0
   -2.3713    1.0454   -0.1921 C   0  0  0  0  0  0
   -1.2713    0.2398    0.1035 C   0  0  0  0  0  0
    3.4971    3.3387    0.8400 C   0  0  0  0  0  0
    3.0871    4.3122   -0.0563 N   0  0  0  0  0  0
    1.8645    3.9732   -0.3969 C   0  0  0  0  0  0
    0.9694   -1.3167   -0.1466 O   0  0  0  0  0  0
   -1.4209   -0.8352    0.2057 H   0  0  0  0  0  0
    4.8191    3.3610    1.4656 C   0  0  0  0  0  0
    5.2222    2.5330    2.2741 O   0  0  0  0  0  0
    5.5889    4.4133    1.0629 N   0  0  0  0  0  0
    1.4517    1.3589    2.5671 H   0  0  0  0  0  0
   -0.8432    4.0519   -0.3814 H   0  0  0  0  0  0
   -3.0520    3.0399   -0.6131 H   0  0  0  0  0  0
   -3.3582    0.6003   -0.2948 H   0  0  0  0  0  0
    1.2538    4.5144   -1.1072 H   0  0  0  0  0  0
    5.2198    5.0564    0.3716 H   0  0  0  0  0  0
    6.5301    4.5075    1.4097 H   0  0  0  0  0  0
    3.3389   -0.8713    1.2229 C   0  0  0  0  0  0
    3.1985    1.1784    2.6378 H   0  0  0  0  0  0
    4.2868   -0.3574    1.0370 H   0  0  0  0  0  0
    3.3418   -1.2963    2.2310 H   0  0  0  0  0  0
    3.2311   -1.6813    0.4970 H   0  0  0  0  0  0
  1  2  2  0  0  0
  1  7  1  0  0  0
  1  8  1  0  0  0
  2  3  1  0  0  0
  2 11  1  0  0  0
  3  4  1  0  0  0
  3 15  2  0  0  0
  4  5  1  0  0  0
  4 27  1  0  0  0
  5  6  1  0  0  0
  5 20  1  0  0  0
  5 28  1  0  0  0
  6  7  1  0  0  0
  6 12  2  0  0  0
  7 14  1  0  0  0
  8  9  2  0  0  0
  8 21  1  0  0  0
  9 10  1  0  0  0
  9 22  1  0  0  0
 10 11  2  0  0  0
 10 23  1  0  0  0
 11 16  1  0  0  0
 12 13  1  0  0  0
 12 17  1  0  0  0
 13 14  2  0  0  0
 14 24  1  0  0  0
 17 18  2  0  0  0
 17 19  1  0  0  0
 19 25  1  0  0  0
 19 26  1  0  0  0
 27 29  1  0  0  0
 27 30  1  0  0  0
 27 31  1  0  0  0
M  END
>  <Name>
Ro15-2427

>  <Family>
A.25

>  <IC50_uM>
>1

>  <set>
2

$$$$
Ro14-7437
  Cerius2 12180215283D 1   1.00000                          
 Structure written by MMmdl.
 36 38  0  0  0  0  0  0  0  0999 V2000
    0.1911    2.1752    0.0695 C   0  0  0  0  0  0
    0.0201    0.7860    0.2387 C   0  0  0  0  0  0
    1.1160   -0.2234    0.4016 C   0  0  0  0  0  0
    2.2487    0.0893    1.1356 N   0  0  0  0  0  0
    2.3437    1.2687    1.9597 C   0  0  0  0  0  0
    2.4812    2.4182    1.0493 C   0  0  0  0  0  0
    1.4511    2.8095    0.2210 N   0  0  0  0  0  0
   -0.9207    2.9768   -0.2591 C   0  0  0  0  0  0
   -2.1918    2.4145   -0.3890 C   0  0  0  0  0  0
   -2.3696    1.0490   -0.2075 C   0  0  0  0  0  0
   -1.2718    0.2423    0.0924 C   0  0  0  0  0  0
    3.5116    3.3260    0.8452 C   0  0  0  0  0  0
    3.0939    4.3030   -0.0405 N   0  0  0  0  0  0
    1.8690    3.9745   -0.3789 C   0  0  0  0  0  0
    0.9654   -1.3204   -0.1363 O   0  0  0  0  0  0
   -1.4243   -0.8328    0.1894 H   0  0  0  0  0  0
    4.8412    3.3138    1.4647 C   0  0  0  0  0  0
    5.2055    2.4639    2.2711 O   0  0  0  0  0  0
    5.6228    4.3507    1.0420 O   0  0  0  0  0  0
    1.4353    1.3567    2.5679 H   0  0  0  0  0  0
   -0.8364    4.0542   -0.3838 H   0  0  0  0  0  0
   -3.0451    3.0450   -0.6299 H   0  0  0  0  0  0
   -3.3564    0.6047   -0.3169 H   0  0  0  0  0  0
    1.2618    4.5257   -1.0845 H   0  0  0  0  0  0
    6.9360    4.3772    1.6084 C   0  0  0  0  0  0
    3.3357   -0.8710    1.2317 C   0  0  0  0  0  0
    3.1792    1.1706    2.6573 H   0  0  0  0  0  0
    4.2831   -0.3548    1.0497 H   0  0  0  0  0  0
    3.3384   -1.2975    2.2392 H   0  0  0  0  0  0
    3.2317   -1.6798    0.5039 H   0  0  0  0  0  0
    7.6789    5.5653    1.0285 C   0  0  0  0  0  0
    6.8672    4.4799    2.6972 H   0  0  0  0  0  0
    7.4671    3.4521    1.3576 H   0  0  0  0  0  0
    8.6909    5.6309    1.4378 H   0  0  0  0  0  0
    7.7427    5.4851   -0.0618 H   0  0  0  0  0  0
    7.1475    6.4970    1.2486 H   0  0  0  0  0  0
  1  2  2  0  0  0
  1  7  1  0  0  0
  1  8  1  0  0  0
  2  3  1  0  0  0
  2 11  1  0  0  0
  3  4  1  0  0  0
  3 15  2  0  0  0
  4  5  1  0  0  0
  4 26  1  0  0  0
  5  6  1  0  0  0
  5 20  1  0  0  0
  5 27  1  0  0  0
  6  7  1  0  0  0
  6 12  2  0  0  0
  7 14  1  0  0  0
  8  9  2  0  0  0
  8 21  1  0  0  0
  9 10  1  0  0  0
  9 22  1  0  0  0
 10 11  2  0  0  0
 10 23  1  0  0  0
 11 16  1  0  0  0
 12 13  1  0  0  0
 12 17  1  0  0  0
 13 14  2  0  0  0
 14 24  1  0  0  0
 17 18  2  0  0  0
 17 19  1  0  0  0
 19 25  1  0  0  0
 25 31  1  0  0  0
 25 32  1  0  0  0
 25 33  1  0  0  0
 26 28  1  0  0  0
 26 29  1  0  0  0
 26 30  1  0  0  0
 31 34  1  0  0  0
 31 35  1  0  0  0
 31 36  1  0  0  0
M  END
>  <Name>
Ro14-7437

>  <Family>
A.25

>  <IC50_uM>
0.003000

>  <set>
0

$$$$
Ro15-3505
  Cerius2 12180215283D 1   1.00000                          
 Structure written by MMmdl.
 36 38  0  0  0  0  0  0  0  0999 V2000
    0.1826    2.1548    0.0366 C   0  0  0  0  0  0
   -0.0004    0.7746    0.2870 C   0  0  0  0  0  0
    1.1504   -0.1715    0.3686 C   0  0  0  0  0  0
    2.1819    0.0830    1.2635 N   0  0  0  0  0  0
    2.2568    1.3052    2.0284 C   0  0  0  0  0  0
    2.4476    2.4071    1.0622 C   0  0  0  0  0  0
    1.4516    2.7749    0.1790 N   0  0  0  0  0  0
   -0.9164    2.9564   -0.3206 C   0  0  0  0  0  0
   -2.1964    2.4075   -0.3791 C   0  0  0  0  0  0
   -2.3915    1.0625   -0.0768 C   0  0  0  0  0  0
   -1.3033    0.2451    0.2496 C   0  0  0  0  0  0
    3.5062    3.2749    0.8334 C   0  0  0  0  0  0
    3.1319    4.2157   -0.1104 N   0  0  0  0  0  0
    1.9063    3.9025   -0.4615 C   0  0  0  0  0  0
    1.1654   -1.1208   -0.4116 O   0  0  0  0  0  0
   -1.6678   -1.3978    0.6573 Cl  0  0  0  0  0  0
    4.8219    3.2532    1.4803 C   0  0  0  0  0  0
    5.1497    2.4175    2.3165 O   0  0  0  0  0  0
    5.6359    4.2587    1.0448 O   0  0  0  0  0  0
    1.3200    1.4371    2.5835 H   0  0  0  0  0  0
   -0.8147    4.0226   -0.5141 H   0  0  0  0  0  0
   -3.0477    3.0335   -0.6401 H   0  0  0  0  0  0
   -3.3980    0.6496   -0.1057 H   0  0  0  0  0  0
    1.3260    4.4360   -1.2025 H   0  0  0  0  0  0
    6.9423    4.2612    1.6274 C   0  0  0  0  0  0
    3.3758   -0.7469    1.2242 C   0  0  0  0  0  0
    3.0528    1.2336    2.7735 H   0  0  0  0  0  0
    4.1618   -0.2084    0.6865 H   0  0  0  0  0  0
    3.7030   -0.9514    2.2476 H   0  0  0  0  0  0
    3.1896   -1.6983    0.7193 H   0  0  0  0  0  0
    7.7194    5.4253    1.0445 C   0  0  0  0  0  0
    6.8640    4.3764    2.7142 H   0  0  0  0  0  0
    7.4543    3.3215    1.3921 H   0  0  0  0  0  0
    8.7309    5.4639    1.4582 H   0  0  0  0  0  0
    7.7856    5.3389   -0.0452 H   0  0  0  0  0  0
    7.2131    6.3725    1.2581 H   0  0  0  0  0  0
  1  2  2  0  0  0
  1  7  1  0  0  0
  1  8  1  0  0  0
  2  3  1  0  0  0
  2 11  1  0  0  0
  3  4  1  0  0  0
  3 15  2  0  0  0
  4  5  1  0  0  0
  4 26  1  0  0  0
  5  6  1  0  0  0
  5 20  1  0  0  0
  5 27  1  0  0  0
  6  7  1  0  0  0
  6 12  2  0  0  0
  7 14  1  0  0  0
  8  9  2  0  0  0
  8 21  1  0  0  0
  9 10  1  0  0  0
  9 22  1  0  0  0
 10 11  2  0  0  0
 10 23  1  0  0  0
 11 16  1  0  0  0
 12 13  1  0  0  0
 12 17  1  0  0  0
 13 14  2  0  0  0
 14 24  1  0  0  0
 17 18  2  0  0  0
 17 19  1  0  0  0
 19 25  1  0  0  0
 25 31  1  0  0  0
 25 32  1  0  0  0
 25 33  1  0  0  0
 26 28  1  0  0  0
 26 29  1  0  0  0
 26 30  1  0  0  0
 31 34  1  0  0  0
 31 35  1  0  0  0
 31 36  1  0  0  0
M  END
>  <Name>
Ro15-3505

>  <Family>
A.25

>  <IC50_uM>
0.002700

>  <set>
0

$$$$
Ro15-1310
  Cerius2 12180215283D 1   1.00000                          
 Structure written by MMmdl.
 36 38  0  0  0  0  0  0  0  0999 V2000
    0.1913    2.1765    0.0670 C   0  0  0  0  0  0
    0.0198    0.7869    0.2420 C   0  0  0  0  0  0
    1.1165   -0.2196    0.4020 C   0  0  0  0  0  0
    2.2455    0.0919    1.1401 N   0  0  0  0  0  0
    2.3406    1.2720    1.9630 C   0  0  0  0  0  0
    2.4781    2.4198    1.0504 C   0  0  0  0  0  0
    1.4512    2.8106    0.2187 N   0  0  0  0  0  0
   -0.9193    2.9773   -0.2650 C   0  0  0  0  0  0
   -2.1896    2.4117   -0.3910 C   0  0  0  0  0  0
   -2.3603    1.0458   -0.2017 C   0  0  0  0  0  0
   -1.2695    0.2372    0.1029 C   0  0  0  0  0  0
    3.5092    3.3260    0.8471 C   0  0  0  0  0  0
    3.0953    4.3007   -0.0424 N   0  0  0  0  0  0
    1.8709    3.9739   -0.3830 C   0  0  0  0  0  0
    0.9671   -1.3115   -0.1450 O   0  0  0  0  0  0
    4.8345    3.3131    1.4719 C   0  0  0  0  0  0
    5.2032    2.4489    2.2614 O   0  0  0  0  0  0
    5.6058    4.3667    1.0763 O   0  0  0  0  0  0
    1.4321    1.3618    2.5709 H   0  0  0  0  0  0
   -0.8361    4.0548   -0.3926 H   0  0  0  0  0  0
   -3.0415    3.0435   -0.6320 H   0  0  0  0  0  0
   -3.9251    0.3523   -0.3589 Cl  0  0  0  0  0  0
    1.2664    4.5252   -1.0910 H   0  0  0  0  0  0
    6.9143    4.3925    1.6509 C   0  0  0  0  0  0
    3.3358   -0.8655    1.2309 C   0  0  0  0  0  0
    3.1759    1.1748    2.6607 H   0  0  0  0  0  0
    4.2804   -0.3470    1.0410 H   0  0  0  0  0  0
    3.3458   -1.2893    2.2394 H   0  0  0  0  0  0
    3.2285   -1.6761    0.5056 H   0  0  0  0  0  0
    7.6461    5.6022    1.1036 C   0  0  0  0  0  0
    6.8391    4.4681    2.7414 H   0  0  0  0  0  0
    7.4569    3.4799    1.3805 H   0  0  0  0  0  0
    8.6549    5.6697    1.5199 H   0  0  0  0  0  0
    7.7164    5.5483    0.0121 H   0  0  0  0  0  0
    7.1022    6.5221    1.3422 H   0  0  0  0  0  0
   -1.4156   -0.8373    0.2107 H   0  0  0  0  0  0
  1  2  2  0  0  0
  1  7  1  0  0  0
  1  8  1  0  0  0
  2  3  1  0  0  0
  2 11  1  0  0  0
  3  4  1  0  0  0
  3 15  2  0  0  0
  4  5  1  0  0  0
  4 25  1  0  0  0
  5  6  1  0  0  0
  5 19  1  0  0  0
  5 26  1  0  0  0
  6  7  1  0  0  0
  6 12  2  0  0  0
  7 14  1  0  0  0
  8  9  2  0  0  0
  8 20  1  0  0  0
  9 10  1  0  0  0
  9 21  1  0  0  0
 10 11  2  0  0  0
 10 22  1  0  0  0
 11 36  1  0  0  0
 12 13  1  0  0  0
 12 16  1  0  0  0
 13 14  2  0  0  0
 14 23  1  0  0  0
 16 17  2  0  0  0
 16 18  1  0  0  0
 18 24  1  0  0  0
 24 30  1  0  0  0
 24 31  1  0  0  0
 24 32  1  0  0  0
 25 27  1  0  0  0
 25 28  1  0  0  0
 25 29  1  0  0  0
 30 33  1  0  0  0
 30 34  1  0  0  0
 30 35  1  0  0  0
M  END
>  <Name>
Ro15-1310

>  <Family>
A.25

>  <IC50_uM>
0.006800

>  <set>
2

$$$$
Ro15-1746
  Cerius2 12180215283D 1   1.00000                          
 Structure written by MMmdl.
 36 38  0  0  0  0  0  0  0  0999 V2000
    0.1906    2.1764    0.0693 C   0  0  0  0  0  0
    0.0199    0.7866    0.2418 C   0  0  0  0  0  0
    1.1164   -0.2227    0.4032 C   0  0  0  0  0  0
    2.2496    0.0905    1.1350 N   0  0  0  0  0  0
    2.3449    1.2689    1.9603 C   0  0  0  0  0  0
    2.4803    2.4188    1.0500 C   0  0  0  0  0  0
    1.4507    2.8110    0.2214 N   0  0  0  0  0  0
   -0.9206    2.9788   -0.2618 C   0  0  0  0  0  0
   -2.1885    2.4109   -0.3913 C   0  0  0  0  0  0
   -2.3709    1.0469   -0.2093 C   0  0  0  0  0  0
   -1.2725    0.2415    0.0967 C   0  0  0  0  0  0
    3.5114    3.3255    0.8455 C   0  0  0  0  0  0
    3.0942    4.3022   -0.0404 N   0  0  0  0  0  0
    1.8690    3.9758   -0.3789 C   0  0  0  0  0  0
    0.9636   -1.3179   -0.1363 O   0  0  0  0  0  0
    4.8410    3.3119    1.4646 C   0  0  0  0  0  0
    5.2038    2.4606    2.2702 O   0  0  0  0  0  0
    5.6238    4.3476    1.0425 O   0  0  0  0  0  0
    1.4366    1.3563    2.5692 H   0  0  0  0  0  0
   -0.8309    4.0560   -0.3841 H   0  0  0  0  0  0
   -3.5365    3.4099   -0.7707 Cl  0  0  0  0  0  0
   -3.3551    0.5981   -0.3198 H   0  0  0  0  0  0
    1.2633    4.5287   -1.0849 H   0  0  0  0  0  0
    6.9371    4.3716    1.6087 C   0  0  0  0  0  0
    3.3372   -0.8698    1.2293 C   0  0  0  0  0  0
    3.1810    1.1706    2.6569 H   0  0  0  0  0  0
    4.2847   -0.3539    1.0463 H   0  0  0  0  0  0
    3.3393   -1.2975    2.2363 H   0  0  0  0  0  0
    3.2319   -1.6774    0.5004 H   0  0  0  0  0  0
    7.6807    5.5596    1.0304 C   0  0  0  0  0  0
    6.8680    4.4730    2.6975 H   0  0  0  0  0  0
    7.4668    3.4460    1.3567 H   0  0  0  0  0  0
    8.6931    5.6228    1.4388 H   0  0  0  0  0  0
    7.7441    5.4809   -0.0599 H   0  0  0  0  0  0
    7.1506    6.4918    1.2520 H   0  0  0  0  0  0
   -1.4241   -0.8336    0.1988 H   0  0  0  0  0  0
  1  2  2  0  0  0
  1  7  1  0  0  0
  1  8  1  0  0  0
  2  3  1  0  0  0
  2 11  1  0  0  0
  3  4  1  0  0  0
  3 15  2  0  0  0
  4  5  1  0  0  0
  4 25  1  0  0  0
  5  6  1  0  0  0
  5 19  1  0  0  0
  5 26  1  0  0  0
  6  7  1  0  0  0
  6 12  2  0  0  0
  7 14  1  0  0  0
  8  9  2  0  0  0
  8 20  1  0  0  0
  9 10  1  0  0  0
  9 21  1  0  0  0
 10 11  2  0  0  0
 10 22  1  0  0  0
 11 36  1  0  0  0
 12 13  1  0  0  0
 12 16  1  0  0  0
 13 14  2  0  0  0
 14 23  1  0  0  0
 16 17  2  0  0  0
 16 18  1  0  0  0
 18 24  1  0  0  0
 24 30  1  0  0  0
 24 31  1  0  0  0
 24 32  1  0  0  0
 25 27  1  0  0  0
 25 28  1  0  0  0
 25 29  1  0  0  0
 30 33  1  0  0  0
 30 34  1  0  0  0
 30 35  1  0  0  0
M  END
>  <Name>
Ro15-1746

>  <Family>
A.25

>  <IC50_uM>
>1

>  <set>
1

$$$$
Ro15-3237
  Cerius2 12180215283D 1   1.00000                          
 Structure written by MMmdl.
 36 38  0  0  0  0  0  0  0  0999 V2000
    0.1635    2.2166    0.0958 C   0  0  0  0  0  0
    0.0272    0.8129    0.2100 C   0  0  0  0  0  0
    1.1505   -0.1663    0.3543 C   0  0  0  0  0  0
    2.2033    0.1145    1.2111 N   0  0  0  0  0  0
    2.2693    1.3165    2.0096 C   0  0  0  0  0  0
    2.4551    2.4306    1.0634 C   0  0  0  0  0  0
    1.4450    2.8196    0.2067 N   0  0  0  0  0  0
   -0.9921    2.9939   -0.1295 C   0  0  0  0  0  0
   -2.2450    2.3810   -0.2716 C   0  0  0  0  0  0
   -2.3721    1.0002   -0.1843 C   0  0  0  0  0  0
   -1.2435    0.2239    0.0556 C   0  0  0  0  0  0
    3.5242    3.2811    0.8230 C   0  0  0  0  0  0
    3.1765    4.1857   -0.1618 N   0  0  0  0  0  0
    1.9503    3.8754   -0.5147 C   0  0  0  0  0  0
    1.0809   -1.2079   -0.2959 O   0  0  0  0  0  0
    4.8356    3.2623    1.4790 C   0  0  0  0  0  0
    5.1497    2.4435    2.3374 O   0  0  0  0  0  0
    5.6597    4.2547    1.0312 O   0  0  0  0  0  0
    1.3333    1.4272    2.5700 H   0  0  0  0  0  0
   -1.0244    4.7265   -0.1021 Cl  0  0  0  0  0  0
   -3.1365    2.9835   -0.4372 H   0  0  0  0  0  0
   -3.3455    0.5290   -0.3015 H   0  0  0  0  0  0
    1.4057    4.3609   -1.3137 H   0  0  0  0  0  0
    6.9518    4.2773    1.6444 C   0  0  0  0  0  0
    3.3419   -0.7876    1.2812 C   0  0  0  0  0  0
    3.0707    1.2342    2.7477 H   0  0  0  0  0  0
    4.2353   -0.2543    0.9426 H   0  0  0  0  0  0
    3.4762   -1.1044    2.3197 H   0  0  0  0  0  0
    3.2040   -1.6740    0.6572 H   0  0  0  0  0  0
    7.7341    5.4394    1.0639 C   0  0  0  0  0  0
    6.8470    4.4079    2.7272 H   0  0  0  0  0  0
    7.4761    3.3384    1.4355 H   0  0  0  0  0  0
    8.7311    5.5003    1.5093 H   0  0  0  0  0  0
    7.8371    5.3314   -0.0209 H   0  0  0  0  0  0
    7.2094    6.3838    1.2416 H   0  0  0  0  0  0
   -1.3504   -0.8604    0.1055 H   0  0  0  0  0  0
  1  2  2  0  0  0
  1  7  1  0  0  0
  1  8  1  0  0  0
  2  3  1  0  0  0
  2 11  1  0  0  0
  3  4  1  0  0  0
  3 15  2  0  0  0
  4  5  1  0  0  0
  4 25  1  0  0  0
  5  6  1  0  0  0
  5 19  1  0  0  0
  5 26  1  0  0  0
  6  7  1  0  0  0
  6 12  2  0  0  0
  7 14  1  0  0  0
  8  9  2  0  0  0
  8 20  1  0  0  0
  9 10  1  0  0  0
  9 21  1  0  0  0
 10 11  2  0  0  0
 10 22  1  0  0  0
 11 36  1  0  0  0
 12 13  1  0  0  0
 12 16  1  0  0  0
 13 14  2  0  0  0
 14 23  1  0  0  0
 16 17  2  0  0  0
 16 18  1  0  0  0
 18 24  1  0  0  0
 24 30  1  0  0  0
 24 31  1  0  0  0
 24 32  1  0  0  0
 25 27  1  0  0  0
 25 28  1  0  0  0
 25 29  1  0  0  0
 30 33  1  0  0  0
 30 34  1  0  0  0
 30 35  1  0  0  0
M  END
>  <Name>
Ro15-3237

>  <Family>
A.25

>  <IC50_uM>
>1

>  <set>
0

$$$$
Ro15-5623
  Cerius2 12180215283D 1   1.00000                          
 Structure written by MMmdl.
 36 38  0  0  0  0  0  0  0  0999 V2000
    0.1886    2.1674    0.0514 C   0  0  0  0  0  0
    0.0138    0.7841    0.2657 C   0  0  0  0  0  0
    1.1269   -0.1989    0.3841 C   0  0  0  0  0  0
    2.2066    0.0834    1.2084 N   0  0  0  0  0  0
    2.2992    1.2886    1.9960 C   0  0  0  0  0  0
    2.4656    2.4112    1.0522 C   0  0  0  0  0  0
    1.4533    2.7928    0.1957 N   0  0  0  0  0  0
   -0.9200    2.9660   -0.2926 C   0  0  0  0  0  0
   -2.1958    2.4058   -0.3817 C   0  0  0  0  0  0
   -2.3763    1.0502   -0.1319 C   0  0  0  0  0  0
   -1.2793    0.2504    0.1805 C   0  0  0  0  0  0
    3.5104    3.2991    0.8365 C   0  0  0  0  0  0
    3.1162    4.2577   -0.0799 N   0  0  0  0  0  0
    1.8904    3.9389   -0.4247 C   0  0  0  0  0  0
    1.0643   -1.2205   -0.2967 O   0  0  0  0  0  0
   -1.5077   -1.0509    0.4122 F   0  0  0  0  0  0
    4.8298    3.2847    1.4754 C   0  0  0  0  0  0
    5.1724    2.4447    2.3016 O   0  0  0  0  0  0
    5.6271    4.3070    1.0489 O   0  0  0  0  0  0
    1.3773    1.4066    2.5783 H   0  0  0  0  0  0
   -0.8284    4.0378   -0.4567 H   0  0  0  0  0  0
   -3.0506    3.0297   -0.6347 H   0  0  0  0  0  0
   -3.3634    0.5999   -0.1908 H   0  0  0  0  0  0
    1.2968    4.4832   -1.1473 H   0  0  0  0  0  0
    6.9301    4.3316    1.6384 C   0  0  0  0  0  0
    3.3541   -0.8097    1.2293 C   0  0  0  0  0  0
    3.1152    1.2026    2.7176 H   0  0  0  0  0  0
    4.2232   -0.2754    0.8338 H   0  0  0  0  0  0
    3.5486   -1.1102    2.2631 H   0  0  0  0  0  0
    3.1892   -1.7070    0.6278 H   0  0  0  0  0  0
    7.6910    5.5048    1.0525 C   0  0  0  0  0  0
    6.8426    4.4524    2.7239 H   0  0  0  0  0  0
    7.4580    3.3985    1.4120 H   0  0  0  0  0  0
    8.6967    5.5694    1.4769 H   0  0  0  0  0  0
    7.7718    5.4064   -0.0352 H   0  0  0  0  0  0
    7.1623    6.4437    1.2485 H   0  0  0  0  0  0
  1  2  2  0  0  0
  1  7  1  0  0  0
  1  8  1  0  0  0
  2  3  1  0  0  0
  2 11  1  0  0  0
  3  4  1  0  0  0
  3 15  2  0  0  0
  4  5  1  0  0  0
  4 26  1  0  0  0
  5  6  1  0  0  0
  5 20  1  0  0  0
  5 27  1  0  0  0
  6  7  1  0  0  0
  6 12  2  0  0  0
  7 14  1  0  0  0
  8  9  2  0  0  0
  8 21  1  0  0  0
  9 10  1  0  0  0
  9 22  1  0  0  0
 10 11  2  0  0  0
 10 23  1  0  0  0
 11 16  1  0  0  0
 12 13  1  0  0  0
 12 17  1  0  0  0
 13 14  2  0  0  0
 14 24  1  0  0  0
 17 18  2  0  0  0
 17 19  1  0  0  0
 19 25  1  0  0  0
 25 31  1  0  0  0
 25 32  1  0  0  0
 25 33  1  0  0  0
 26 28  1  0  0  0
 26 29  1  0  0  0
 26 30  1  0  0  0
 31 34  1  0  0  0
 31 35  1  0  0  0
 31 36  1  0  0  0
M  END
>  <Name>
Ro15-5623

>  <Family>
A.25

>  <IC50_uM>
0.002000

>  <set>
0

$$$$
Ro15-1788
  Cerius2 12180215283D 1   1.00000                          
 Structure written by MMmdl.
 36 38  0  0  0  0  0  0  0  0999 V2000
    0.1884    2.1771    0.0690 C   0  0  0  0  0  0
    0.0176    0.7859    0.2469 C   0  0  0  0  0  0
    1.1140   -0.2209    0.4089 C   0  0  0  0  0  0
    2.2439    0.0912    1.1454 N   0  0  0  0  0  0
    2.3395    1.2728    1.9658 C   0  0  0  0  0  0
    2.4774    2.4196    1.0520 C   0  0  0  0  0  0
    1.4477    2.8131    0.2243 N   0  0  0  0  0  0
   -0.9217    2.9771   -0.2728 C   0  0  0  0  0  0
   -2.1892    2.4091   -0.4051 C   0  0  0  0  0  0
   -2.3524    1.0468   -0.2094 C   0  0  0  0  0  0
   -1.2699    0.2367    0.1032 C   0  0  0  0  0  0
    3.5106    3.3227    0.8448 C   0  0  0  0  0  0
    3.0920    4.3043   -0.0346 N   0  0  0  0  0  0
    1.8646    3.9819   -0.3695 C   0  0  0  0  0  0
    0.9649   -1.3131   -0.1375 O   0  0  0  0  0  0
    4.8413    3.3033    1.4596 C   0  0  0  0  0  0
    5.2073    2.4452    2.2568 O   0  0  0  0  0  0
    5.6200    4.3447    1.0457 O   0  0  0  0  0  0
    1.4291    1.3650    2.5706 H   0  0  0  0  0  0
   -0.8392    4.0539   -0.4062 H   0  0  0  0  0  0
   -3.0504    3.0219   -0.6558 H   0  0  0  0  0  0
   -3.5691    0.5044   -0.3379 F   0  0  0  0  0  0
    1.2565    4.5401   -1.0688 H   0  0  0  0  0  0
    6.9293    4.3736    1.6191 C   0  0  0  0  0  0
    3.3441   -0.8569    1.2213 C   0  0  0  0  0  0
    3.1723    1.1769    2.6670 H   0  0  0  0  0  0
    4.2799   -0.3337    1.0024 H   0  0  0  0  0  0
    3.3824   -1.2697    2.2336 H   0  0  0  0  0  0
    3.2262   -1.6770    0.5088 H   0  0  0  0  0  0
    7.6717    5.5627    1.0415 C   0  0  0  0  0  0
    6.8525    4.4790    2.7070 H   0  0  0  0  0  0
    7.4646    3.4492    1.3739 H   0  0  0  0  0  0
    8.6786    5.6356    1.4615 H   0  0  0  0  0  0
    7.7487    5.4763   -0.0474 H   0  0  0  0  0  0
    7.1323    6.4927    1.2495 H   0  0  0  0  0  0
   -1.4344   -0.8341    0.2079 H   0  0  0  0  0  0
  1  2  2  0  0  0
  1  7  1  0  0  0
  1  8  1  0  0  0
  2  3  1  0  0  0
  2 11  1  0  0  0
  3  4  1  0  0  0
  3 15  2  0  0  0
  4  5  1  0  0  0
  4 25  1  0  0  0
  5  6  1  0  0  0
  5 19  1  0  0  0
  5 26  1  0  0  0
  6  7  1  0  0  0
  6 12  2  0  0  0
  7 14  1  0  0  0
  8  9  2  0  0  0
  8 20  1  0  0  0
  9 10  1  0  0  0
  9 21  1  0  0  0
 10 11  2  0  0  0
 10 22  1  0  0  0
 11 36  1  0  0  0
 12 13  1  0  0  0
 12 16  1  0  0  0
 13 14  2  0  0  0
 14 23  1  0  0  0
 16 17  2  0  0  0
 16 18  1  0  0  0
 18 24  1  0  0  0
 24 30  1  0  0  0
 24 31  1  0  0  0
 24 32  1  0  0  0
 25 27  1  0  0  0
 25 28  1  0  0  0
 25 29  1  0  0  0
 30 33  1  0  0  0
 30 34  1  0  0  0
 30 35  1  0  0  0
M  END
>  <Name>
Ro15-1788

>  <Family>
A.25

>  <IC50_uM>
0.002500

>  <set>
0

$$$$
Ro17-4896
  Cerius2 12180215283D 1   1.00000                          
 Structure written by MMmdl.
 36 38  0  0  0  0  0  0  0  0999 V2000
    0.1911    2.1775    0.0692 C   0  0  0  0  0  0
    0.0187    0.7868    0.2419 C   0  0  0  0  0  0
    1.1146   -0.2227    0.4048 C   0  0  0  0  0  0
    2.2488    0.0908    1.1341 N   0  0  0  0  0  0
    2.3464    1.2689    1.9595 C   0  0  0  0  0  0
    2.4803    2.4197    1.0502 C   0  0  0  0  0  0
    1.4503    2.8123    0.2226 N   0  0  0  0  0  0
   -0.9188    2.9778   -0.2646 C   0  0  0  0  0  0
   -2.1805    2.4057   -0.3926 C   0  0  0  0  0  0
   -2.3712    1.0465   -0.2103 C   0  0  0  0  0  0
   -1.2746    0.2408    0.0960 C   0  0  0  0  0  0
    3.5111    3.3268    0.8461 C   0  0  0  0  0  0
    3.0934    4.3042   -0.0387 N   0  0  0  0  0  0
    1.8674    3.9788   -0.3753 C   0  0  0  0  0  0
    0.9605   -1.3191   -0.1325 O   0  0  0  0  0  0
    4.8413    3.3117    1.4638 C   0  0  0  0  0  0
    5.2052    2.4592    2.2676 O   0  0  0  0  0  0
    5.6230    4.3487    1.0434 O   0  0  0  0  0  0
    1.4405    1.3563    2.5716 H   0  0  0  0  0  0
   -0.8487    4.0542   -0.3941 H   0  0  0  0  0  0
   -3.2272    3.1857   -0.6899 F   0  0  0  0  0  0
   -3.3622    0.6174   -0.3232 H   0  0  0  0  0  0
    1.2600    4.5328   -1.0786 H   0  0  0  0  0  0
    6.9364    4.3728    1.6089 C   0  0  0  0  0  0
    3.3362   -0.8700    1.2275 C   0  0  0  0  0  0
    3.1842    1.1698    2.6542 H   0  0  0  0  0  0
    4.2839   -0.3535    1.0473 H   0  0  0  0  0  0
    3.3378   -1.2998    2.2335 H   0  0  0  0  0  0
    3.2321   -1.6765    0.4971 H   0  0  0  0  0  0
    7.6789    5.5620    1.0310 C   0  0  0  0  0  0
    6.8684    4.4730    2.6979 H   0  0  0  0  0  0
    7.4671    3.4481    1.3559 H   0  0  0  0  0  0
    8.6914    5.6259    1.4391 H   0  0  0  0  0  0
    7.7410    5.4841   -0.0594 H   0  0  0  0  0  0
    7.1482    6.4933    1.2539 H   0  0  0  0  0  0
   -1.4261   -0.8342    0.1987 H   0  0  0  0  0  0
  1  2  2  0  0  0
  1  7  1  0  0  0
  1  8  1  0  0  0
  2  3  1  0  0  0
  2 11  1  0  0  0
  3  4  1  0  0  0
  3 15  2  0  0  0
  4  5  1  0  0  0
  4 25  1  0  0  0
  5  6  1  0  0  0
  5 19  1  0  0  0
  5 26  1  0  0  0
  6  7  1  0  0  0
  6 12  2  0  0  0
  7 14  1  0  0  0
  8  9  2  0  0  0
  8 20  1  0  0  0
  9 10  1  0  0  0
  9 21  1  0  0  0
 10 11  2  0  0  0
 10 22  1  0  0  0
 11 36  1  0  0  0
 12 13  1  0  0  0
 12 16  1  0  0  0
 13 14  2  0  0  0
 14 23  1  0  0  0
 16 17  2  0  0  0
 16 18  1  0  0  0
 18 24  1  0  0  0
 24 30  1  0  0  0
 24 31  1  0  0  0
 24 32  1  0  0  0
 25 27  1  0  0  0
 25 28  1  0  0  0
 25 29  1  0  0  0
 30 33  1  0  0  0
 30 34  1  0  0  0
 30 35  1  0  0  0
M  END
>  <Name>
Ro17-4896

>  <Family>
A.25

>  <IC50_uM>
>1

>  <set>
0

$$$$
Ro17-9741
  Cerius2 12180215283D 1   1.00000                          
 Structure written by MMmdl.
 34 37  0  0  0  0  0  0  0  0999 V2000
    0.2454    2.1128    0.0050 C   0  0  0  0  0  0
   -0.0149    0.7570    0.2769 C   0  0  0  0  0  0
    1.0560   -0.2612    0.3516 C   0  0  0  0  0  0
    2.0717   -0.0535    1.2315 N   0  0  0  0  0  0
    2.6278    1.1326    1.8431 C   0  0  0  0  0  0
    2.5808    2.3235    0.9240 C   0  0  0  0  0  0
    1.5431    2.6844    0.0883 N   0  0  0  0  0  0
   -0.8287    2.9743   -0.3045 C   0  0  0  0  0  0
   -2.1427    2.5099   -0.2989 C   0  0  0  0  0  0
   -2.4045    1.1844    0.0234 C   0  0  0  0  0  0
   -1.3516    0.3086    0.3064 C   0  0  0  0  0  0
    3.5044    3.3618    0.8648 C   0  0  0  0  0  0
    3.1209    4.2573   -0.1161 N   0  0  0  0  0  0
    1.9664    3.8240   -0.5591 C   0  0  0  0  0  0
    0.9947   -1.2559   -0.3649 O   0  0  0  0  0  0
   -1.8025   -1.3039    0.7550 Cl  0  0  0  0  0  0
    4.6928    3.5729    1.6992 C   0  0  0  0  0  0
    4.9235    2.9380    2.7230 O   0  0  0  0  0  0
    5.4971    4.5663    1.2195 O   0  0  0  0  0  0
    2.1882    1.3278    2.8276 H   0  0  0  0  0  0
   -0.6794    4.0340   -0.5044 H   0  0  0  0  0  0
   -2.9641    3.1883   -0.5197 H   0  0  0  0  0  0
   -3.4339    0.8332    0.0505 H   0  0  0  0  0  0
    1.3955    4.2997   -1.3460 H   0  0  0  0  0  0
    6.6584    4.8137    2.0086 C   0  0  0  0  0  0
    3.2248   -0.9008    1.4627 C   0  0  0  0  0  0
    3.9662    0.3599    1.8810 C   0  0  0  0  0  0
    3.6122   -1.3918    0.5666 H   0  0  0  0  0  0
    3.0553   -1.6321    2.2577 H   0  0  0  0  0  0
    6.3768    5.1387    3.0151 H   0  0  0  0  0  0
    7.2910    3.9214    2.0511 H   0  0  0  0  0  0
    7.2263    5.6182    1.5333 H   0  0  0  0  0  0
    4.7253    0.6648    1.1511 H   0  0  0  0  0  0
    4.4351    0.2977    2.8685 H   0  0  0  0  0  0
  1  2  2  0  0  0
  1  7  1  0  0  0
  1  8  1  0  0  0
  2  3  1  0  0  0
  2 11  1  0  0  0
  3  4  1  0  0  0
  3 15  2  0  0  0
  4  5  1  0  0  0
  4 26  1  0  0  0
  5  6  1  0  0  0
  5 20  1  0  0  0
  5 27  1  0  0  0
  6  7  1  0  0  0
  6 12  2  0  0  0
  7 14  1  0  0  0
  8  9  2  0  0  0
  8 21  1  0  0  0
  9 10  1  0  0  0
  9 22  1  0  0  0
 10 11  2  0  0  0
 10 23  1  0  0  0
 11 16  1  0  0  0
 12 13  1  0  0  0
 12 17  1  0  0  0
 13 14  2  0  0  0
 14 24  1  0  0  0
 17 18  2  0  0  0
 17 19  1  0  0  0
 19 25  1  0  0  0
 25 30  1  0  0  0
 25 31  1  0  0  0
 25 32  1  0  0  0
 26 28  1  0  0  0
 26 29  1  0  0  0
 27 26  1  0  0  0
 27 33  1  0  0  0
 27 34  1  0  0  0
M  END
>  <Name>
Ro17-9741

>  <Family>
A.26

>  <IC50_uM>
0.002400

>  <set>
2

$$$$
Ro16-0858
  Cerius2 12180215283D 1   1.00000                          
 Structure written by MMmdl.
 37 40  0  0  0  0  0  0  0  0999 V2000
    0.2422    2.1126   -0.0002 C   0  0  0  0  0  0
   -0.0156    0.7583    0.2806 C   0  0  0  0  0  0
    1.0583   -0.2559    0.3609 C   0  0  0  0  0  0
    2.0726   -0.0424    1.2405 N   0  0  0  0  0  0
    2.6184    1.1461    1.8562 C   0  0  0  0  0  0
    2.5691    2.3367    0.9375 C   0  0  0  0  0  0
    1.5371    2.6900    0.0918 N   0  0  0  0  0  0
   -0.8329    2.9661   -0.3270 C   0  0  0  0  0  0
   -2.1454    2.4958   -0.3287 C   0  0  0  0  0  0
   -2.4054    1.1734    0.0067 C   0  0  0  0  0  0
   -1.3511    0.3054    0.3074 C   0  0  0  0  0  0
    3.4869    3.3807    0.8880 C   0  0  0  0  0  0
    3.1097    4.2714   -0.0992 N   0  0  0  0  0  0
    1.9625    3.8300   -0.5540 C   0  0  0  0  0  0
    1.0017   -1.2523   -0.3538 O   0  0  0  0  0  0
   -1.7975   -1.3031    0.7733 Cl  0  0  0  0  0  0
    4.6631    3.5970    1.7390 C   0  0  0  0  0  0
    5.0126    2.8177    2.6196 O   0  0  0  0  0  0
    5.3100    4.7653    1.4547 O   0  0  0  0  0  0
    2.1737    1.3380    2.8390 H   0  0  0  0  0  0
   -0.6867    4.0245   -0.5366 H   0  0  0  0  0  0
   -2.9672    3.1684   -0.5661 H   0  0  0  0  0  0
   -3.4339    0.8185    0.0288 H   0  0  0  0  0  0
    1.3973    4.3001   -1.3483 H   0  0  0  0  0  0
    6.4595    5.0171    2.2686 C   0  0  0  0  0  0
    3.2308   -0.8821    1.4721 C   0  0  0  0  0  0
    3.9614    0.3816    1.9000 C   0  0  0  0  0  0
    3.6254   -1.3649    0.5748 H   0  0  0  0  0  0
    3.0639   -1.6186    2.2626 H   0  0  0  0  0  0
    6.1603    5.0829    3.3207 H   0  0  0  0  0  0
    7.1874    4.2080    2.1413 H   0  0  0  0  0  0
    7.0766    6.3308    1.8305 C   0  0  0  0  0  0
    4.7237    0.6945    1.1769 H   0  0  0  0  0  0
    4.4240    0.3189    2.8905 H   0  0  0  0  0  0
    7.9629    6.5630    2.4278 H   0  0  0  0  0  0
    7.3632    6.2890    0.7747 H   0  0  0  0  0  0
    6.3566    7.1491    1.9335 H   0  0  0  0  0  0
  1  2  2  0  0  0
  1  7  1  0  0  0
  1  8  1  0  0  0
  2  3  1  0  0  0
  2 11  1  0  0  0
  3  4  1  0  0  0
  3 15  2  0  0  0
  4  5  1  0  0  0
  4 26  1  0  0  0
  5  6  1  0  0  0
  5 20  1  0  0  0
  5 27  1  0  0  0
  6  7  1  0  0  0
  6 12  2  0  0  0
  7 14  1  0  0  0
  8  9  2  0  0  0
  8 21  1  0  0  0
  9 10  1  0  0  0
  9 22  1  0  0  0
 10 11  2  0  0  0
 10 23  1  0  0  0
 11 16  1  0  0  0
 12 13  1  0  0  0
 12 17  1  0  0  0
 13 14  2  0  0  0
 14 24  1  0  0  0
 17 18  2  0  0  0
 17 19  1  0  0  0
 19 25  1  0  0  0
 25 30  1  0  0  0
 25 31  1  0  0  0
 25 32  1  0  0  0
 26 28  1  0  0  0
 26 29  1  0  0  0
 27 26  1  0  0  0
 27 33  1  0  0  0
 27 34  1  0  0  0
 32 35  1  0  0  0
 32 36  1  0  0  0
 32 37  1  0  0  0
M  END
>  <Name>
Ro16-0858

>  <Family>
A.26

>  <IC50_uM>
0.001300

>  <set>
0

$$$$
Ro16-0153
  Cerius2 12180215283D 1   1.00000                          
 Structure written by MMmdl.
 43 46  0  0  0  0  0  0  0  0999 V2000
    0.2434    2.1116   -0.0003 C   0  0  0  0  0  0
   -0.0174    0.7587    0.2874 C   0  0  0  0  0  0
    1.0532   -0.2599    0.3699 C   0  0  0  0  0  0
    2.0790   -0.0427    1.2346 N   0  0  0  0  0  0
    2.6251    1.1437    1.8528 C   0  0  0  0  0  0
    2.5699    2.3367    0.9383 C   0  0  0  0  0  0
    1.5387    2.6889    0.0918 N   0  0  0  0  0  0
   -0.8290    2.9654   -0.3350 C   0  0  0  0  0  0
   -2.1423    2.4983   -0.3387 C   0  0  0  0  0  0
   -2.4056    1.1785    0.0041 C   0  0  0  0  0  0
   -1.3542    0.3094    0.3136 C   0  0  0  0  0  0
    3.4851    3.3830    0.8921 C   0  0  0  0  0  0
    3.1094    4.2730   -0.0964 N   0  0  0  0  0  0
    1.9643    3.8290   -0.5546 C   0  0  0  0  0  0
    0.9866   -1.2633   -0.3344 O   0  0  0  0  0  0
   -1.8074   -1.2960    0.7849 Cl  0  0  0  0  0  0
    4.6591    3.6004    1.7471 C   0  0  0  0  0  0
    4.9990    2.8170    2.6252 O   0  0  0  0  0  0
    5.2968    4.7673    1.4556 O   0  0  0  0  0  0
    2.1846    1.3305    2.8382 H   0  0  0  0  0  0
   -0.6803    4.0224   -0.5510 H   0  0  0  0  0  0
   -2.9620    3.1706   -0.5838 H   0  0  0  0  0  0
   -3.4347    0.8256    0.0253 H   0  0  0  0  0  0
    1.4020    4.2972   -1.3519 H   0  0  0  0  0  0
    6.4825    5.1754    2.1813 C   0  0  0  0  0  0
    3.2413   -0.8803    1.4536 C   0  0  0  0  0  0
    3.9706    0.3826    1.8862 C   0  0  0  0  0  0
    3.6328   -1.3544    0.5502 H   0  0  0  0  0  0
    3.0830   -1.6236    2.2395 H   0  0  0  0  0  0
    6.1747    5.4104    3.6640 C   0  0  0  0  0  0
    7.6269    4.1747    1.9856 C   0  0  0  0  0  0
    6.8874    6.5138    1.5448 C   0  0  0  0  0  0
    4.7292    0.7024    1.1623 H   0  0  0  0  0  0
    4.4383    0.3156    2.8737 H   0  0  0  0  0  0
    5.2978    6.0573    3.7816 H   0  0  0  0  0  0
    5.9476    4.4769    4.1877 H   0  0  0  0  0  0
    7.0231    5.8753    4.1780 H   0  0  0  0  0  0
    7.7662    3.9467    0.9227 H   0  0  0  0  0  0
    8.5697    4.5633    2.3861 H   0  0  0  0  0  0
    7.4279    3.2228    2.4870 H   0  0  0  0  0  0
    7.0742    6.3937    0.4712 H   0  0  0  0  0  0
    6.0796    7.2490    1.6368 H   0  0  0  0  0  0
    7.7881    6.9298    2.0083 H   0  0  0  0  0  0
  1  2  2  0  0  0
  1  7  1  0  0  0
  1  8  1  0  0  0
  2  3  1  0  0  0
  2 11  1  0  0  0
  3  4  1  0  0  0
  3 15  2  0  0  0
  4  5  1  0  0  0
  4 26  1  0  0  0
  5  6  1  0  0  0
  5 20  1  0  0  0
  5 27  1  0  0  0
  6  7  1  0  0  0
  6 12  2  0  0  0
  7 14  1  0  0  0
  8  9  2  0  0  0
  8 21  1  0  0  0
  9 10  1  0  0  0
  9 22  1  0  0  0
 10 11  2  0  0  0
 10 23  1  0  0  0
 11 16  1  0  0  0
 12 13  1  0  0  0
 12 17  1  0  0  0
 13 14  2  0  0  0
 14 24  1  0  0  0
 17 18  2  0  0  0
 17 19  1  0  0  0
 19 25  1  0  0  0
 25 30  1  0  0  0
 25 31  1  0  0  0
 25 32  1  0  0  0
 26 28  1  0  0  0
 26 29  1  0  0  0
 27 26  1  0  0  0
 27 33  1  0  0  0
 27 34  1  0  0  0
 30 35  1  0  0  0
 30 36  1  0  0  0
 30 37  1  0  0  0
 31 38  1  0  0  0
 31 39  1  0  0  0
 31 40  1  0  0  0
 32 41  1  0  0  0
 32 42  1  0  0  0
 32 43  1  0  0  0
M  END
>  <Name>
Ro16-0153

>  <Family>
A.26

>  <IC50_uM>
0.005300

>  <set>
0

$$$$
Ro17-1812
  Cerius2 12180215283D 1   1.00000                          
 Structure written by MMmdl.
 41 45  0  0  0  0  0  0  0  0999 V2000
    0.2416    2.1124    0.0000 C   0  0  0  0  0  0
   -0.0150    0.7574    0.2782 C   0  0  0  0  0  0
    1.0615   -0.2536    0.3552 C   0  0  0  0  0  0
    2.0684   -0.0447    1.2450 N   0  0  0  0  0  0
    2.6080    1.1462    1.8630 C   0  0  0  0  0  0
    2.5681    2.3325    0.9370 C   0  0  0  0  0  0
    1.5373    2.6870    0.0898 N   0  0  0  0  0  0
   -0.8327    2.9684   -0.3213 C   0  0  0  0  0  0
   -2.1449    2.4990   -0.3173 C   0  0  0  0  0  0
   -2.4037    1.1752    0.0151 C   0  0  0  0  0  0
   -1.3494    0.3039    0.3066 C   0  0  0  0  0  0
    3.4872    3.3747    0.8833 C   0  0  0  0  0  0
    3.1127    4.2625   -0.1083 N   0  0  0  0  0  0
    1.9636    3.8239   -0.5595 C   0  0  0  0  0  0
    1.0145   -1.2416   -0.3714 O   0  0  0  0  0  0
   -1.7933   -1.3085    0.7613 Cl  0  0  0  0  0  0
    4.6631    3.5983    1.7327 C   0  0  0  0  0  0
    5.0108    2.8228    2.6165 O   0  0  0  0  0  0
    5.2959    4.7676    1.4343 O   0  0  0  0  0  0
    2.1479    1.3439    2.8374 H   0  0  0  0  0  0
   -0.6848    4.0268   -0.5292 H   0  0  0  0  0  0
   -2.9684    3.1718   -0.5483 H   0  0  0  0  0  0
   -3.4324    0.8220    0.0434 H   0  0  0  0  0  0
    1.3992    4.2941   -1.3544 H   0  0  0  0  0  0
    6.9953    6.4026    1.7792 C   0  0  0  0  0  0
    3.2368   -0.8753    1.4577 C   0  0  0  0  0  0
    3.9482    0.3810    1.9348 C   0  0  0  0  0  0
    3.6452   -1.3212    0.5472 H   0  0  0  0  0  0
    3.0738   -1.6417    2.2200 H   0  0  0  0  0  0
    7.2285    6.3840    0.7202 H   0  0  0  0  0  0
    6.5237    7.7041    2.3756 C   0  0  0  0  0  0
    7.9084    7.1993    2.6745 C   0  0  0  0  0  0
    4.7358    0.7078    1.2464 H   0  0  0  0  0  0
    4.3757    0.2987    2.9396 H   0  0  0  0  0  0
    6.4226    8.5564    1.7135 H   0  0  0  0  0  0
    5.7929    7.6781    3.1768 H   0  0  0  0  0  0
    8.1072    6.8366    3.6765 H   0  0  0  0  0  0
    8.7441    7.7143    2.2153 H   0  0  0  0  0  0
    6.4289    5.0983    2.2423 C   0  0  0  0  0  0
    6.1869    5.0948    3.3119 H   0  0  0  0  0  0
    7.1732    4.3101    2.0857 H   0  0  0  0  0  0
  1  2  2  0  0  0
  1  7  1  0  0  0
  1  8  1  0  0  0
  2  3  1  0  0  0
  2 11  1  0  0  0
  3  4  1  0  0  0
  3 15  2  0  0  0
  4  5  1  0  0  0
  4 26  1  0  0  0
  5  6  1  0  0  0
  5 20  1  0  0  0
  5 27  1  0  0  0
  6  7  1  0  0  0
  6 12  2  0  0  0
  7 14  1  0  0  0
  8  9  2  0  0  0
  8 21  1  0  0  0
  9 10  1  0  0  0
  9 22  1  0  0  0
 10 11  2  0  0  0
 10 23  1  0  0  0
 11 16  1  0  0  0
 12 13  1  0  0  0
 12 17  1  0  0  0
 13 14  2  0  0  0
 14 24  1  0  0  0
 17 18  2  0  0  0
 17 19  1  0  0  0
 25 30  1  0  0  0
 25 31  1  0  0  0
 25 32  1  0  0  0
 25 39  1  0  0  0
 26 28  1  0  0  0
 26 29  1  0  0  0
 27 26  1  0  0  0
 27 33  1  0  0  0
 27 34  1  0  0  0
 31 35  1  0  0  0
 31 36  1  0  0  0
 32 31  1  0  0  0
 32 37  1  0  0  0
 32 38  1  0  0  0
 39 19  1  0  0  0
 39 40  1  0  0  0
 39 41  1  0  0  0
M  END
>  <Name>
Ro17-1812

>  <Family>
A.26

>  <IC50_uM>
0.001300

>  <set>
0

$$$$
Ro17-3211
  Cerius2 12180215283D 1   1.00000                          
 Structure written by MMmdl.
 47 51  0  0  0  0  0  0  0  0999 V2000
    0.2379    2.1159    0.0056 C   0  0  0  0  0  0
   -0.0138    0.7579    0.2741 C   0  0  0  0  0  0
    1.0663   -0.2494    0.3529 C   0  0  0  0  0  0
    2.0653   -0.0404    1.2522 N   0  0  0  0  0  0
    2.6055    1.1520    1.8675 C   0  0  0  0  0  0
    2.5632    2.3387    0.9430 C   0  0  0  0  0  0
    1.5319    2.6933    0.0974 N   0  0  0  0  0  0
   -0.8396    2.9695   -0.3118 C   0  0  0  0  0  0
   -2.1499    2.4940   -0.3167 C   0  0  0  0  0  0
   -2.4042    1.1660    0.0019 C   0  0  0  0  0  0
   -1.3465    0.2981    0.2929 C   0  0  0  0  0  0
    3.4890    3.3741    0.8813 C   0  0  0  0  0  0
    3.1135    4.2632   -0.1083 N   0  0  0  0  0  0
    1.9594    3.8295   -0.5530 C   0  0  0  0  0  0
    1.0264   -1.2356   -0.3767 O   0  0  0  0  0  0
   -1.7851   -1.3195    0.7329 Cl  0  0  0  0  0  0
    4.6736    3.5829    1.7208 C   0  0  0  0  0  0
    5.0202    2.8042    2.6024 O   0  0  0  0  0  0
    5.3325    4.7377    1.4120 O   0  0  0  0  0  0
    2.1512    1.3486    2.8448 H   0  0  0  0  0  0
   -0.6957    4.0303   -0.5107 H   0  0  0  0  0  0
   -2.9749    3.1658   -0.5445 H   0  0  0  0  0  0
   -3.4311    0.8061    0.0194 H   0  0  0  0  0  0
    1.3922    4.3003   -1.3456 H   0  0  0  0  0  0
    6.5213    5.0174    2.1699 C   0  0  0  0  0  0
    3.2297   -0.8729    1.4811 C   0  0  0  0  0  0
    3.9484    0.3892    1.9308 C   0  0  0  0  0  0
    3.6353   -1.3414    0.5809 H   0  0  0  0  0  0
    3.0633   -1.6214    2.2605 H   0  0  0  0  0  0
    6.3641    4.7582    3.2254 H   0  0  0  0  0  0
    4.7245    0.7064    1.2248 H   0  0  0  0  0  0
    4.3920    0.3216    2.9296 H   0  0  0  0  0  0
    6.7814    6.5238    2.0774 C   0  0  0  0  0  0
    8.0944    6.9145    2.7478 C   0  0  0  0  0  0
    9.2690    6.1166    2.1885 C   0  0  0  0  0  0
    9.0174    4.6138    2.2703 C   0  0  0  0  0  0
    7.7039    4.2285    1.5976 C   0  0  0  0  0  0
    6.7929    6.8349    1.0241 H   0  0  0  0  0  0
    5.9488    7.0700    2.5371 H   0  0  0  0  0  0
    8.2770    7.9856    2.6079 H   0  0  0  0  0  0
    8.0169    6.7417    3.8282 H   0  0  0  0  0  0
    9.4371    6.4007    1.1423 H   0  0  0  0  0  0
   10.1824    6.3687    2.7389 H   0  0  0  0  0  0
    9.8466    4.0754    1.7979 H   0  0  0  0  0  0
    8.9932    4.3041    3.3225 H   0  0  0  0  0  0
    7.5343    3.1519    1.7137 H   0  0  0  0  0  0
    7.7737    4.4007    0.5156 H   0  0  0  0  0  0
  1  2  2  0  0  0
  1  7  1  0  0  0
  1  8  1  0  0  0
  2  3  1  0  0  0
  2 11  1  0  0  0
  3  4  1  0  0  0
  3 15  2  0  0  0
  4  5  1  0  0  0
  4 26  1  0  0  0
  5  6  1  0  0  0
  5 20  1  0  0  0
  5 27  1  0  0  0
  6  7  1  0  0  0
  6 12  2  0  0  0
  7 14  1  0  0  0
  8  9  2  0  0  0
  8 21  1  0  0  0
  9 10  1  0  0  0
  9 22  1  0  0  0
 10 11  2  0  0  0
 10 23  1  0  0  0
 11 16  1  0  0  0
 12 13  1  0  0  0
 12 17  1  0  0  0
 13 14  2  0  0  0
 14 24  1  0  0  0
 17 18  2  0  0  0
 17 19  1  0  0  0
 19 25  1  0  0  0
 25 30  1  0  0  0
 25 37  1  0  0  0
 26 28  1  0  0  0
 26 29  1  0  0  0
 27 26  1  0  0  0
 27 31  1  0  0  0
 27 32  1  0  0  0
 33 25  1  0  0  0
 33 38  1  0  0  0
 33 39  1  0  0  0
 34 33  1  0  0  0
 34 40  1  0  0  0
 34 41  1  0  0  0
 35 34  1  0  0  0
 35 42  1  0  0  0
 35 43  1  0  0  0
 36 35  1  0  0  0
 36 44  1  0  0  0
 36 45  1  0  0  0
 37 36  1  0  0  0
 37 46  1  0  0  0
 37 47  1  0  0  0
M  END
>  <Name>
Ro17-3211

>  <Family>
A.26

>  <IC50_uM>
0.002400

>  <set>
0

$$$$
Ro17-3401
  Cerius2 12180215283D 1   1.00000                          
 Structure written by MMmdl.
 44 48  0  0  0  0  0  0  0  0999 V2000
    0.2425    2.1096    0.0053 C   0  0  0  0  0  0
   -0.0196    0.7531    0.2783 C   0  0  0  0  0  0
    1.0507   -0.2666    0.3646 C   0  0  0  0  0  0
    2.0841   -0.0391    1.2181 N   0  0  0  0  0  0
    2.6197    1.1415    1.8544 C   0  0  0  0  0  0
    2.5711    2.3371    0.9440 C   0  0  0  0  0  0
    1.5369    2.6887    0.1000 N   0  0  0  0  0  0
   -0.8287    2.9686   -0.3207 C   0  0  0  0  0  0
   -2.1419    2.5028   -0.3353 C   0  0  0  0  0  0
   -2.4075    1.1789   -0.0115 C   0  0  0  0  0  0
   -1.3579    0.3055    0.2924 C   0  0  0  0  0  0
    3.4862    3.3834    0.8938 C   0  0  0  0  0  0
    3.1035    4.2743   -0.0903 N   0  0  0  0  0  0
    1.9581    3.8304   -0.5449 C   0  0  0  0  0  0
    0.9822   -1.2766   -0.3297 O   0  0  0  0  0  0
   -1.8198   -1.3037    0.7458 Cl  0  0  0  0  0  0
    4.6682    3.6090    1.7340 C   0  0  0  0  0  0
    5.0321    2.8367    2.6145 O   0  0  0  0  0  0
    5.2992    4.7799    1.4383 O   0  0  0  0  0  0
    2.1634    1.3219    2.8341 H   0  0  0  0  0  0
   -0.6796    4.0285   -0.5206 H   0  0  0  0  0  0
   -2.9587    3.1811   -0.5728 H   0  0  0  0  0  0
   -3.4369    0.8282    0.0010 H   0  0  0  0  0  0
    1.3929    4.3012   -1.3384 H   0  0  0  0  0  0
    6.4448    5.0472    2.2475 C   0  0  0  0  0  0
    3.2334   -0.8850    1.4667 C   0  0  0  0  0  0
    3.9630    0.3778    1.9034 C   0  0  0  0  0  0
    3.6384   -1.3704    0.5754 H   0  0  0  0  0  0
    3.0519   -1.6198    2.2556 H   0  0  0  0  0  0
    6.1456    5.1070    3.3010 H   0  0  0  0  0  0
    7.1876    4.2477    2.1340 H   0  0  0  0  0  0
    4.7295    0.6934    1.1857 H   0  0  0  0  0  0
    4.4202    0.3121    2.8961 H   0  0  0  0  0  0
    7.0547    6.3520    1.7995 C   0  0  0  0  0  0
    7.0908    7.4618    2.6555 C   0  0  0  0  0  0
    6.6693    7.3984    3.6561 H   0  0  0  0  0  0
    7.6637    8.6646    2.2351 C   0  0  0  0  0  0
    7.6852    9.5202    2.9052 H   0  0  0  0  0  0
    8.2035    8.7702    0.9548 C   0  0  0  0  0  0
    8.6461    9.7064    0.6260 H   0  0  0  0  0  0
    8.1690    7.6753    0.0930 C   0  0  0  0  0  0
    8.5808    7.7566   -0.9091 H   0  0  0  0  0  0
    7.5981    6.4725    0.5123 C   0  0  0  0  0  0
    7.5709    5.6282   -0.1736 H   0  0  0  0  0  0
  1  2  2  0  0  0
  1  7  1  0  0  0
  1  8  1  0  0  0
  2  3  1  0  0  0
  2 11  1  0  0  0
  3  4  1  0  0  0
  3 15  2  0  0  0
  4  5  1  0  0  0
  4 26  1  0  0  0
  5  6  1  0  0  0
  5 20  1  0  0  0
  5 27  1  0  0  0
  6  7  1  0  0  0
  6 12  2  0  0  0
  7 14  1  0  0  0
  8  9  2  0  0  0
  8 21  1  0  0  0
  9 10  1  0  0  0
  9 22  1  0  0  0
 10 11  2  0  0  0
 10 23  1  0  0  0
 11 16  1  0  0  0
 12 13  1  0  0  0
 12 17  1  0  0  0
 13 14  2  0  0  0
 14 24  1  0  0  0
 17 18  2  0  0  0
 17 19  1  0  0  0
 19 25  1  0  0  0
 25 30  1  0  0  0
 25 31  1  0  0  0
 25 34  1  0  0  0
 26 28  1  0  0  0
 26 29  1  0  0  0
 27 26  1  0  0  0
 27 32  1  0  0  0
 27 33  1  0  0  0
 34 35  1  0  0  0
 34 43  2  0  0  0
 35 36  1  0  0  0
 35 37  2  0  0  0
 37 38  1  0  0  0
 37 39  1  0  0  0
 39 40  1  0  0  0
 39 41  2  0  0  0
 41 42  1  0  0  0
 41 43  1  0  0  0
 43 44  1  0  0  0
M  END
>  <Name>
Ro17-3401

>  <Family>
A.26

>  <IC50_uM>
0.000900

>  <set>
0

$$$$
Ro17-2620
  Cerius2 12180215283D 1   1.00000                          
 Structure written by MMmdl.
 43 46  0  0  0  0  0  0  0  0999 V2000
    0.2223    2.1200    0.0960 C   0  0  0  0  0  0
   -0.0449    0.7378    0.1872 C   0  0  0  0  0  0
    0.9726   -0.3389    0.3383 C   0  0  0  0  0  0
    2.0610   -0.1066    1.1107 N   0  0  0  0  0  0
    2.4920    0.9888    1.9468 C   0  0  0  0  0  0
    2.5117    2.2641    1.1629 C   0  0  0  0  0  0
    1.5011    2.6988    0.3254 N   0  0  0  0  0  0
   -0.8352    2.9939   -0.2409 C   0  0  0  0  0  0
   -2.1289    2.5125   -0.4577 C   0  0  0  0  0  0
   -2.3813    1.1583   -0.3464 C   0  0  0  0  0  0
   -1.3591    0.2736   -0.0354 C   0  0  0  0  0  0
    3.4740    3.2668    1.1732 C   0  0  0  0  0  0
    3.1284    4.2417    0.2523 N   0  0  0  0  0  0
    1.9594    3.8802   -0.2192 C   0  0  0  0  0  0
    3.1547   -0.9931    1.4461 C   0  0  0  0  0  0
    3.8209    0.2205    2.0880 C   0  0  0  0  0  0
    0.8009   -1.4216   -0.2308 O   0  0  0  0  0  0
    4.7164    3.3879    1.9472 C   0  0  0  0  0  0
    5.0517    2.5426    2.7703 O   0  0  0  0  0  0
    5.4501    4.4940    1.6227 O   0  0  0  0  0  0
    6.7053    4.7638    2.3056 C   0  0  0  0  0  0
    6.4566    5.0792    3.7828 C   0  0  0  0  0  0
    7.2740    6.0254    1.6341 C   0  0  0  0  0  0
    7.7302    3.6389    2.1184 C   0  0  0  0  0  0
   -3.6192    0.6925   -0.5570 F   0  0  0  0  0  0
    1.9111    1.0558    2.8727 H   0  0  0  0  0  0
   -0.6912    4.0705   -0.3046 H   0  0  0  0  0  0
   -2.9309    3.2004   -0.7045 H   0  0  0  0  0  0
   -1.5921   -0.7899    0.0133 H   0  0  0  0  0  0
    1.4056    4.4221   -0.9762 H   0  0  0  0  0  0
    3.6749   -1.3977    0.5731 H   0  0  0  0  0  0
    2.8591   -1.7936    2.1294 H   0  0  0  0  0  0
    4.1478    0.0592    3.1194 H   0  0  0  0  0  0
    4.6668    0.5972    1.5037 H   0  0  0  0  0  0
    7.3667    5.4467    4.2674 H   0  0  0  0  0  0
    6.1178    4.1969    4.3317 H   0  0  0  0  0  0
    5.6694    5.8355    3.8897 H   0  0  0  0  0  0
    8.2635    6.2748    2.0316 H   0  0  0  0  0  0
    6.6132    6.8878    1.7865 H   0  0  0  0  0  0
    7.3667    5.8819    0.5517 H   0  0  0  0  0  0
    8.6962    3.9039    2.5599 H   0  0  0  0  0  0
    7.8829    3.4261    1.0526 H   0  0  0  0  0  0
    7.4092    2.7076    2.5898 H   0  0  0  0  0  0
  1  2  2  0  0  0
  1  7  1  0  0  0
  1  8  1  0  0  0
  2  3  1  0  0  0
  2 11  1  0  0  0
  3  4  1  0  0  0
  3 17  2  0  0  0
  4  5  1  0  0  0
  4 15  1  0  0  0
  5  6  1  0  0  0
  5 16  1  0  0  0
  5 26  1  0  0  0
  6  7  1  0  0  0
  6 12  2  0  0  0
  7 14  1  0  0  0
  8  9  2  0  0  0
  8 27  1  0  0  0
  9 10  1  0  0  0
  9 28  1  0  0  0
 10 11  2  0  0  0
 10 25  1  0  0  0
 11 29  1  0  0  0
 12 13  1  0  0  0
 12 18  1  0  0  0
 13 14  2  0  0  0
 14 30  1  0  0  0
 15 16  1  0  0  0
 15 31  1  0  0  0
 15 32  1  0  0  0
 16 33  1  0  0  0
 16 34  1  0  0  0
 18 19  2  0  0  0
 18 20  1  0  0  0
 20 21  1  0  0  0
 21 22  1  0  0  0
 21 23  1  0  0  0
 21 24  1  0  0  0
 22 35  1  0  0  0
 22 36  1  0  0  0
 22 37  1  0  0  0
 23 38  1  0  0  0
 23 39  1  0  0  0
 23 40  1  0  0  0
 24 41  1  0  0  0
 24 42  1  0  0  0
 24 43  1  0  0  0
M  END
>  <Name>
Ro17-2620

>  <Family>
A.26

>  <IC50_uM>
0.005100

>  <set>
0

$$$$
Ro16-9351
  Cerius2 12180215283D 1   1.00000                          
 Structure written by MMmdl.
 43 46  0  0  0  0  0  0  0  0999 V2000
    0.2471    2.1123   -0.0006 C   0  0  0  0  0  0
   -0.0180    0.7600    0.2935 C   0  0  0  0  0  0
    1.0513   -0.2578    0.3615 C   0  0  0  0  0  0
    2.0675   -0.0575    1.2416 N   0  0  0  0  0  0
    2.6422    1.1296    1.8355 C   0  0  0  0  0  0
    2.5838    2.3213    0.9178 C   0  0  0  0  0  0
    1.5470    2.6819    0.0813 N   0  0  0  0  0  0
   -0.8235    2.9715   -0.3270 C   0  0  0  0  0  0
   -2.1366    2.5056   -0.3147 C   0  0  0  0  0  0
   -2.3929    1.1881    0.0343 C   0  0  0  0  0  0
   -1.3534    0.3083    0.3382 C   0  0  0  0  0  0
    3.5029    3.3646    0.8679 C   0  0  0  0  0  0
    3.1218    4.2599   -0.1134 N   0  0  0  0  0  0
    1.9714    3.8230   -0.5633 C   0  0  0  0  0  0
    0.9846   -1.2448   -0.3645 O   0  0  0  0  0  0
   -1.7891   -1.2968    0.8286 Cl  0  0  0  0  0  0
    4.6820    3.5796    1.7174 C   0  0  0  0  0  0
    5.0283    2.7927    2.5897 O   0  0  0  0  0  0
    5.3107    4.7536    1.4335 O   0  0  0  0  0  0
    2.2280    1.3291    2.8300 H   0  0  0  0  0  0
   -0.6734    4.0272   -0.5473 H   0  0  0  0  0  0
   -2.9660    3.1677   -0.5482 H   0  0  0  0  0  0
   -3.6706    0.7821    0.0753 F   0  0  0  0  0  0
    1.4041    4.2995   -1.3521 H   0  0  0  0  0  0
    6.4796    5.1788    2.1762 C   0  0  0  0  0  0
    3.2240   -0.9069    1.4525 C   0  0  0  0  0  0
    3.9801    0.3540    1.8409 C   0  0  0  0  0  0
    3.5907   -1.4085    0.5534 H   0  0  0  0  0  0
    3.0702   -1.6293    2.2586 H   0  0  0  0  0  0
    6.1456    5.4108    3.6539 C   0  0  0  0  0  0
    7.6423    4.1962    1.9990 C   0  0  0  0  0  0
    6.8740    6.5238    1.5469 C   0  0  0  0  0  0
    4.7183    0.6540    1.0879 H   0  0  0  0  0  0
    4.4773    0.2949    2.8143 H   0  0  0  0  0  0
    5.2589    6.0463    3.7568 H   0  0  0  0  0  0
    5.9220    4.4747    4.1744 H   0  0  0  0  0  0
    6.9794    5.8877    4.1806 H   0  0  0  0  0  0
    7.8075    3.9772    0.9381 H   0  0  0  0  0  0
    8.5704    4.5972    2.4206 H   0  0  0  0  0  0
    7.4475    3.2386    2.4908 H   0  0  0  0  0  0
    7.0912    6.4055    0.4790 H   0  0  0  0  0  0
    6.0495    7.2432    1.6163 H   0  0  0  0  0  0
    7.7543    6.9583    2.0323 H   0  0  0  0  0  0
  1  2  2  0  0  0
  1  7  1  0  0  0
  1  8  1  0  0  0
  2  3  1  0  0  0
  2 11  1  0  0  0
  3  4  1  0  0  0
  3 15  2  0  0  0
  4  5  1  0  0  0
  4 26  1  0  0  0
  5  6  1  0  0  0
  5 20  1  0  0  0
  5 27  1  0  0  0
  6  7  1  0  0  0
  6 12  2  0  0  0
  7 14  1  0  0  0
  8  9  2  0  0  0
  8 21  1  0  0  0
  9 10  1  0  0  0
  9 22  1  0  0  0
 10 11  2  0  0  0
 10 23  1  0  0  0
 11 16  1  0  0  0
 12 13  1  0  0  0
 12 17  1  0  0  0
 13 14  2  0  0  0
 14 24  1  0  0  0
 17 18  2  0  0  0
 17 19  1  0  0  0
 19 25  1  0  0  0
 25 30  1  0  0  0
 25 31  1  0  0  0
 25 32  1  0  0  0
 26 28  1  0  0  0
 26 29  1  0  0  0
 27 26  1  0  0  0
 27 33  1  0  0  0
 27 34  1  0  0  0
 30 35  1  0  0  0
 30 36  1  0  0  0
 30 37  1  0  0  0
 31 38  1  0  0  0
 31 39  1  0  0  0
 31 40  1  0  0  0
 32 41  1  0  0  0
 32 42  1  0  0  0
 32 43  1  0  0  0
M  END
>  <Name>
Ro16-9351

>  <Family>
A.26

>  <IC50_uM>
0.003700

>  <set>
0

$$$$
Ro16-9905
  Cerius2 12180215283D 1   1.00000                          
 Structure written by MMmdl.
 43 46  0  0  0  0  0  0  0  0999 V2000
    0.2444    2.1121    0.0059 C   0  0  0  0  0  0
   -0.0166    0.7581    0.2851 C   0  0  0  0  0  0
    1.0599   -0.2546    0.3523 C   0  0  0  0  0  0
    2.0628   -0.0586    1.2508 N   0  0  0  0  0  0
    2.6341    1.1320    1.8433 C   0  0  0  0  0  0
    2.5828    2.3200    0.9204 C   0  0  0  0  0  0
    1.5436    2.6814    0.0864 N   0  0  0  0  0  0
   -0.8288    2.9722   -0.3096 C   0  0  0  0  0  0
   -2.1430    2.5077   -0.3050 C   0  0  0  0  0  0
   -2.4075    1.1858    0.0289 C   0  0  0  0  0  0
   -1.3548    0.3118    0.3209 C   0  0  0  0  0  0
    3.5063    3.3588    0.8616 C   0  0  0  0  0  0
    3.1230    4.2538   -0.1199 N   0  0  0  0  0  0
    1.9677    3.8208   -0.5614 C   0  0  0  0  0  0
    1.0107   -1.2362   -0.3830 O   0  0  0  0  0  0
   -1.8590   -1.4544    0.8327 Br  0  0  0  0  0  0
    4.6922    3.5724    1.7020 C   0  0  0  0  0  0
    5.0434    2.7881    2.5749 O   0  0  0  0  0  0
    5.3234    4.7429    1.4077 O   0  0  0  0  0  0
    2.2137    1.3366    2.8342 H   0  0  0  0  0  0
   -0.6798    4.0307   -0.5155 H   0  0  0  0  0  0
   -2.9632    3.1844   -0.5359 H   0  0  0  0  0  0
   -3.4392    0.8406    0.0560 H   0  0  0  0  0  0
    1.3960    4.2970   -1.3474 H   0  0  0  0  0  0
    6.4973    5.1710    2.1412 C   0  0  0  0  0  0
    3.2216   -0.9042    1.4641 C   0  0  0  0  0  0
    3.9711    0.3564    1.8654 C   0  0  0  0  0  0
    3.5952   -1.3989    0.5640 H   0  0  0  0  0  0
    3.0669   -1.6331    2.2642 H   0  0  0  0  0  0
    6.1705    5.4127    3.6189 C   0  0  0  0  0  0
    7.6575    4.1857    1.9635 C   0  0  0  0  0  0
    6.8899    6.5113    1.5010 C   0  0  0  0  0  0
    4.7204    0.6576    1.1240 H   0  0  0  0  0  0
    4.4545    0.2966    2.8458 H   0  0  0  0  0  0
    5.2855    6.0508    3.7220 H   0  0  0  0  0  0
    5.9473    4.4805    4.1462 H   0  0  0  0  0  0
    7.0075    5.8912    4.1390 H   0  0  0  0  0  0
    7.8154    3.9592    0.9031 H   0  0  0  0  0  0
    8.5889    4.5876    2.3769 H   0  0  0  0  0  0
    7.4638    3.2315    2.4624 H   0  0  0  0  0  0
    7.1008    6.3858    0.4325 H   0  0  0  0  0  0
    6.0667    7.2320    1.5704 H   0  0  0  0  0  0
    7.7733    6.9480    1.9786 H   0  0  0  0  0  0
  1  2  2  0  0  0
  1  7  1  0  0  0
  1  8  1  0  0  0
  2  3  1  0  0  0
  2 11  1  0  0  0
  3  4  1  0  0  0
  3 15  2  0  0  0
  4  5  1  0  0  0
  4 26  1  0  0  0
  5  6  1  0  0  0
  5 20  1  0  0  0
  5 27  1  0  0  0
  6  7  1  0  0  0
  6 12  2  0  0  0
  7 14  1  0  0  0
  8  9  2  0  0  0
  8 21  1  0  0  0
  9 10  1  0  0  0
  9 22  1  0  0  0
 10 11  2  0  0  0
 10 23  1  0  0  0
 11 16  1  0  0  0
 12 13  1  0  0  0
 12 17  1  0  0  0
 13 14  2  0  0  0
 14 24  1  0  0  0
 17 18  2  0  0  0
 17 19  1  0  0  0
 19 25  1  0  0  0
 25 30  1  0  0  0
 25 31  1  0  0  0
 25 32  1  0  0  0
 26 28  1  0  0  0
 26 29  1  0  0  0
 27 26  1  0  0  0
 27 33  1  0  0  0
 27 34  1  0  0  0
 30 35  1  0  0  0
 30 36  1  0  0  0
 30 37  1  0  0  0
 31 38  1  0  0  0
 31 39  1  0  0  0
 31 40  1  0  0  0
 32 41  1  0  0  0
 32 42  1  0  0  0
 32 43  1  0  0  0
M  END
>  <Name>
Ro16-9905

>  <Family>
A.26

>  <IC50_uM>
0.001200

>  <set>
0

$$$$
Ro17-1338
  Cerius2 12180215283D 1   1.00000                          
 Structure written by MMmdl.
 43 46  0  0  0  0  0  0  0  0999 V2000
    0.2429    2.1101    0.0034 C   0  0  0  0  0  0
   -0.0175    0.7574    0.2899 C   0  0  0  0  0  0
    1.0710   -0.2423    0.3410 C   0  0  0  0  0  0
    2.0474   -0.0656    1.2749 N   0  0  0  0  0  0
    2.6246    1.1331    1.8517 C   0  0  0  0  0  0
    2.5806    2.3141    0.9166 C   0  0  0  0  0  0
    1.5443    2.6748    0.0782 N   0  0  0  0  0  0
   -0.8297    2.9708   -0.3084 C   0  0  0  0  0  0
   -2.1442    2.5080   -0.2912 C   0  0  0  0  0  0
   -2.4098    1.1873    0.0504 C   0  0  0  0  0  0
   -1.3558    0.3115    0.3385 C   0  0  0  0  0  0
    3.5071    3.3502    0.8535 C   0  0  0  0  0  0
    3.1296    4.2395   -0.1356 N   0  0  0  0  0  0
    1.9729    3.8085   -0.5760 C   0  0  0  0  0  0
    1.0518   -1.1934   -0.4343 O   0  0  0  0  0  0
   -1.9287   -1.6353    0.9251 I   0  0  0  0  0  0
    4.6888    3.5672    1.6990 C   0  0  0  0  0  0
    5.0335    2.7871    2.5782 O   0  0  0  0  0  0
    5.3238    4.7353    1.4026 O   0  0  0  0  0  0
    2.2030    1.3520    2.8392 H   0  0  0  0  0  0
   -0.6794    4.0279   -0.5197 H   0  0  0  0  0  0
   -2.9650    3.1856   -0.5179 H   0  0  0  0  0  0
   -3.4445    0.8518    0.0845 H   0  0  0  0  0  0
    1.4030    4.2823   -1.3647 H   0  0  0  0  0  0
    6.4946    5.1633    2.1414 C   0  0  0  0  0  0
    3.2192   -0.9014    1.4640 C   0  0  0  0  0  0
    3.9595    0.3559    1.8881 C   0  0  0  0  0  0
    3.5923   -1.3723    0.5509 H   0  0  0  0  0  0
    3.0776   -1.6496    2.2487 H   0  0  0  0  0  0
    6.1610    5.4077    3.6172 C   0  0  0  0  0  0
    7.6540    4.1755    1.9717 C   0  0  0  0  0  0
    6.8931    6.5017    1.5006 C   0  0  0  0  0  0
    4.7230    0.6618    1.1634 H   0  0  0  0  0  0
    4.4258    0.2886    2.8766 H   0  0  0  0  0  0
    5.2709    6.0393    3.7152 H   0  0  0  0  0  0
    5.9438    4.4752    4.1468 H   0  0  0  0  0  0
    6.9925    5.8940    4.1388 H   0  0  0  0  0  0
    7.8228    3.9533    0.9120 H   0  0  0  0  0  0
    8.5820    4.5729    2.3968 H   0  0  0  0  0  0
    7.4526    3.2194    2.4639 H   0  0  0  0  0  0
    7.1077    6.3739    0.4331 H   0  0  0  0  0  0
    6.0719    7.2249    1.5660 H   0  0  0  0  0  0
    7.7761    6.9367    1.9806 H   0  0  0  0  0  0
  1  2  2  0  0  0
  1  7  1  0  0  0
  1  8  1  0  0  0
  2  3  1  0  0  0
  2 11  1  0  0  0
  3  4  1  0  0  0
  3 15  2  0  0  0
  4  5  1  0  0  0
  4 26  1  0  0  0
  5  6  1  0  0  0
  5 20  1  0  0  0
  5 27  1  0  0  0
  6  7  1  0  0  0
  6 12  2  0  0  0
  7 14  1  0  0  0
  8  9  2  0  0  0
  8 21  1  0  0  0
  9 10  1  0  0  0
  9 22  1  0  0  0
 10 11  2  0  0  0
 10 23  1  0  0  0
 11 16  1  0  0  0
 12 13  1  0  0  0
 12 17  1  0  0  0
 13 14  2  0  0  0
 14 24  1  0  0  0
 17 18  2  0  0  0
 17 19  1  0  0  0
 19 25  1  0  0  0
 25 30  1  0  0  0
 25 31  1  0  0  0
 25 32  1  0  0  0
 26 28  1  0  0  0
 26 29  1  0  0  0
 27 26  1  0  0  0
 27 33  1  0  0  0
 27 34  1  0  0  0
 30 35  1  0  0  0
 30 36  1  0  0  0
 30 37  1  0  0  0
 31 38  1  0  0  0
 31 39  1  0  0  0
 31 40  1  0  0  0
 32 41  1  0  0  0
 32 42  1  0  0  0
 32 43  1  0  0  0
M  END
>  <Name>
Ro17-1338

>  <Family>
A.26

>  <IC50_uM>
0.001000

>  <set>
0

$$$$
Ro14-7462
  Cerius2 12180215283D 1   1.00000                          
 Structure written by MMmdl.
 43 46  0  0  0  0  0  0  0  0999 V2000
    0.2387    2.1599    0.1031 C   0  0  0  0  0  0
    0.0458    0.7820    0.1851 C   0  0  0  0  0  0
    1.1250   -0.2361    0.2034 C   0  0  0  0  0  0
    2.2789   -0.0783    0.9931 N   0  0  0  0  0  0
    2.4723    1.0980    1.8645 C   0  0  0  0  0  0
    2.5895    2.3251    0.9783 C   0  0  0  0  0  0
    1.5240    2.7313    0.1817 N   0  0  0  0  0  0
   -0.8678    3.0142   -0.0817 C   0  0  0  0  0  0
   -2.1613    2.4970   -0.1562 C   0  0  0  0  0  0
   -2.3628    1.1263   -0.0628 C   0  0  0  0  0  0
   -1.2674    0.2774    0.0974 C   0  0  0  0  0  0
    3.5606    3.3211    0.7732 C   0  0  0  0  0  0
    3.1279    4.2228   -0.1865 N   0  0  0  0  0  0
    1.9178    3.8528   -0.4997 C   0  0  0  0  0  0
    0.9142   -1.2680   -0.4388 O   0  0  0  0  0  0
   -1.4385   -0.7987    0.1294 H   0  0  0  0  0  0
    4.8536    3.5677    1.4252 C   0  0  0  0  0  0
    5.3460    2.8476    2.2866 O   0  0  0  0  0  0
    5.4213    4.7358    0.9976 O   0  0  0  0  0  0
    1.5656    1.1882    2.4790 H   0  0  0  0  0  0
   -0.7529    4.0956   -0.1332 H   0  0  0  0  0  0
   -3.0103    3.1640   -0.2878 H   0  0  0  0  0  0
   -3.3660    0.7124   -0.1324 H   0  0  0  0  0  0
    1.2936    4.3470   -1.2330 H   0  0  0  0  0  0
    6.6394    5.0858    1.6599 C   0  0  0  0  0  0
    2.8093   -1.3904    1.3950 C   0  0  0  0  0  0
    3.6574    0.9556    2.8307 C   0  0  0  0  0  0
    3.0588   -1.9584    0.4901 H   0  0  0  0  0  0
    1.9860   -1.9281    1.8867 H   0  0  0  0  0  0
    6.4663    5.1681    2.7390 H   0  0  0  0  0  0
    7.3991    4.3209    1.4647 H   0  0  0  0  0  0
    7.1055    6.4221    1.1151 C   0  0  0  0  0  0
    4.5990    1.1167    2.2949 H   0  0  0  0  0  0
    3.5811    1.7086    3.6231 H   0  0  0  0  0  0
    8.0388    6.7336    1.5922 H   0  0  0  0  0  0
    7.2629    6.3648    0.0330 H   0  0  0  0  0  0
    6.3468    7.1930    1.2854 H   0  0  0  0  0  0
    3.7710   -0.4196    3.4588 C   0  0  0  0  0  0
    4.0020   -1.4007    2.3293 C   0  0  0  0  0  0
    4.6167   -0.4448    4.1549 H   0  0  0  0  0  0
    2.8660   -0.6683    4.0247 H   0  0  0  0  0  0
    4.1546   -2.4105    2.7266 H   0  0  0  0  0  0
    4.9114   -1.1363    1.7761 H   0  0  0  0  0  0
  1  2  2  0  0  0
  1  7  1  0  0  0
  1  8  1  0  0  0
  2  3  1  0  0  0
  2 11  1  0  0  0
  3  4  1  0  0  0
  3 15  2  0  0  0
  4  5  1  0  0  0
  4 26  1  0  0  0
  5  6  1  0  0  0
  5 20  1  0  0  0
  5 27  1  0  0  0
  6  7  1  0  0  0
  6 12  2  0  0  0
  7 14  1  0  0  0
  8  9  2  0  0  0
  8 21  1  0  0  0
  9 10  1  0  0  0
  9 22  1  0  0  0
 10 11  2  0  0  0
 10 23  1  0  0  0
 11 16  1  0  0  0
 12 13  1  0  0  0
 12 17  1  0  0  0
 13 14  2  0  0  0
 14 24  1  0  0  0
 17 18  2  0  0  0
 17 19  1  0  0  0
 19 25  1  0  0  0
 25 30  1  0  0  0
 25 31  1  0  0  0
 25 32  1  0  0  0
 26 28  1  0  0  0
 26 29  1  0  0  0
 26 39  1  0  0  0
 27 33  1  0  0  0
 27 34  1  0  0  0
 32 35  1  0  0  0
 32 36  1  0  0  0
 32 37  1  0  0  0
 38 27  1  0  0  0
 38 40  1  0  0  0
 38 41  1  0  0  0
 39 38  1  0  0  0
 39 42  1  0  0  0
 39 43  1  0  0  0
M  END
>  <Name>
Ro14-7462

>  <Family>
A.27

>  <IC50_uM>
1.000000

>  <set>
0

$$$$
Zopiclone
  Cerius2 12180215283D 1   1.00000                          
 Structure written by MMmdl.
 44 47  0  0  0  0  0  0  0  0999 V2000
   -4.2513    1.6600    0.5446 C   0  0  0  0  0  0
   -4.0491    0.4120   -0.0540 C   0  0  0  0  0  0
   -2.8771   -0.2789    0.0432 N   0  0  0  0  0  0
   -1.9330    0.3590    0.7767 C   0  0  0  0  0  0
   -2.1473    1.5917    1.3572 C   0  0  0  0  0  0
   -3.2964    2.2966    1.2767 N   0  0  0  0  0  0
   -0.5273   -0.0996    1.0815 C   0  0  0  0  0  0
    0.0007    0.9843    1.9067 N   0  0  0  0  0  0
   -0.9292    2.0061    2.0722 C   0  0  0  0  0  0
    1.2919    0.8835    2.4554 C   0  0  0  0  0  0
    1.8608    1.9005    3.2176 C   0  0  0  0  0  0
    3.1502    1.7401    3.7367 C   0  0  0  0  0  0
    3.8451    0.5682    3.4858 C   0  0  0  0  0  0
    3.2193   -0.4000    2.7231 C   0  0  0  0  0  0
    1.9667   -0.2670    2.2078 N   0  0  0  0  0  0
    0.2212   -0.1579   -0.1343 O   0  0  0  0  0  0
    0.3521   -1.3960   -0.6664 C   0  0  0  0  0  0
   -0.1663   -2.4020   -0.1939 O   0  0  0  0  0  0
    1.1370   -1.4003   -1.7992 N   0  0  0  0  0  0
    1.7508   -0.2038   -2.3882 C   0  0  0  0  0  0
    3.2317   -0.4457   -2.7412 C   0  0  0  0  0  0
    3.4160   -1.6493   -3.5874 N   0  0  0  0  0  0
    2.8453   -2.8323   -2.8991 C   0  0  0  0  0  0
    1.3574   -2.6373   -2.5502 C   0  0  0  0  0  0
   -0.8378    3.0583    2.6859 O   0  0  0  0  0  0
    4.8404   -1.8619   -3.8636 C   0  0  0  0  0  0
    5.4286    0.3321    4.1015 Cl  0  0  0  0  0  0
   -5.2025    2.1741    0.4403 H   0  0  0  0  0  0
   -4.8402   -0.0585   -0.6309 H   0  0  0  0  0  0
   -0.5346   -1.0269    1.6682 H   0  0  0  0  0  0
    1.3431    2.8296    3.4255 H   0  0  0  0  0  0
    3.5945    2.5354    4.3299 H   0  0  0  0  0  0
    3.7151   -1.3400    2.4944 H   0  0  0  0  0  0
    1.6740    0.6568   -1.7176 H   0  0  0  0  0  0
    1.1811    0.0330   -3.2950 H   0  0  0  0  0  0
    3.8063   -0.5468   -1.8107 H   0  0  0  0  0  0
    3.6098    0.4372   -3.2702 H   0  0  0  0  0  0
    3.4036   -3.0385   -1.9760 H   0  0  0  0  0  0
    2.9366   -3.7132   -3.5454 H   0  0  0  0  0  0
    0.7612   -2.5661   -3.4679 H   0  0  0  0  0  0
    0.9939   -3.5035   -1.9880 H   0  0  0  0  0  0
    4.9775   -2.7358   -4.5099 H   0  0  0  0  0  0
    5.4235   -2.0138   -2.9482 H   0  0  0  0  0  0
    5.2571   -1.0029   -4.4009 H   0  0  0  0  0  0
  1  2  2  0  0  0
  1  6  1  0  0  0
  1 28  1  0  0  0
  2  3  1  0  0  0
  2 29  1  0  0  0
  3  4  2  0  0  0
  4  5  1  0  0  0
  4  7  1  0  0  0
  5  6  2  0  0  0
  5  9  1  0  0  0
  7  8  1  0  0  0
  7 16  1  0  0  0
  7 30  1  0  0  0
  8  9  1  0  0  0
  8 10  1  0  0  0
  9 25  2  0  0  0
 10 11  2  0  0  0
 10 15  1  0  0  0
 11 12  1  0  0  0
 11 31  1  0  0  0
 12 13  2  0  0  0
 12 32  1  0  0  0
 13 14  1  0  0  0
 13 27  1  0  0  0
 14 15  2  0  0  0
 14 33  1  0  0  0
 16 17  1  0  0  0
 17 18  2  0  0  0
 17 19  1  0  0  0
 19 20  1  0  0  0
 19 24  1  0  0  0
 20 21  1  0  0  0
 20 34  1  0  0  0
 20 35  1  0  0  0
 21 22  1  0  0  0
 21 36  1  0  0  0
 21 37  1  0  0  0
 22 23  1  0  0  0
 22 26  1  0  0  0
 23 24  1  0  0  0
 23 38  1  0  0  0
 23 39  1  0  0  0
 24 40  1  0  0  0
 24 41  1  0  0  0
 26 42  1  0  0  0
 26 43  1  0  0  0
 26 44  1  0  0  0
M  END
>  <Name>
Zopiclone

>  <Family>
B

>  <IC50_uM>
0.031000

>  <set>
2

$$$$
Suriclone
  Cerius2 12180215283D 1   1.00000                          
 Structure written by MMmdl.
 51 55  0  0  0  0  0  0  0  0999 V2000
   -5.5913    2.1794    0.5559 C   0  0  0  0  0  0
   -5.2670    1.2752   -0.6238 C   0  0  0  0  0  0
   -4.0918   -0.0450   -0.1778 S   0  0  0  0  0  0
   -2.8338    0.8518    0.5994 C   0  0  0  0  0  0
   -2.9087    2.1033    1.0614 C   0  0  0  0  0  0
   -4.1854    3.2365    1.0260 S   0  0  0  0  0  0
   -1.4842    0.2382    0.8638 C   0  0  0  0  0  0
   -0.7922    1.3050    1.5474 N   0  0  0  0  0  0
   -1.5888    2.4312    1.6690 C   0  0  0  0  0  0
    0.5252    1.1131    2.0105 C   0  0  0  0  0  0
    1.2348    2.1036    2.6713 C   0  0  0  0  0  0
    2.5382    1.8400    3.0797 C   0  0  0  0  0  0
    3.1034    0.5919    2.8122 C   0  0  0  0  0  0
    2.3266   -0.3670    2.1418 C   0  0  0  0  0  0
    1.0755   -0.1020    1.7680 N   0  0  0  0  0  0
   -0.8260   -0.0121   -0.3802 O   0  0  0  0  0  0
   -0.6398   -1.3177   -0.6884 C   0  0  0  0  0  0
   -1.1115   -2.2486   -0.0441 O   0  0  0  0  0  0
    0.1429   -1.4850   -1.8109 N   0  0  0  0  0  0
    0.4837   -2.8250   -2.2892 C   0  0  0  0  0  0
    2.0081   -2.9808   -2.4683 C   0  0  0  0  0  0
    2.6609   -1.9159   -3.2702 N   0  0  0  0  0  0
    2.2523   -0.5843   -2.7582 C   0  0  0  0  0  0
    0.7321   -0.3850   -2.5825 C   0  0  0  0  0  0
   -1.3211    3.5116    2.1767 O   0  0  0  0  0  0
    2.3495   -2.0565   -4.6958 C   0  0  0  0  0  0
    4.4150    0.2700    3.1864 C   0  0  0  0  0  0
    4.9150   -0.9854    2.8801 C   0  0  0  0  0  0
    4.0734   -1.8525    2.2158 C   0  0  0  0  0  0
    2.8048   -1.5724    1.8462 N   0  0  0  0  0  0
    4.5938   -3.4293    1.7804 Cl  0  0  0  0  0  0
   -5.9186    1.6008    1.4272 H   0  0  0  0  0  0
   -6.4174    2.8453    0.2849 H   0  0  0  0  0  0
   -4.8711    1.8451   -1.4721 H   0  0  0  0  0  0
   -6.1843    0.7849   -0.9665 H   0  0  0  0  0  0
   -1.5596   -0.6266    1.5357 H   0  0  0  0  0  0
    0.8211    3.0822    2.8832 H   0  0  0  0  0  0
    3.1041    2.6124    3.5971 H   0  0  0  0  0  0
   -0.0360   -2.9721   -3.2426 H   0  0  0  0  0  0
    0.1179   -3.5904   -1.5971 H   0  0  0  0  0  0
    2.2337   -3.9658   -2.8944 H   0  0  0  0  0  0
    2.4745   -2.9721   -1.4740 H   0  0  0  0  0  0
    2.6588    0.2072   -3.3994 H   0  0  0  0  0  0
    2.7317   -0.4505   -1.7792 H   0  0  0  0  0  0
    0.5492    0.5825   -2.1066 H   0  0  0  0  0  0
    0.2290   -0.3683   -3.5558 H   0  0  0  0  0  0
    2.8780   -1.2919   -5.2758 H   0  0  0  0  0  0
    1.2810   -1.9741   -4.9176 H   0  0  0  0  0  0
    2.7008   -3.0260   -5.0661 H   0  0  0  0  0  0
    5.0430    0.9891    3.7079 H   0  0  0  0  0  0
    5.9257   -1.2686    3.1510 H   0  0  0  0  0  0
  1  2  1  0  0  0
  1  6  1  0  0  0
  1 32  1  0  0  0
  1 33  1  0  0  0
  2  3  1  0  0  0
  2 34  1  0  0  0
  2 35  1  0  0  0
  3  4  1  0  0  0
  4  5  2  0  0  0
  4  7  1  0  0  0
  5  6  1  0  0  0
  5  9  1  0  0  0
  7  8  1  0  0  0
  7 16  1  0  0  0
  7 36  1  0  0  0
  8  9  1  0  0  0
  8 10  1  0  0  0
  9 25  2  0  0  0
 10 11  2  0  0  0
 10 15  1  0  0  0
 11 12  1  0  0  0
 11 37  1  0  0  0
 12 13  2  0  0  0
 12 38  1  0  0  0
 13 14  1  0  0  0
 13 27  1  0  0  0
 14 15  2  0  0  0
 14 30  1  0  0  0
 16 17  1  0  0  0
 17 18  2  0  0  0
 17 19  1  0  0  0
 19 20  1  0  0  0
 19 24  1  0  0  0
 20 21  1  0  0  0
 20 39  1  0  0  0
 20 40  1  0  0  0
 21 22  1  0  0  0
 21 41  1  0  0  0
 21 42  1  0  0  0
 22 23  1  0  0  0
 22 26  1  0  0  0
 23 24  1  0  0  0
 23 43  1  0  0  0
 23 44  1  0  0  0
 24 45  1  0  0  0
 24 46  1  0  0  0
 26 47  1  0  0  0
 26 48  1  0  0  0
 26 49  1  0  0  0
 27 28  2  0  0  0
 27 50  1  0  0  0
 28 29  1  0  0  0
 28 51  1  0  0  0
 29 30  2  0  0  0
 29 31  1  0  0  0
M  END
>  <Name>
Suriclone

>  <Family>
C

>  <IC50_uM>
0.002100

>  <set>
2

$$$$
CL218-872
  Cerius2 12180215283D 1   1.00000                          
 Structure written by MMmdl.
 29 31  0  0  0  0  0  0  0  0999 V2000
   -0.5090    2.2630   -0.8250 C   0  0  0  0  0  0
   -0.4029    0.8574   -0.3186 C   0  0  0  0  0  0
    0.7183    0.2666   -0.0100 N   0  0  0  0  0  0
    1.8152    1.0709   -0.1630 N   0  0  0  0  0  0
    1.8480    2.3800   -0.5980 C   0  0  0  0  0  0
    0.6195    2.9758   -0.9440 C   0  0  0  0  0  0
    3.1290    0.7481    0.0897 C   0  0  0  0  0  0
    3.8995    1.7898   -0.1726 N   0  0  0  0  0  0
    3.0919    2.8168   -0.6062 N   0  0  0  0  0  0
   -1.6791    0.0937   -0.1879 C   0  0  0  0  0  0
   -2.8686    0.7089    0.2179 C   0  0  0  0  0  0
   -4.0373   -0.0440    0.3466 C   0  0  0  0  0  0
   -4.0241   -1.4137    0.0766 C   0  0  0  0  0  0
   -2.8413   -2.0500   -0.3274 C   0  0  0  0  0  0
   -1.6677   -1.2858   -0.4447 C   0  0  0  0  0  0
    3.5487   -0.5819    0.5815 C   0  0  0  0  0  0
   -2.8156   -3.5342   -0.5903 C   0  0  0  0  0  0
   -2.4572   -4.2601    0.5116 F   0  0  0  0  0  0
   -1.9334   -3.8988   -1.5704 F   0  0  0  0  0  0
   -4.0218   -4.0438   -0.9866 F   0  0  0  0  0  0
   -1.4680    2.6767   -1.1099 H   0  0  0  0  0  0
    0.6053    3.9950   -1.3133 H   0  0  0  0  0  0
   -2.9038    1.7680    0.4625 H   0  0  0  0  0  0
   -4.9601    0.4373    0.6672 H   0  0  0  0  0  0
   -4.9453   -1.9859    0.1888 H   0  0  0  0  0  0
   -0.7405   -1.7728   -0.7467 H   0  0  0  0  0  0
    4.6345   -0.6168    0.7135 H   0  0  0  0  0  0
    3.2688   -1.3647   -0.1304 H   0  0  0  0  0  0
    3.0830   -0.8033    1.5467 H   0  0  0  0  0  0
  1  2  1  0  0  0
  1  6  2  0  0  0
  1 21  1  0  0  0
  2  3  2  0  0  0
  2 10  1  0  0  0
  3  4  1  0  0  0
  4  5  1  0  0  0
  4  7  1  0  0  0
  5  6  1  0  0  0
  5  9  2  0  0  0
  6 22  1  0  0  0
  7  8  2  0  0  0
  7 16  1  0  0  0
  8  9  1  0  0  0
 10 11  2  0  0  0
 10 15  1  0  0  0
 11 12  1  0  0  0
 11 23  1  0  0  0
 12 13  2  0  0  0
 12 24  1  0  0  0
 13 14  1  0  0  0
 13 25  1  0  0  0
 14 15  2  0  0  0
 14 17  1  0  0  0
 15 26  1  0  0  0
 16 27  1  0  0  0
 16 28  1  0  0  0
 16 29  1  0  0  0
 17 18  1  0  0  0
 17 19  1  0  0  0
 17 20  1  0  0  0
M  END
>  <Name>
CL218-872

>  <Family>
D

>  <IC50_uM>
0.120000

>  <set>
2

$$$$
CGS8216
  Cerius2 12180215283D 1   1.00000                          
 Structure written by MMmdl.
 31 34  0  0  0  0  0  0  0  0999 V2000
   -1.6434   -1.7648    0.0305 C   0  0  0  0  0  0
   -1.6643   -3.1786    0.0455 C   0  0  0  0  0  0
   -0.4585   -3.9059    0.0488 N   0  0  0  0  0  0
    0.7617   -3.2710    0.0377 C   0  0  0  0  0  0
    0.8786   -1.9427    0.0233 C   0  0  0  0  0  0
   -0.3286   -1.1151    0.0189 C   0  0  0  0  0  0
   -2.8224   -1.0193    0.0268 C   0  0  0  0  0  0
   -4.0463   -1.6878    0.0382 C   0  0  0  0  0  0
   -4.0841   -3.0852    0.0530 C   0  0  0  0  0  0
   -2.8988   -3.8287    0.0567 C   0  0  0  0  0  0
    2.0131   -1.0147    0.0094 C   0  0  0  0  0  0
    1.3614    0.2412   -0.0014 N   0  0  0  0  0  0
   -0.0469    0.1612    0.0045 N   0  0  0  0  0  0
    1.9571    1.5291   -0.0169 C   0  0  0  0  0  0
    3.3474    1.7040   -0.0241 C   0  0  0  0  0  0
    3.9133    2.9848   -0.0394 C   0  0  0  0  0  0
    3.0977    4.1122   -0.0477 C   0  0  0  0  0  0
    1.7152    3.9607   -0.0409 C   0  0  0  0  0  0
    1.1513    2.6806   -0.0256 C   0  0  0  0  0  0
    3.1899   -1.3344    0.0084 O   0  0  0  0  0  0
   -0.4853   -4.9252    0.0596 H   0  0  0  0  0  0
    1.6247   -3.9309    0.0415 H   0  0  0  0  0  0
   -2.7962    0.0675    0.0153 H   0  0  0  0  0  0
   -4.9757   -1.1202    0.0355 H   0  0  0  0  0  0
   -5.0440   -3.5999    0.0618 H   0  0  0  0  0  0
   -2.9515   -4.9155    0.0683 H   0  0  0  0  0  0
    4.0292    0.8583   -0.0181 H   0  0  0  0  0  0
    4.9964    3.0978   -0.0447 H   0  0  0  0  0  0
    3.5393    5.1070   -0.0596 H   0  0  0  0  0  0
    1.0702    4.8377   -0.0473 H   0  0  0  0  0  0
    0.0656    2.6005   -0.0206 H   0  0  0  0  0  0
  1  2  2  0  0  0
  1  6  1  0  0  0
  1  7  1  0  0  0
  2  3  1  0  0  0
  2 10  1  0  0  0
  3  4  1  0  0  0
  3 21  1  0  0  0
  4  5  2  0  0  0
  4 22  1  0  0  0
  5  6  1  0  0  0
  5 11  1  0  0  0
  6 13  2  0  0  0
  7  8  2  0  0  0
  7 23  1  0  0  0
  8  9  1  0  0  0
  8 24  1  0  0  0
  9 10  2  0  0  0
  9 25  1  0  0  0
 10 26  1  0  0  0
 11 12  1  0  0  0
 11 20  2  0  0  0
 12 13  1  0  0  0
 12 14  1  0  0  0
 14 15  2  0  0  0
 14 19  1  0  0  0
 15 16  1  0  0  0
 15 27  1  0  0  0
 16 17  2  0  0  0
 16 28  1  0  0  0
 17 18  1  0  0  0
 17 29  1  0  0  0
 18 19  2  0  0  0
 18 30  1  0  0  0
 19 31  1  0  0  0
M  END
>  <Name>
CGS8216

>  <Family>
E.1

>  <IC50_uM>
0.000460

>  <set>
2

$$$$
CGS9895
  Cerius2 12180215283D 1   1.00000                          
 Structure written by MMmdl.
 35 38  0  0  0  0  0  0  0  0999 V2000
   -1.6282   -2.7328   -0.8315 C   0  0  0  0  0  0
   -1.6963   -4.1403   -0.9489 C   0  0  0  0  0  0
   -0.5167   -4.9004   -1.0656 N   0  0  0  0  0  0
    0.7229   -4.3042   -1.0689 C   0  0  0  0  0  0
    0.8841   -2.9847   -0.9631 C   0  0  0  0  0  0
   -0.2937   -2.1246   -0.8380 C   0  0  0  0  0  0
   -2.7805   -1.9553   -0.7146 C   0  0  0  0  0  0
   -4.0249   -2.5849   -0.7140 C   0  0  0  0  0  0
   -4.1094   -3.9756   -0.8292 C   0  0  0  0  0  0
   -2.9508   -4.7512   -0.9462 C   0  0  0  0  0  0
    2.0478   -2.0939   -0.9379 C   0  0  0  0  0  0
    1.4389   -0.8237   -0.8028 N   0  0  0  0  0  0
    0.0303   -0.8617   -0.7443 N   0  0  0  0  0  0
    2.0763    0.4410   -0.7229 C   0  0  0  0  0  0
    3.4675    0.5764   -0.7724 C   0  0  0  0  0  0
    4.0710    1.8390   -0.6914 C   0  0  0  0  0  0
    3.3010    2.9944   -0.5594 C   0  0  0  0  0  0
    1.9155    2.8761   -0.5086 C   0  0  0  0  0  0
    1.3126    1.6119   -0.5897 C   0  0  0  0  0  0
    3.2124   -2.4463   -1.0190 O   0  0  0  0  0  0
    4.0136    4.1585   -0.4916 O   0  0  0  0  0  0
    3.2615    5.3638   -0.3568 C   0  0  0  0  0  0
   -0.5775   -5.9148   -1.1498 H   0  0  0  0  0  0
    1.5625   -4.9870   -1.1641 H   0  0  0  0  0  0
   -2.7180   -0.8736   -0.6248 H   0  0  0  0  0  0
   -4.9339   -1.9921   -0.6235 H   0  0  0  0  0  0
   -5.0851   -4.4598   -0.8279 H   0  0  0  0  0  0
   -3.0398   -5.8321   -1.0348 H   0  0  0  0  0  0
    4.1231   -0.2837   -0.8743 H   0  0  0  0  0  0
    5.1570    1.9110   -0.7329 H   0  0  0  0  0  0
    1.2655    3.7410   -0.4064 H   0  0  0  0  0  0
    0.2256    1.5635   -0.5460 H   0  0  0  0  0  0
    3.9712    6.1957   -0.3171 H   0  0  0  0  0  0
    2.6892    5.3678    0.5766 H   0  0  0  0  0  0
    2.6110    5.5203   -1.2235 H   0  0  0  0  0  0
  1  2  2  0  0  0
  1  6  1  0  0  0
  1  7  1  0  0  0
  2  3  1  0  0  0
  2 10  1  0  0  0
  3  4  1  0  0  0
  3 23  1  0  0  0
  4  5  2  0  0  0
  4 24  1  0  0  0
  5  6  1  0  0  0
  5 11  1  0  0  0
  6 13  2  0  0  0
  7  8  2  0  0  0
  7 25  1  0  0  0
  8  9  1  0  0  0
  8 26  1  0  0  0
  9 10  2  0  0  0
  9 27  1  0  0  0
 10 28  1  0  0  0
 11 12  1  0  0  0
 11 20  2  0  0  0
 12 13  1  0  0  0
 12 14  1  0  0  0
 14 15  2  0  0  0
 14 19  1  0  0  0
 15 16  1  0  0  0
 15 29  1  0  0  0
 16 17  2  0  0  0
 16 30  1  0  0  0
 17 18  1  0  0  0
 17 21  1  0  0  0
 18 19  2  0  0  0
 18 31  1  0  0  0
 19 32  1  0  0  0
 21 22  1  0  0  0
 22 33  1  0  0  0
 22 34  1  0  0  0
 22 35  1  0  0  0
M  END
>  <Name>
CGS9895

>  <Family>
E.1

>  <IC50_uM>
0.000340

>  <set>
1

$$$$
CGS9896
  Cerius2 12180215283D 1   1.00000                          
 Structure written by MMmdl.
 31 34  0  0  0  0  0  0  0  0999 V2000
   -1.6427   -2.0339    0.0411 C   0  0  0  0  0  0
   -1.6656   -3.4476    0.0566 C   0  0  0  0  0  0
   -0.4608   -4.1766    0.0604 N   0  0  0  0  0  0
    0.7603   -3.5434    0.0490 C   0  0  0  0  0  0
    0.8791   -2.2154    0.0339 C   0  0  0  0  0  0
   -0.3270   -1.3861    0.0293 C   0  0  0  0  0  0
   -2.8207   -1.2866    0.0370 C   0  0  0  0  0  0
   -4.0455   -1.9534    0.0486 C   0  0  0  0  0  0
   -4.0852   -3.3507    0.0640 C   0  0  0  0  0  0
   -2.9011   -4.0959    0.0681 C   0  0  0  0  0  0
    2.0146   -1.2888    0.0196 C   0  0  0  0  0  0
    1.3645   -0.0320    0.0084 N   0  0  0  0  0  0
   -0.0435   -0.1101    0.0144 N   0  0  0  0  0  0
    1.9611    1.2552   -0.0076 C   0  0  0  0  0  0
    3.3520    1.4290   -0.0149 C   0  0  0  0  0  0
    3.9200    2.7103   -0.0307 C   0  0  0  0  0  0
    3.1015    3.8350   -0.0395 C   0  0  0  0  0  0
    1.7191    3.6890   -0.0325 C   0  0  0  0  0  0
    1.1552    2.4075   -0.0168 C   0  0  0  0  0  0
    3.1912   -1.6093    0.0187 O   0  0  0  0  0  0
    3.8002    5.4068   -0.0590 Cl  0  0  0  0  0  0
   -0.4890   -5.1958    0.0716 H   0  0  0  0  0  0
    1.6224   -4.2045    0.0531 H   0  0  0  0  0  0
   -2.7929   -0.1998    0.0249 H   0  0  0  0  0  0
   -4.9740   -1.3845    0.0455 H   0  0  0  0  0  0
   -5.0459   -3.8640    0.0730 H   0  0  0  0  0  0
   -2.9553   -5.1826    0.0802 H   0  0  0  0  0  0
    4.0332    0.5829   -0.0086 H   0  0  0  0  0  0
    5.0028    2.8143   -0.0360 H   0  0  0  0  0  0
    1.0684    4.5603   -0.0392 H   0  0  0  0  0  0
    0.0695    2.3277   -0.0117 H   0  0  0  0  0  0
  1  2  2  0  0  0
  1  6  1  0  0  0
  1  7  1  0  0  0
  2  3  1  0  0  0
  2 10  1  0  0  0
  3  4  1  0  0  0
  3 22  1  0  0  0
  4  5  2  0  0  0
  4 23  1  0  0  0
  5  6  1  0  0  0
  5 11  1  0  0  0
  6 13  2  0  0  0
  7  8  2  0  0  0
  7 24  1  0  0  0
  8  9  1  0  0  0
  8 25  1  0  0  0
  9 10  2  0  0  0
  9 26  1  0  0  0
 10 27  1  0  0  0
 11 12  1  0  0  0
 11 20  2  0  0  0
 12 13  1  0  0  0
 12 14  1  0  0  0
 14 15  2  0  0  0
 14 19  1  0  0  0
 15 16  1  0  0  0
 15 28  1  0  0  0
 16 17  2  0  0  0
 16 29  1  0  0  0
 17 18  1  0  0  0
 17 21  1  0  0  0
 18 19  2  0  0  0
 18 30  1  0  0  0
 19 31  1  0  0  0
M  END
>  <Name>
CGS9896

>  <Family>
E.1

>  <IC50_uM>
0.000700

>  <set>
1

$$$$
1-6a
  Cerius2 12180215283D 1   1.00000                          
 Structure written by MMmdl.
 44 48  0  0  0  0  0  0  0  0999 V2000
   -4.0457   -1.8076   -1.6765 C   0  0  0  0  0  0
   -3.7824   -3.1467   -1.9629 C   0  0  0  0  0  0
   -2.4636   -3.6126   -2.0455 C   0  0  0  0  0  0
   -1.3730   -2.7527   -1.8434 C   0  0  0  0  0  0
   -1.6639   -1.3917   -1.5521 C   0  0  0  0  0  0
   -2.9919   -0.9223   -1.4702 C   0  0  0  0  0  0
   -0.0428   -3.2367   -1.9296 C   0  0  0  0  0  0
    1.0602   -2.4664   -1.7303 N   0  3  0  0  0  0
    0.8009   -1.1185   -1.4647 C   0  0  0  0  0  0
   -0.5138   -0.5750   -1.3685 C   0  0  0  0  0  0
    2.3941   -3.0863   -1.8303 C   0  0  0  0  0  0
    1.7455   -0.1005   -1.3131 C   0  0  0  0  0  0
   -0.4286    0.7322   -1.1167 N   0  0  0  0  0  0
    0.9033    1.0263   -0.9864 N   0  0  0  0  0  0
    1.2297    2.3758   -0.5680 C   0  0  0  0  0  0
    2.5266    2.7778   -0.2207 C   0  0  0  0  0  0
    2.7851    4.0925    0.1887 C   0  0  0  0  0  0
    1.7532    5.0237    0.2613 C   0  0  0  0  0  0
    0.4577    4.6430   -0.0708 C   0  0  0  0  0  0
    0.1959    3.3307   -0.4783 C   0  0  0  0  0  0
    2.9843   -3.4748   -0.4869 C   0  0  0  0  0  0
    4.3668   -3.3290   -0.2776 C   0  0  0  0  0  0
    4.9576   -3.7216    0.9262 C   0  0  0  0  0  0
    4.1776   -4.2777    1.9363 C   0  0  0  0  0  0
    2.8091   -4.4464    1.7405 C   0  0  0  0  0  0
    2.2166   -4.0551    0.5358 C   0  0  0  0  0  0
    2.9604   -0.0075   -1.4075 O   0  5  0  0  0  0
   -5.0740   -1.4555   -1.6158 H   0  0  0  0  0  0
   -4.6090   -3.8376   -2.1246 H   0  0  0  0  0  0
   -2.3017   -4.6671   -2.2721 H   0  0  0  0  0  0
   -3.1958    0.1237   -1.2484 H   0  0  0  0  0  0
    0.1480   -4.2837   -2.1531 H   0  0  0  0  0  0
    3.0405   -2.4076   -2.3927 H   0  0  0  0  0  0
    2.3052   -3.9908   -2.4448 H   0  0  0  0  0  0
    3.3671    2.0908   -0.2364 H   0  0  0  0  0  0
    3.7995    4.3849    0.4562 H   0  0  0  0  0  0
    1.9588    6.0437    0.5804 H   0  0  0  0  0  0
   -0.3546    5.3658   -0.0138 H   0  0  0  0  0  0
   -0.8327    3.0761   -0.7312 H   0  0  0  0  0  0
    4.9979   -2.9005   -1.0566 H   0  0  0  0  0  0
    6.0289   -3.5942    1.0729 H   0  0  0  0  0  0
    4.6365   -4.5840    2.8746 H   0  0  0  0  0  0
    2.1991   -4.8897    2.5262 H   0  0  0  0  0  0
    1.1478   -4.2192    0.4161 H   0  0  0  0  0  0
  1  2  2  0  0  0
  1  6  1  0  0  0
  1 28  1  0  0  0
  2  3  1  0  0  0
  2 29  1  0  0  0
  3  4  2  0  0  0
  3 30  1  0  0  0
  4  5  1  0  0  0
  4  7  1  0  0  0
  5  6  2  0  0  0
  5 10  1  0  0  0
  6 31  1  0  0  0
  7  8  2  0  0  0
  7 32  1  0  0  0
  8  9  1  0  0  0
  8 11  1  0  0  0
  9 10  1  0  0  0
  9 12  2  0  0  0
 10 13  2  0  0  0
 11 21  1  0  0  0
 11 33  1  0  0  0
 11 34  1  0  0  0
 12 14  1  0  0  0
 12 27  1  0  0  0
 13 14  1  0  0  0
 14 15  1  0  0  0
 15 16  2  0  0  0
 15 20  1  0  0  0
 16 17  1  0  0  0
 16 35  1  0  0  0
 17 18  2  0  0  0
 17 36  1  0  0  0
 18 19  1  0  0  0
 18 37  1  0  0  0
 19 20  2  0  0  0
 19 38  1  0  0  0
 20 39  1  0  0  0
 21 22  2  0  0  0
 21 26  1  0  0  0
 22 23  1  0  0  0
 22 40  1  0  0  0
 23 24  2  0  0  0
 23 41  1  0  0  0
 24 25  1  0  0  0
 24 42  1  0  0  0
 25 26  2  0  0  0
 25 43  1  0  0  0
 26 44  1  0  0  0
M  CHG  2   8   1  27  -1
M  END
>  <Name>
1-6a

>  <Family>
E.2

>  <IC50_uM>
>2

>  <set>
1

$$$$
1-6b
  Cerius2 12180215283D 1   1.00000                          
 Structure written by MMmdl.
 48 52  0  0  0  0  0  0  0  0999 V2000
   -4.0541   -2.4310   -1.7028 C   0  0  0  0  0  0
   -3.7938   -3.7511   -2.0686 C   0  0  0  0  0  0
   -2.4762   -4.2160   -2.1730 C   0  0  0  0  0  0
   -1.3836   -3.3737   -1.9144 C   0  0  0  0  0  0
   -1.6716   -2.0316   -1.5430 C   0  0  0  0  0  0
   -2.9985   -1.5635   -1.4386 C   0  0  0  0  0  0
   -0.0545   -3.8559   -2.0231 C   0  0  0  0  0  0
    1.0497   -3.1022   -1.7736 N   0  3  0  0  0  0
    0.7932   -1.7719   -1.4284 C   0  0  0  0  0  0
   -0.5200   -1.2312   -1.3050 C   0  0  0  0  0  0
    2.3824   -3.7184   -1.9054 C   0  0  0  0  0  0
    1.7405   -0.7690   -1.2088 C   0  0  0  0  0  0
   -0.4320    0.0574   -0.9719 N   0  0  0  0  0  0
    0.9005    0.3411   -0.8259 N   0  0  0  0  0  0
    1.2286    1.6672   -0.3390 C   0  0  0  0  0  0
    2.5270    2.0592    0.0099 C   0  0  0  0  0  0
    2.7914    3.3544    0.4867 C   0  0  0  0  0  0
    1.7617    4.2812    0.6276 C   0  0  0  0  0  0
    0.4636    3.9011    0.2917 C   0  0  0  0  0  0
    0.1961    2.6109   -0.1826 C   0  0  0  0  0  0
    2.9678   -4.1881   -0.5860 C   0  0  0  0  0  0
    4.3552   -4.0910   -0.3806 C   0  0  0  0  0  0
    4.9427   -4.5593    0.7975 C   0  0  0  0  0  0
    4.1540   -5.1429    1.7850 C   0  0  0  0  0  0
    2.7800   -5.2632    1.5923 C   0  0  0  0  0  0
    2.1908   -4.7963    0.4132 C   0  0  0  0  0  0
    2.9569   -0.6776   -1.2846 O   0  5  0  0  0  0
    1.8889    5.5654    1.0777 O   0  0  0  0  0  0
    3.2030    5.9939    1.4321 C   0  0  0  0  0  0
   -5.0816   -2.0796   -1.6251 H   0  0  0  0  0  0
   -4.6220   -4.4279   -2.2755 H   0  0  0  0  0  0
   -2.3168   -5.2556   -2.4620 H   0  0  0  0  0  0
   -3.1999   -0.5322   -1.1547 H   0  0  0  0  0  0
    0.1346   -4.8885   -2.3071 H   0  0  0  0  0  0
    3.0324   -3.0083   -2.4234 H   0  0  0  0  0  0
    2.2934   -4.5843   -2.5731 H   0  0  0  0  0  0
    3.3711    1.3794   -0.0571 H   0  0  0  0  0  0
    3.8203    3.5963    0.7412 H   0  0  0  0  0  0
   -0.3568    4.6093    0.3969 H   0  0  0  0  0  0
   -0.8363    2.3690   -0.4322 H   0  0  0  0  0  0
    4.9928   -3.6417   -1.1425 H   0  0  0  0  0  0
    6.0181   -4.4695    0.9415 H   0  0  0  0  0  0
    4.6105   -5.5089    2.7028 H   0  0  0  0  0  0
    2.1627   -5.7275    2.3599 H   0  0  0  0  0  0
    1.1170   -4.9238    0.2947 H   0  0  0  0  0  0
    3.1350    7.0340    1.7652 H   0  0  0  0  0  0
    3.8735    5.9631    0.5670 H   0  0  0  0  0  0
    3.5983    5.4017    2.2639 H   0  0  0  0  0  0
  1  2  2  0  0  0
  1  6  1  0  0  0
  1 30  1  0  0  0
  2  3  1  0  0  0
  2 31  1  0  0  0
  3  4  2  0  0  0
  3 32  1  0  0  0
  4  5  1  0  0  0
  4  7  1  0  0  0
  5  6  2  0  0  0
  5 10  1  0  0  0
  6 33  1  0  0  0
  7  8  2  0  0  0
  7 34  1  0  0  0
  8  9  1  0  0  0
  8 11  1  0  0  0
  9 10  1  0  0  0
  9 12  2  0  0  0
 10 13  2  0  0  0
 11 21  1  0  0  0
 11 35  1  0  0  0
 11 36  1  0  0  0
 12 14  1  0  0  0
 12 27  1  0  0  0
 13 14  1  0  0  0
 14 15  1  0  0  0
 15 16  2  0  0  0
 15 20  1  0  0  0
 16 17  1  0  0  0
 16 37  1  0  0  0
 17 18  2  0  0  0
 17 38  1  0  0  0
 18 19  1  0  0  0
 18 28  1  0  0  0
 19 20  2  0  0  0
 19 39  1  0  0  0
 20 40  1  0  0  0
 21 22  2  0  0  0
 21 26  1  0  0  0
 22 23  1  0  0  0
 22 41  1  0  0  0
 23 24  2  0  0  0
 23 42  1  0  0  0
 24 25  1  0  0  0
 24 43  1  0  0  0
 25 26  2  0  0  0
 25 44  1  0  0  0
 26 45  1  0  0  0
 28 29  1  0  0  0
 29 46  1  0  0  0
 29 47  1  0  0  0
 29 48  1  0  0  0
M  CHG  2   8   1  27  -1
M  END
>  <Name>
1-6b

>  <Family>
E.2

>  <IC50_uM>
>2

>  <set>
1

$$$$
1-6c
  Cerius2 12180215283D 1   1.00000                          
 Structure written by MMmdl.
 44 48  0  0  0  0  0  0  0  0999 V2000
   -4.0447   -1.8025   -1.6763 C   0  0  0  0  0  0
   -3.7815   -3.1397   -1.9708 C   0  0  0  0  0  0
   -2.4629   -3.6052   -2.0559 C   0  0  0  0  0  0
   -1.3721   -2.7466   -1.8491 C   0  0  0  0  0  0
   -1.6627   -1.3873   -1.5492 C   0  0  0  0  0  0
   -2.9907   -0.9185   -1.4643 C   0  0  0  0  0  0
   -0.0420   -3.2297   -1.9392 C   0  0  0  0  0  0
    1.0611   -2.4609   -1.7358 N   0  3  0  0  0  0
    0.8020   -1.1150   -1.4598 C   0  0  0  0  0  0
   -0.5126   -0.5721   -1.3597 C   0  0  0  0  0  0
    2.3951   -3.0794   -1.8418 C   0  0  0  0  0  0
    1.7466   -0.0987   -1.2993 C   0  0  0  0  0  0
   -0.4270    0.7333   -1.0982 N   0  0  0  0  0  0
    0.9047    1.0250   -0.9652 N   0  0  0  0  0  0
    1.2317    2.3713   -0.5365 C   0  0  0  0  0  0
    2.5282    2.7674   -0.1792 C   0  0  0  0  0  0
    2.7888    4.0798    0.2407 C   0  0  0  0  0  0
    1.7563    5.0095    0.3121 C   0  0  0  0  0  0
    0.4608    4.6384   -0.0288 C   0  0  0  0  0  0
    0.1989    3.3280   -0.4465 C   0  0  0  0  0  0
    2.9829   -3.4809   -0.5015 C   0  0  0  0  0  0
    4.3607   -3.3139   -0.2783 C   0  0  0  0  0  0
    4.9488   -3.7170    0.9233 C   0  0  0  0  0  0
    4.1706   -4.3044    1.9171 C   0  0  0  0  0  0
    2.8069   -4.4941    1.7072 C   0  0  0  0  0  0
    2.2175   -4.0922    0.5048 C   0  0  0  0  0  0
    2.9618   -0.0046   -1.3920 O   0  5  0  0  0  0
    2.0823    6.6181    0.8283 Cl  0  0  0  0  0  0
   -5.0729   -1.4508   -1.6125 H   0  0  0  0  0  0
   -4.6083   -3.8296   -2.1364 H   0  0  0  0  0  0
   -2.3011   -4.6585   -2.2886 H   0  0  0  0  0  0
   -3.1945    0.1260   -1.2357 H   0  0  0  0  0  0
    0.1488   -4.2755   -2.1689 H   0  0  0  0  0  0
    3.0415   -2.3944   -2.3964 H   0  0  0  0  0  0
    2.3073   -3.9773   -2.4662 H   0  0  0  0  0  0
    3.3670    2.0782   -0.1945 H   0  0  0  0  0  0
    3.8041    4.3599    0.5137 H   0  0  0  0  0  0
   -0.3545    5.3562    0.0254 H   0  0  0  0  0  0
   -0.8287    3.0773   -0.7078 H   0  0  0  0  0  0
    4.9899   -2.8602   -1.0445 H   0  0  0  0  0  0
    6.0165   -3.5738    1.0806 H   0  0  0  0  0  0
    4.6276   -4.6197    2.8534 H   0  0  0  0  0  0
    2.1988   -4.9626    2.4795 H   0  0  0  0  0  0
    1.1529   -4.2734    0.3731 H   0  0  0  0  0  0
  1  2  2  0  0  0
  1  6  1  0  0  0
  1 29  1  0  0  0
  2  3  1  0  0  0
  2 30  1  0  0  0
  3  4  2  0  0  0
  3 31  1  0  0  0
  4  5  1  0  0  0
  4  7  1  0  0  0
  5  6  2  0  0  0
  5 10  1  0  0  0
  6 32  1  0  0  0
  7  8  2  0  0  0
  7 33  1  0  0  0
  8  9  1  0  0  0
  8 11  1  0  0  0
  9 10  1  0  0  0
  9 12  2  0  0  0
 10 13  2  0  0  0
 11 21  1  0  0  0
 11 34  1  0  0  0
 11 35  1  0  0  0
 12 14  1  0  0  0
 12 27  1  0  0  0
 13 14  1  0  0  0
 14 15  1  0  0  0
 15 16  2  0  0  0
 15 20  1  0  0  0
 16 17  1  0  0  0
 16 36  1  0  0  0
 17 18  2  0  0  0
 17 37  1  0  0  0
 18 19  1  0  0  0
 18 28  1  0  0  0
 19 20  2  0  0  0
 19 38  1  0  0  0
 20 39  1  0  0  0
 21 22  2  0  0  0
 21 26  1  0  0  0
 22 23  1  0  0  0
 22 40  1  0  0  0
 23 24  2  0  0  0
 23 41  1  0  0  0
 24 25  1  0  0  0
 24 42  1  0  0  0
 25 26  2  0  0  0
 25 43  1  0  0  0
 26 44  1  0  0  0
M  CHG  2   8   1  27  -1
M  END
>  <Name>
1-6c

>  <Family>
E.2

>  <IC50_uM>
>2

>  <set>
2

$$$$
1-6d
  Cerius2 12180215283D 1   1.00000                          
 Structure written by MMmdl.
 44 48  0  0  0  0  0  0  0  0999 V2000
   -4.0461   -1.8070   -1.6757 C   0  0  0  0  0  0
   -3.7830   -3.1455   -1.9649 C   0  0  0  0  0  0
   -2.4644   -3.6110   -2.0502 C   0  0  0  0  0  0
   -1.3737   -2.7513   -1.8473 C   0  0  0  0  0  0
   -1.6643   -1.3908   -1.5526 C   0  0  0  0  0  0
   -2.9923   -0.9219   -1.4690 C   0  0  0  0  0  0
   -0.0436   -3.2351   -1.9351 C   0  0  0  0  0  0
    1.0594   -2.4654   -1.7340 N   0  3  0  0  0  0
    0.8003   -1.1184   -1.4637 C   0  0  0  0  0  0
   -0.5142   -0.5747   -1.3661 C   0  0  0  0  0  0
    2.3934   -3.0849   -1.8359 C   0  0  0  0  0  0
    1.7451   -0.1016   -1.3073 C   0  0  0  0  0  0
   -0.4284    0.7316   -1.1092 N   0  0  0  0  0  0
    0.9035    1.0235   -0.9774 N   0  0  0  0  0  0
    1.2313    2.3717   -0.5547 C   0  0  0  0  0  0
    2.5296    2.7683   -0.1985 C   0  0  0  0  0  0
    2.7898    4.0821    0.2127 C   0  0  0  0  0  0
    1.7557    5.0053    0.2746 C   0  0  0  0  0  0
    0.4607    4.6410   -0.0614 C   0  0  0  0  0  0
    0.1973    3.3297   -0.4707 C   0  0  0  0  0  0
    2.9827   -3.4765   -0.4932 C   0  0  0  0  0  0
    4.3625   -3.3172   -0.2773 C   0  0  0  0  0  0
    4.9526   -3.7112    0.9264 C   0  0  0  0  0  0
    4.1745   -4.2822    1.9296 C   0  0  0  0  0  0
    2.8087   -4.4645    1.7270 C   0  0  0  0  0  0
    2.2170   -4.0715    0.5225 C   0  0  0  0  0  0
    2.9601   -0.0080   -1.4009 O   0  5  0  0  0  0
    2.0103    6.2602    0.6677 F   0  0  0  0  0  0
   -5.0745   -1.4553   -1.6125 H   0  0  0  0  0  0
   -4.6099   -3.8362   -2.1263 H   0  0  0  0  0  0
   -2.3027   -4.6651   -2.2786 H   0  0  0  0  0  0
   -3.1960    0.1235   -1.2448 H   0  0  0  0  0  0
    0.1475   -4.2815   -2.1608 H   0  0  0  0  0  0
    3.0396   -2.4044   -2.3963 H   0  0  0  0  0  0
    2.3048   -3.9877   -2.4528 H   0  0  0  0  0  0
    3.3674    2.0781   -0.2084 H   0  0  0  0  0  0
    3.7978    4.3802    0.4884 H   0  0  0  0  0  0
   -0.3412    5.3717   -0.0055 H   0  0  0  0  0  0
   -0.8302    3.0777   -0.7303 H   0  0  0  0  0  0
    4.9918   -2.8761   -1.0507 H   0  0  0  0  0  0
    6.0217   -3.5730    1.0782 H   0  0  0  0  0  0
    4.6329   -4.5901    2.8676 H   0  0  0  0  0  0
    2.2003   -4.9196    2.5071 H   0  0  0  0  0  0
    1.1504   -4.2459    0.3975 H   0  0  0  0  0  0
  1  2  2  0  0  0
  1  6  1  0  0  0
  1 29  1  0  0  0
  2  3  1  0  0  0
  2 30  1  0  0  0
  3  4  2  0  0  0
  3 31  1  0  0  0
  4  5  1  0  0  0
  4  7  1  0  0  0
  5  6  2  0  0  0
  5 10  1  0  0  0
  6 32  1  0  0  0
  7  8  2  0  0  0
  7 33  1  0  0  0
  8  9  1  0  0  0
  8 11  1  0  0  0
  9 10  1  0  0  0
  9 12  2  0  0  0
 10 13  2  0  0  0
 11 21  1  0  0  0
 11 34  1  0  0  0
 11 35  1  0  0  0
 12 14  1  0  0  0
 12 27  1  0  0  0
 13 14  1  0  0  0
 14 15  1  0  0  0
 15 16  2  0  0  0
 15 20  1  0  0  0
 16 17  1  0  0  0
 16 36  1  0  0  0
 17 18  2  0  0  0
 17 37  1  0  0  0
 18 19  1  0  0  0
 18 28  1  0  0  0
 19 20  2  0  0  0
 19 38  1  0  0  0
 20 39  1  0  0  0
 21 22  2  0  0  0
 21 26  1  0  0  0
 22 23  1  0  0  0
 22 40  1  0  0  0
 23 24  2  0  0  0
 23 41  1  0  0  0
 24 25  1  0  0  0
 24 42  1  0  0  0
 25 26  2  0  0  0
 25 43  1  0  0  0
 26 44  1  0  0  0
M  CHG  2   8   1  27  -1
M  END
>  <Name>
1-6d

>  <Family>
E.2

>  <IC50_uM>
>2

>  <set>
0

$$$$
1-7a
  Cerius2 12180215283D 1   1.00000                          
 Structure written by MMmdl.
 31 34  0  0  0  0  0  0  0  0999 V2000
   -4.0724   -1.7580    0.5587 C   0  0  0  0  0  0
   -4.0337   -3.1521    0.6157 C   0  0  0  0  0  0
   -2.8132   -3.8344    0.5434 C   0  0  0  0  0  0
   -1.6025   -3.1342    0.4130 C   0  0  0  0  0  0
   -1.6596   -1.7182    0.3591 C   0  0  0  0  0  0
   -2.8903   -1.0327    0.4300 C   0  0  0  0  0  0
   -0.3445   -3.7906    0.3304 C   0  0  0  0  0  0
    0.9020   -3.2274    0.1987 N   0  0  0  0  0  0
    0.8230   -1.8726    0.1648 C   0  0  0  0  0  0
   -0.3821   -1.0933    0.2291 C   0  0  0  0  0  0
    1.8761   -1.0092    0.0043 C   0  0  0  0  0  0
    1.3044    0.2633    0.1163 N   0  0  0  0  0  0
   -0.0676    0.2109    0.1252 N   0  0  0  0  0  0
    1.9445    1.5356    0.2448 C   0  0  0  0  0  0
    3.2830    1.6519    0.6439 C   0  0  0  0  0  0
    3.8740    2.9140    0.7670 C   0  0  0  0  0  0
    3.1355    4.0660    0.5053 C   0  0  0  0  0  0
    1.7983    3.9624    0.1311 C   0  0  0  0  0  0
    1.2011    2.7050    0.0082 C   0  0  0  0  0  0
    3.1662   -1.2765   -0.2323 O   0  0  0  0  0  0
   -5.0272   -1.2377    0.6150 H   0  0  0  0  0  0
   -4.9610   -3.7148    0.7164 H   0  0  0  0  0  0
   -2.8178   -4.9233    0.5890 H   0  0  0  0  0  0
   -2.9196    0.0543    0.3861 H   0  0  0  0  0  0
   -0.3170   -4.8820    0.3696 H   0  0  0  0  0  0
    3.8859    0.7898    0.9174 H   0  0  0  0  0  0
    4.9133    2.9968    1.0820 H   0  0  0  0  0  0
    3.5999    5.0457    0.6041 H   0  0  0  0  0  0
    1.2166    4.8615   -0.0653 H   0  0  0  0  0  0
    0.1546    2.6579   -0.2907 H   0  0  0  0  0  0
    3.5659   -0.5141   -0.7031 H   0  0  0  0  0  0
  1  2  2  0  0  0
  1  6  1  0  0  0
  1 21  1  0  0  0
  2  3  1  0  0  0
  2 22  1  0  0  0
  3  4  2  0  0  0
  3 23  1  0  0  0
  4  5  1  0  0  0
  4  7  1  0  0  0
  5  6  2  0  0  0
  5 10  1  0  0  0
  6 24  1  0  0  0
  7  8  2  0  0  0
  7 25  1  0  0  0
  8  9  1  0  0  0
  9 10  1  0  0  0
  9 11  2  0  0  0
 10 13  2  0  0  0
 11 12  1  0  0  0
 11 20  1  0  0  0
 12 13  1  0  0  0
 12 14  1  0  0  0
 14 15  2  0  0  0
 14 19  1  0  0  0
 15 16  1  0  0  0
 15 26  1  0  0  0
 16 17  2  0  0  0
 16 27  1  0  0  0
 17 18  1  0  0  0
 17 28  1  0  0  0
 18 19  2  0  0  0
 18 29  1  0  0  0
 19 30  1  0  0  0
 20 31  1  0  0  0
M  END
>  <Name>
1-7a

>  <Family>
E.2

>  <IC50_uM>
>2

>  <set>
1

$$$$
1-7b
  Cerius2 12180215283D 1   1.00000                          
 Structure written by MMmdl.
 35 38  0  0  0  0  0  0  0  0999 V2000
   -4.0728   -2.6333    1.1138 C   0  0  0  0  0  0
   -4.0731   -4.0130    1.3257 C   0  0  0  0  0  0
   -2.8689   -4.7249    1.3839 C   0  0  0  0  0  0
   -1.6358   -4.0696    1.2318 C   0  0  0  0  0  0
   -1.6535   -2.6676    1.0196 C   0  0  0  0  0  0
   -2.8677   -1.9523    0.9592 C   0  0  0  0  0  0
   -0.3929   -4.7576    1.2790 C   0  0  0  0  0  0
    0.8724   -4.2391    1.1424 N   0  0  0  0  0  0
    0.8302   -2.8953    0.9555 C   0  0  0  0  0  0
   -0.3558   -2.0883    0.8791 C   0  0  0  0  0  0
    1.9113   -2.0775    0.7487 C   0  0  0  0  0  0
    1.3686   -0.7889    0.6923 N   0  0  0  0  0  0
   -0.0032   -0.8107    0.6462 N   0  0  0  0  0  0
    2.0352    0.4763    0.7067 C   0  0  0  0  0  0
    3.3568    0.6111    1.1447 C   0  0  0  0  0  0
    3.9699    1.8707    1.1515 C   0  0  0  0  0  0
    3.2780    3.0103    0.7356 C   0  0  0  0  0  0
    1.9543    2.8844    0.3203 C   0  0  0  0  0  0
    1.3337    1.6277    0.3129 C   0  0  0  0  0  0
    3.2031   -2.3967    0.6030 O   0  0  0  0  0  0
    3.9968    4.1720    0.7919 O   0  0  0  0  0  0
    3.3302    5.3599    0.3667 C   0  0  0  0  0  0
   -5.0151   -2.0897    1.0697 H   0  0  0  0  0  0
   -5.0182   -4.5411    1.4461 H   0  0  0  0  0  0
   -2.9039   -5.8017    1.5490 H   0  0  0  0  0  0
   -2.8666   -0.8765    0.7945 H   0  0  0  0  0  0
   -0.3956   -5.8382    1.4395 H   0  0  0  0  0  0
    3.9303   -0.2249    1.5362 H   0  0  0  0  0  0
    4.9985    1.9577    1.4995 H   0  0  0  0  0  0
    1.3684    3.7401   -0.0050 H   0  0  0  0  0  0
    0.2985    1.5690   -0.0224 H   0  0  0  0  0  0
    3.6418   -1.7030    0.0654 H   0  0  0  0  0  0
    4.0364    6.1901    0.4637 H   0  0  0  0  0  0
    2.4687    5.5775    1.0064 H   0  0  0  0  0  0
    3.0374    5.2915   -0.6862 H   0  0  0  0  0  0
  1  2  2  0  0  0
  1  6  1  0  0  0
  1 23  1  0  0  0
  2  3  1  0  0  0
  2 24  1  0  0  0
  3  4  2  0  0  0
  3 25  1  0  0  0
  4  5  1  0  0  0
  4  7  1  0  0  0
  5  6  2  0  0  0
  5 10  1  0  0  0
  6 26  1  0  0  0
  7  8  2  0  0  0
  7 27  1  0  0  0
  8  9  1  0  0  0
  9 10  1  0  0  0
  9 11  2  0  0  0
 10 13  2  0  0  0
 11 12  1  0  0  0
 11 20  1  0  0  0
 12 13  1  0  0  0
 12 14  1  0  0  0
 14 15  2  0  0  0
 14 19  1  0  0  0
 15 16  1  0  0  0
 15 28  1  0  0  0
 16 17  2  0  0  0
 16 29  1  0  0  0
 17 18  1  0  0  0
 17 21  1  0  0  0
 18 19  2  0  0  0
 18 30  1  0  0  0
 19 31  1  0  0  0
 20 32  1  0  0  0
 21 22  1  0  0  0
 22 33  1  0  0  0
 22 34  1  0  0  0
 22 35  1  0  0  0
M  END
>  <Name>
1-7b

>  <Family>
E.2

>  <IC50_uM>
>2

>  <set>
2

$$$$
1-7c
  Cerius2 12180215283D 1   1.00000                          
 Structure written by MMmdl.
 31 34  0  0  0  0  0  0  0  0999 V2000
   -4.0718   -2.0238    0.5587 C   0  0  0  0  0  0
   -4.0347   -3.4178    0.6201 C   0  0  0  0  0  0
   -2.8151   -4.1017    0.5504 C   0  0  0  0  0  0
   -1.6035   -3.4034    0.4181 C   0  0  0  0  0  0
   -1.6590   -1.9876    0.3598 C   0  0  0  0  0  0
   -2.8888   -1.3003    0.4281 C   0  0  0  0  0  0
   -0.3461   -4.0614    0.3380 C   0  0  0  0  0  0
    0.9011   -3.5000    0.2051 N   0  0  0  0  0  0
    0.8235   -2.1453    0.1669 C   0  0  0  0  0  0
   -0.3808   -1.3646    0.2284 C   0  0  0  0  0  0
    1.8776   -1.2835    0.0042 C   0  0  0  0  0  0
    1.3070   -0.0104    0.1115 N   0  0  0  0  0  0
   -0.0647   -0.0610    0.1207 N   0  0  0  0  0  0
    1.9478    1.2625    0.2369 C   0  0  0  0  0  0
    3.2872    1.3795    0.6342 C   0  0  0  0  0  0
    3.8793    2.6430    0.7562 C   0  0  0  0  0  0
    3.1367    3.7919    0.4941 C   0  0  0  0  0  0
    1.7999    3.6916    0.1204 C   0  0  0  0  0  0
    1.2036    2.4319   -0.0008 C   0  0  0  0  0  0
    3.1676   -1.5527   -0.2301 O   0  0  0  0  0  0
    3.8706    5.3408    0.6475 Cl  0  0  0  0  0  0
   -5.0259   -1.5022    0.6131 H   0  0  0  0  0  0
   -4.9627   -3.9791    0.7224 H   0  0  0  0  0  0
   -2.8209   -5.1905    0.5995 H   0  0  0  0  0  0
   -2.9167   -0.2134    0.3808 H   0  0  0  0  0  0
   -0.3199   -5.1527    0.3803 H   0  0  0  0  0  0
    3.8907    0.5179    0.9076 H   0  0  0  0  0  0
    4.9184    2.7177    1.0701 H   0  0  0  0  0  0
    1.2113    4.5844   -0.0782 H   0  0  0  0  0  0
    0.1568    2.3842   -0.2988 H   0  0  0  0  0  0
    3.5674   -0.7950   -0.7082 H   0  0  0  0  0  0
  1  2  2  0  0  0
  1  6  1  0  0  0
  1 22  1  0  0  0
  2  3  1  0  0  0
  2 23  1  0  0  0
  3  4  2  0  0  0
  3 24  1  0  0  0
  4  5  1  0  0  0
  4  7  1  0  0  0
  5  6  2  0  0  0
  5 10  1  0  0  0
  6 25  1  0  0  0
  7  8  2  0  0  0
  7 26  1  0  0  0
  8  9  1  0  0  0
  9 10  1  0  0  0
  9 11  2  0  0  0
 10 13  2  0  0  0
 11 12  1  0  0  0
 11 20  1  0  0  0
 12 13  1  0  0  0
 12 14  1  0  0  0
 14 15  2  0  0  0
 14 19  1  0  0  0
 15 16  1  0  0  0
 15 27  1  0  0  0
 16 17  2  0  0  0
 16 28  1  0  0  0
 17 18  1  0  0  0
 17 21  1  0  0  0
 18 19  2  0  0  0
 18 29  1  0  0  0
 19 30  1  0  0  0
 20 31  1  0  0  0
M  END
>  <Name>
1-7c

>  <Family>
E.2

>  <IC50_uM>
>2

>  <set>
2

$$$$
1-7d
  Cerius2 12180215283D 1   1.00000                          
 Structure written by MMmdl.
 31 34  0  0  0  0  0  0  0  0999 V2000
   -4.0722   -1.8518    0.5575 C   0  0  0  0  0  0
   -4.0346   -3.2458    0.6168 C   0  0  0  0  0  0
   -2.8147   -3.9292    0.5463 C   0  0  0  0  0  0
   -1.6033   -3.2303    0.4154 C   0  0  0  0  0  0
   -1.6593   -1.8144    0.3592 C   0  0  0  0  0  0
   -2.8894   -1.1277    0.4283 C   0  0  0  0  0  0
   -0.3457   -3.8878    0.3346 C   0  0  0  0  0  0
    0.9013   -3.3257    0.2026 N   0  0  0  0  0  0
    0.8233   -1.9710    0.1663 C   0  0  0  0  0  0
   -0.3813   -1.1907    0.2289 C   0  0  0  0  0  0
    1.8771   -1.1085    0.0049 C   0  0  0  0  0  0
    1.3060    0.1642    0.1140 N   0  0  0  0  0  0
   -0.0656    0.1131    0.1232 N   0  0  0  0  0  0
    1.9463    1.4374    0.2410 C   0  0  0  0  0  0
    3.2869    1.5539    0.6387 C   0  0  0  0  0  0
    3.8768    2.8169    0.7621 C   0  0  0  0  0  0
    3.1293    3.9587    0.5013 C   0  0  0  0  0  0
    1.7954    3.8656    0.1282 C   0  0  0  0  0  0
    1.1997    2.6073    0.0048 C   0  0  0  0  0  0
    3.1672   -1.3770   -0.2297 O   0  0  0  0  0  0
    3.6995    5.1646    0.6235 F   0  0  0  0  0  0
   -5.0265   -1.3307    0.6125 H   0  0  0  0  0  0
   -4.9624   -3.8077    0.7180 H   0  0  0  0  0  0
   -2.8201   -5.0181    0.5936 H   0  0  0  0  0  0
   -2.9178   -0.0407    0.3826 H   0  0  0  0  0  0
   -0.3191   -4.9791    0.3755 H   0  0  0  0  0  0
    3.8910    0.6922    0.9104 H   0  0  0  0  0  0
    4.9135    2.9104    1.0746 H   0  0  0  0  0  0
    1.2216    4.7678   -0.0646 H   0  0  0  0  0  0
    0.1530    2.5590   -0.2930 H   0  0  0  0  0  0
    3.5666   -0.6189   -0.7076 H   0  0  0  0  0  0
  1  2  2  0  0  0
  1  6  1  0  0  0
  1 22  1  0  0  0
  2  3  1  0  0  0
  2 23  1  0  0  0
  3  4  2  0  0  0
  3 24  1  0  0  0
  4  5  1  0  0  0
  4  7  1  0  0  0
  5  6  2  0  0  0
  5 10  1  0  0  0
  6 25  1  0  0  0
  7  8  2  0  0  0
  7 26  1  0  0  0
  8  9  1  0  0  0
  9 10  1  0  0  0
  9 11  2  0  0  0
 10 13  2  0  0  0
 11 12  1  0  0  0
 11 20  1  0  0  0
 12 13  1  0  0  0
 12 14  1  0  0  0
 14 15  2  0  0  0
 14 19  1  0  0  0
 15 16  1  0  0  0
 15 27  1  0  0  0
 16 17  2  0  0  0
 16 28  1  0  0  0
 17 18  1  0  0  0
 17 21  1  0  0  0
 18 19  2  0  0  0
 18 29  1  0  0  0
 19 30  1  0  0  0
 20 31  1  0  0  0
M  END
>  <Name>
1-7d

>  <Family>
E.2

>  <IC50_uM>
>2

>  <set>
0

$$$$
1-8
  Cerius2 12180215283D 1   1.00000                          
 Structure written by MMmdl.
 31 34  0  0  0  0  0  0  0  0999 V2000
   -4.0414   -1.7385   -0.6826 C   0  0  0  0  0  0
   -4.0192   -3.1340   -0.6875 C   0  0  0  0  0  0
   -2.8077   -3.8274   -0.5800 C   0  0  0  0  0  0
   -1.5897   -3.1371   -0.4659 C   0  0  0  0  0  0
   -1.6296   -1.7199   -0.4657 C   0  0  0  0  0  0
   -2.8514   -1.0231   -0.5716 C   0  0  0  0  0  0
   -0.3409   -3.8040   -0.3477 C   0  0  0  0  0  0
    0.9104   -3.2505   -0.2272 N   0  0  0  0  0  0
    0.8505   -1.8935   -0.2465 C   0  0  0  0  0  0
   -0.3459   -1.1052   -0.3487 C   0  0  0  0  0  0
    1.9030   -1.0277   -0.1152 C   0  0  0  0  0  0
    1.3563    0.2431   -0.2688 N   0  0  0  0  0  0
   -0.0204    0.1987   -0.2856 N   0  0  0  0  0  0
    1.9780    1.5225   -0.4358 C   0  0  0  0  0  0
    3.2749    1.6642   -0.9446 C   0  0  0  0  0  0
    3.8376    2.9356   -1.1031 C   0  0  0  0  0  0
    3.1089    4.0750   -0.7703 C   0  0  0  0  0  0
    1.8085    3.9489   -0.2904 C   0  0  0  0  0  0
    1.2411    2.6816   -0.1319 C   0  0  0  0  0  0
    3.5606   -1.3969    0.2835 S   0  0  0  0  0  0
   -4.9892   -1.2093   -0.7659 H   0  0  0  0  0  0
   -4.9524   -3.6891   -0.7747 H   0  0  0  0  0  0
   -2.8249   -4.9172   -0.5849 H   0  0  0  0  0  0
   -2.8679    0.0651   -0.5683 H   0  0  0  0  0  0
   -0.3259   -4.8963   -0.3448 H   0  0  0  0  0  0
    3.8633    0.8161   -1.2816 H   0  0  0  0  0  0
    4.8458    3.0350   -1.5031 H   0  0  0  0  0  0
    3.5507    5.0618   -0.8973 H   0  0  0  0  0  0
    1.2320    4.8375   -0.0388 H   0  0  0  0  0  0
    0.2231    2.6178    0.2512 H   0  0  0  0  0  0
    3.8980   -0.2411    0.8808 H   0  0  0  0  0  0
  1  2  2  0  0  0
  1  6  1  0  0  0
  1 21  1  0  0  0
  2  3  1  0  0  0
  2 22  1  0  0  0
  3  4  2  0  0  0
  3 23  1  0  0  0
  4  5  1  0  0  0
  4  7  1  0  0  0
  5  6  2  0  0  0
  5 10  1  0  0  0
  6 24  1  0  0  0
  7  8  2  0  0  0
  7 25  1  0  0  0
  8  9  1  0  0  0
  9 10  1  0  0  0
  9 11  2  0  0  0
 10 13  2  0  0  0
 11 12  1  0  0  0
 11 20  1  0  0  0
 12 13  1  0  0  0
 12 14  1  0  0  0
 14 15  2  0  0  0
 14 19  1  0  0  0
 15 16  1  0  0  0
 15 26  1  0  0  0
 16 17  2  0  0  0
 16 27  1  0  0  0
 17 18  1  0  0  0
 17 28  1  0  0  0
 18 19  2  0  0  0
 18 29  1  0  0  0
 19 30  1  0  0  0
 20 31  1  0  0  0
M  END
>  <Name>
1-8

>  <Family>
E.2

>  <IC50_uM>
>2

>  <set>
1

$$$$
1-9
  Cerius2 12180215283D 1   1.00000                          
 Structure written by MMmdl.
 30 33  0  0  0  0  0  0  0  0999 V2000
   -4.0638   -1.7114    0.0439 C   0  0  0  0  0  0
   -4.0638   -3.1071    0.0615 C   0  0  0  0  0  0
   -2.8585   -3.8194    0.0698 C   0  0  0  0  0  0
   -1.6247   -3.1481    0.0606 C   0  0  0  0  0  0
   -1.6424   -1.7304    0.0427 C   0  0  0  0  0  0
   -2.8577   -1.0146    0.0344 C   0  0  0  0  0  0
   -0.3806   -3.8343    0.0686 C   0  0  0  0  0  0
    0.8844   -3.2990    0.0612 N   0  0  0  0  0  0
    0.8406   -1.9418    0.0441 C   0  0  0  0  0  0
   -0.3437   -1.1361    0.0346 C   0  0  0  0  0  0
    1.9051   -1.0891    0.0333 C   0  0  0  0  0  0
    1.3891    0.1985    0.0168 N   0  0  0  0  0  0
    0.0052    0.1627    0.0184 N   0  0  0  0  0  0
    2.0083    1.4992   -0.0008 C   0  0  0  0  0  0
    3.3922    1.7048   -0.0086 C   0  0  0  0  0  0
    3.9253    3.0020   -0.0259 C   0  0  0  0  0  0
    3.0883    4.1129   -0.0358 C   0  0  0  0  0  0
    1.7114    3.9318   -0.0286 C   0  0  0  0  0  0
    1.1763    2.6395   -0.0113 C   0  0  0  0  0  0
    3.5559   -1.5133    0.0404 Cl  0  0  0  0  0  0
   -5.0070   -1.1676    0.0377 H   0  0  0  0  0  0
   -5.0096   -3.6475    0.0689 H   0  0  0  0  0  0
   -2.8930   -4.9086    0.0835 H   0  0  0  0  0  0
   -2.8571    0.0736    0.0207 H   0  0  0  0  0  0
   -0.3816   -4.9266    0.0823 H   0  0  0  0  0  0
    4.1170    0.9030   -0.0028 H   0  0  0  0  0  0
    5.0060    3.1400   -0.0317 H   0  0  0  0  0  0
    3.5096    5.1162   -0.0493 H   0  0  0  0  0  0
    1.0473    4.7945   -0.0364 H   0  0  0  0  0  0
    0.0902    2.5496   -0.0062 H   0  0  0  0  0  0
  1  2  2  0  0  0
  1  6  1  0  0  0
  1 21  1  0  0  0
  2  3  1  0  0  0
  2 22  1  0  0  0
  3  4  2  0  0  0
  3 23  1  0  0  0
  4  5  1  0  0  0
  4  7  1  0  0  0
  5  6  2  0  0  0
  5 10  1  0  0  0
  6 24  1  0  0  0
  7  8  2  0  0  0
  7 25  1  0  0  0
  8  9  1  0  0  0
  9 10  1  0  0  0
  9 11  2  0  0  0
 10 13  2  0  0  0
 11 12  1  0  0  0
 11 20  1  0  0  0
 12 13  1  0  0  0
 12 14  1  0  0  0
 14 15  2  0  0  0
 14 19  1  0  0  0
 15 16  1  0  0  0
 15 26  1  0  0  0
 16 17  2  0  0  0
 16 27  1  0  0  0
 17 18  1  0  0  0
 17 28  1  0  0  0
 18 19  2  0  0  0
 18 29  1  0  0  0
 19 30  1  0  0  0
M  END
>  <Name>
1-9

>  <Family>
E.2

>  <IC50_uM>
>2

>  <set>
2

$$$$
PK8165
  Cerius2 12180215283D 1   1.00000                          
 Structure written by MMmdl.
 48 51  0  0  0  0  0  0  0  0999 V2000
   -4.1785    0.2756   -2.4089 C   0  0  0  0  0  0
   -4.0780   -1.0924   -2.6044 C   0  0  0  0  0  0
   -2.8173   -1.6893   -2.6548 C   0  0  0  0  0  0
   -1.6469   -0.9543   -2.5161 C   0  0  0  0  0  0
   -1.7323    0.4440   -2.3232 C   0  0  0  0  0  0
   -3.0185    1.0375   -2.2689 C   0  0  0  0  0  0
   -0.4809   -1.6210   -2.5679 N   0  0  0  0  0  0
    0.6834   -0.9411   -2.4248 C   0  0  0  0  0  0
    0.6956    0.4360   -2.2441 C   0  0  0  0  0  0
   -0.5114    1.1522   -2.1869 C   0  0  0  0  0  0
    1.9147   -1.7592   -2.4783 C   0  0  0  0  0  0
    1.9732   -2.9234   -3.2691 C   0  0  0  0  0  0
    3.1287   -3.7092   -3.3312 C   0  0  0  0  0  0
    4.2550   -3.3499   -2.5982 C   0  0  0  0  0  0
    4.2248   -2.2088   -1.8026 C   0  0  0  0  0  0
    3.0676   -1.4242   -1.7427 C   0  0  0  0  0  0
   -0.4226    2.6496   -1.9876 C   0  0  0  0  0  0
    0.0553    3.1057   -0.5980 C   0  0  0  0  0  0
   -0.9833    2.9439    0.5379 C   0  0  0  0  0  0
   -1.0083    1.5408    1.1696 C   0  0  0  0  0  0
    0.2185    1.2552    2.0374 C   0  0  0  0  0  0
    0.3874    2.2713    3.0808 N   0  0  0  0  0  0
    0.5084    3.6112    2.4986 C   0  0  0  0  0  0
   -0.7226    3.9644    1.6638 C   0  0  0  0  0  0
   -5.1554    0.7534   -2.3631 H   0  0  0  0  0  0
   -4.9740   -1.6997   -2.7148 H   0  0  0  0  0  0
   -2.7527   -2.7661   -2.8047 H   0  0  0  0  0  0
   -3.1416    2.1059   -2.1084 H   0  0  0  0  0  0
    1.6397    0.9692   -2.1605 H   0  0  0  0  0  0
    1.1061   -3.2274   -3.8559 H   0  0  0  0  0  0
    3.1447   -4.6021   -3.9536 H   0  0  0  0  0  0
    5.1549   -3.9605   -2.6441 H   0  0  0  0  0  0
    5.1015   -1.9269   -1.2216 H   0  0  0  0  0  0
    3.0784   -0.5487   -1.0943 H   0  0  0  0  0  0
   -1.3579    3.1573   -2.2387 H   0  0  0  0  0  0
    0.2932    3.0279   -2.7314 H   0  0  0  0  0  0
    0.2903    4.1740   -0.6977 H   0  0  0  0  0  0
    1.0005    2.6163   -0.3401 H   0  0  0  0  0  0
   -1.9764    3.1578    0.1229 H   0  0  0  0  0  0
   -1.1032    0.7593    0.4142 H   0  0  0  0  0  0
   -1.9064    1.4598    1.7973 H   0  0  0  0  0  0
    1.1242    1.1859    1.4242 H   0  0  0  0  0  0
    0.0918    0.2799    2.5203 H   0  0  0  0  0  0
    1.2516    2.0639    3.5960 H   0  0  0  0  0  0
    1.4212    3.6832    1.8955 H   0  0  0  0  0  0
    0.6075    4.3374    3.3128 H   0  0  0  0  0  0
   -1.6018    3.9978    2.3216 H   0  0  0  0  0  0
   -0.6125    4.9737    1.2500 H   0  0  0  0  0  0
  1  2  2  0  0  0
  1  6  1  0  0  0
  1 25  1  0  0  0
  2  3  1  0  0  0
  2 26  1  0  0  0
  3  4  2  0  0  0
  3 27  1  0  0  0
  4  5  1  0  0  0
  4  7  1  0  0  0
  5  6  2  0  0  0
  5 10  1  0  0  0
  6 28  1  0  0  0
  7  8  2  0  0  0
  8  9  1  0  0  0
  8 11  1  0  0  0
  9 10  2  0  0  0
  9 29  1  0  0  0
 10 17  1  0  0  0
 11 12  2  0  0  0
 11 16  1  0  0  0
 12 13  1  0  0  0
 12 30  1  0  0  0
 13 14  2  0  0  0
 13 31  1  0  0  0
 14 15  1  0  0  0
 14 32  1  0  0  0
 15 16  2  0  0  0
 15 33  1  0  0  0
 16 34  1  0  0  0
 17 18  1  0  0  0
 17 35  1  0  0  0
 17 36  1  0  0  0
 18 19  1  0  0  0
 18 37  1  0  0  0
 18 38  1  0  0  0
 19 20  1  0  0  0
 19 24  1  0  0  0
 19 39  1  0  0  0
 20 21  1  0  0  0
 20 40  1  0  0  0
 20 41  1  0  0  0
 21 22  1  0  0  0
 21 42  1  0  0  0
 21 43  1  0  0  0
 22 23  1  0  0  0
 22 44  1  0  0  0
 23 24  1  0  0  0
 23 45  1  0  0  0
 23 46  1  0  0  0
 24 47  1  0  0  0
 24 48  1  0  0  0
M  END
>  <Name>
PK8165

>  <Family>
F

>  <IC50_uM>
0.100000

>  <set>
2

$$$$
PK9084
  Cerius2 12180215283D 1   1.00000                          
 Structure written by MMmdl.
 48 51  0  0  0  0  0  0  0  0999 V2000
   -4.1484    0.2867   -2.4095 C   0  0  0  0  0  0
   -4.0609   -1.0798   -2.6211 C   0  0  0  0  0  0
   -2.8058   -1.6869   -2.6871 C   0  0  0  0  0  0
   -1.6281   -0.9636   -2.5478 C   0  0  0  0  0  0
   -1.7005    0.4330   -2.3371 C   0  0  0  0  0  0
   -2.9810    1.0370   -2.2686 C   0  0  0  0  0  0
   -0.4680   -1.6388   -2.6184 N   0  0  0  0  0  0
    0.7028   -0.9699   -2.4752 C   0  0  0  0  0  0
    0.7275    0.4045   -2.2743 C   0  0  0  0  0  0
   -0.4730    1.1296   -2.2015 C   0  0  0  0  0  0
    1.9275   -1.7956   -2.5577 C   0  0  0  0  0  0
    1.9701   -2.9427   -3.3740 C   0  0  0  0  0  0
    3.1204   -3.7331   -3.4669 C   0  0  0  0  0  0
    4.2571   -3.3961   -2.7393 C   0  0  0  0  0  0
    4.2423   -2.2727   -1.9183 C   0  0  0  0  0  0
    3.0904   -1.4833   -1.8279 C   0  0  0  0  0  0
   -0.3710    2.6243   -1.9903 C   0  0  0  0  0  0
    0.0736    3.0667   -0.5857 C   0  0  0  0  0  0
   -0.9918    2.8766    0.5223 C   0  0  0  0  0  0
   -0.9699    1.4822    1.1831 C   0  0  0  0  0  0
    0.2154    1.2346    2.0179 N   0  0  0  0  0  0
    0.3330    2.2470    3.0725 C   0  0  0  0  0  0
    0.3825    3.6641    2.5081 C   0  0  0  0  0  0
   -0.8298    3.9431    1.6237 C   0  0  0  0  0  0
   -5.1207    0.7724   -2.3526 H   0  0  0  0  0  0
   -4.9629   -1.6780   -2.7332 H   0  0  0  0  0  0
   -2.7515   -2.7622   -2.8508 H   0  0  0  0  0  0
   -3.0937    2.1049   -2.0981 H   0  0  0  0  0  0
    1.6765    0.9289   -2.1899 H   0  0  0  0  0  0
    1.0948   -3.2287   -3.9577 H   0  0  0  0  0  0
    3.1245   -4.6121   -4.1093 H   0  0  0  0  0  0
    5.1530   -4.0102   -2.8093 H   0  0  0  0  0  0
    5.1271   -2.0085   -1.3415 H   0  0  0  0  0  0
    3.1131   -0.6222   -1.1608 H   0  0  0  0  0  0
   -1.2941    3.1424   -2.2653 H   0  0  0  0  0  0
    0.3683    3.0005   -2.7121 H   0  0  0  0  0  0
    0.3025    4.1377   -0.6672 H   0  0  0  0  0  0
    1.0173    2.5808   -0.3152 H   0  0  0  0  0  0
   -1.9814    3.0292    0.0733 H   0  0  0  0  0  0
   -1.0273    0.6911    0.4333 H   0  0  0  0  0  0
   -1.8669    1.3633    1.8048 H   0  0  0  0  0  0
    1.0477    1.2947    1.4228 H   0  0  0  0  0  0
    1.2445    2.0516    3.6480 H   0  0  0  0  0  0
   -0.5055    2.1465    3.7724 H   0  0  0  0  0  0
    1.3056    3.8044    1.9326 H   0  0  0  0  0  0
    0.4095    4.3865    3.3318 H   0  0  0  0  0  0
   -1.7315    3.9448    2.2502 H   0  0  0  0  0  0
   -0.7552    4.9463    1.1884 H   0  0  0  0  0  0
  1  2  2  0  0  0
  1  6  1  0  0  0
  1 25  1  0  0  0
  2  3  1  0  0  0
  2 26  1  0  0  0
  3  4  2  0  0  0
  3 27  1  0  0  0
  4  5  1  0  0  0
  4  7  1  0  0  0
  5  6  2  0  0  0
  5 10  1  0  0  0
  6 28  1  0  0  0
  7  8  2  0  0  0
  8  9  1  0  0  0
  8 11  1  0  0  0
  9 10  2  0  0  0
  9 29  1  0  0  0
 10 17  1  0  0  0
 11 12  2  0  0  0
 11 16  1  0  0  0
 12 13  1  0  0  0
 12 30  1  0  0  0
 13 14  2  0  0  0
 13 31  1  0  0  0
 14 15  1  0  0  0
 14 32  1  0  0  0
 15 16  2  0  0  0
 15 33  1  0  0  0
 16 34  1  0  0  0
 17 18  1  0  0  0
 17 35  1  0  0  0
 17 36  1  0  0  0
 18 19  1  0  0  0
 18 37  1  0  0  0
 18 38  1  0  0  0
 19 20  1  0  0  0
 19 24  1  0  0  0
 19 39  1  0  0  0
 20 21  1  0  0  0
 20 40  1  0  0  0
 20 41  1  0  0  0
 21 22  1  0  0  0
 21 42  1  0  0  0
 22 23  1  0  0  0
 22 43  1  0  0  0
 22 44  1  0  0  0
 23 24  1  0  0  0
 23 45  1  0  0  0
 23 46  1  0  0  0
 24 47  1  0  0  0
 24 48  1  0  0  0
M  END
>  <Name>
PK9084

>  <Family>
F

>  <IC50_uM>
0.380000

>  <set>
1

$$$$
2-37
  Cerius2 12180215283D 1   1.00000                          
 Structure written by MMmdl.
 23 24  0  0  0  0  0  0  0  0999 V2000
   -3.4041   -0.5701   -0.8531 C   0  0  0  0  0  0
   -3.2647   -1.9498   -0.9475 C   0  0  0  0  0  0
   -1.9917   -2.5270   -0.8969 C   0  0  0  0  0  0
   -0.8451   -1.7560   -0.7533 C   0  0  0  0  0  0
   -0.9924   -0.3541   -0.6577 C   0  0  0  0  0  0
   -2.2713    0.2279   -0.7084 C   0  0  0  0  0  0
    0.3611   -2.3544   -0.7094 N   0  0  0  0  0  0
    1.4595   -1.5623   -0.5679 C   0  0  0  0  0  0
    1.4177   -0.1803   -0.4659 C   0  0  0  0  0  0
    0.1635    0.4292   -0.5124 C   0  0  0  0  0  0
    2.6908    0.5626   -0.3152 C   0  0  0  0  0  0
    3.7905    0.0289   -0.2767 O   0  0  0  0  0  0
    2.4583    1.8966   -0.2280 O   0  0  0  0  0  0
    3.6351    2.6990   -0.0797 C   0  0  0  0  0  0
   -4.3922   -0.1152   -0.8919 H   0  0  0  0  0  0
   -4.1436   -2.5819   -1.0608 H   0  0  0  0  0  0
   -1.8994   -3.6091   -0.9723 H   0  0  0  0  0  0
   -2.3920    1.3081   -0.6353 H   0  0  0  0  0  0
    2.4052   -2.1005   -0.5388 H   0  0  0  0  0  0
    0.0734    1.5108   -0.4370 H   0  0  0  0  0  0
    4.2892    2.5796   -0.9488 H   0  0  0  0  0  0
    4.1618    2.4358    0.8427 H   0  0  0  0  0  0
    3.3250    3.7457   -0.0176 H   0  0  0  0  0  0
  1  2  2  0  0  0
  1  6  1  0  0  0
  1 15  1  0  0  0
  2  3  1  0  0  0
  2 16  1  0  0  0
  3  4  2  0  0  0
  3 17  1  0  0  0
  4  5  1  0  0  0
  4  7  1  0  0  0
  5  6  2  0  0  0
  5 10  1  0  0  0
  6 18  1  0  0  0
  7  8  2  0  0  0
  8  9  1  0  0  0
  8 19  1  0  0  0
  9 10  2  0  0  0
  9 11  1  0  0  0
 10 20  1  0  0  0
 11 12  2  0  0  0
 11 13  1  0  0  0
 13 14  1  0  0  0
 14 21  1  0  0  0
 14 22  1  0  0  0
 14 23  1  0  0  0
M  END
>  <Name>
2-37

>  <Family>
F

>  <IC50_uM>
>100

>  <set>
1

$$$$
2-38
  Cerius2 12180215283D 1   1.00000                          
 Structure written by MMmdl.
 20 21  0  0  0  0  0  0  0  0999 V2000
   -3.1819    0.7121    0.0077 C   0  0  0  0  0  0
   -3.1933   -0.6660    0.1876 C   0  0  0  0  0  0
   -1.9868   -1.3648    0.2994 C   0  0  0  0  0  0
   -0.7591   -0.7179    0.2358 C   0  0  0  0  0  0
   -0.7535    0.6835    0.0527 C   0  0  0  0  0  0
   -1.9653    1.3874   -0.0599 C   0  0  0  0  0  0
    0.3785   -1.4313    0.3483 N   0  0  0  0  0  0
    1.5602   -0.7584    0.2805 C   0  0  0  0  0  0
    1.6670    0.6119    0.1032 C   0  0  0  0  0  0
    0.4844    1.3417   -0.0123 C   0  0  0  0  0  0
    3.0120    1.2228    0.0462 C   0  0  0  0  0  0
    4.0688    0.6213    0.1424 O   0  0  0  0  0  0
    2.9602    2.5568   -0.1285 O   0  0  0  0  0  0
   -4.1178    1.2611   -0.0799 H   0  0  0  0  0  0
   -4.1388   -1.2028    0.2417 H   0  0  0  0  0  0
   -2.0129   -2.4440    0.4400 H   0  0  0  0  0  0
   -1.9676    2.4676   -0.2011 H   0  0  0  0  0  0
    2.4460   -1.3834    0.3772 H   0  0  0  0  0  0
    0.5182    2.4200   -0.1527 H   0  0  0  0  0  0
    3.8965    2.8708   -0.1535 H   0  0  0  0  0  0
  1  2  2  0  0  0
  1  6  1  0  0  0
  1 14  1  0  0  0
  2  3  1  0  0  0
  2 15  1  0  0  0
  3  4  2  0  0  0
  3 16  1  0  0  0
  4  5  1  0  0  0
  4  7  1  0  0  0
  5  6  2  0  0  0
  5 10  1  0  0  0
  6 17  1  0  0  0
  7  8  2  0  0  0
  8  9  1  0  0  0
  8 18  1  0  0  0
  9 10  2  0  0  0
  9 11  1  0  0  0
 10 19  1  0  0  0
 11 12  2  0  0  0
 11 13  1  0  0  0
 13 20  1  0  0  0
M  END
>  <Name>
2-38

>  <Family>
F

>  <IC50_uM>
>100

>  <set>
1

$$$$
2-39
  Cerius2 12180215283D 1   1.00000                          
 Structure written by MMmdl.
 19 20  0  0  0  0  0  0  0  0999 V2000
   -3.0739    0.7211    0.0506 C   0  0  0  0  0  0
   -3.0680   -0.6684    0.0871 C   0  0  0  0  0  0
   -1.8529   -1.3602    0.1236 C   0  0  0  0  0  0
   -0.6330   -0.6957    0.1246 C   0  0  0  0  0  0
   -0.6454    0.7182    0.0873 C   0  0  0  0  0  0
   -1.8659    1.4150    0.0506 C   0  0  0  0  0  0
    0.5136   -1.4044    0.1606 N   0  0  0  0  0  0
    1.6867   -0.7156    0.1603 C   0  0  0  0  0  0
    1.7671    0.6654    0.1252 C   0  0  0  0  0  0
    0.5832    1.3950    0.0881 C   0  0  0  0  0  0
    3.0688    1.3530    0.1269 C   0  0  0  0  0  0
    4.1344    0.7414    0.1591 O   0  0  0  0  0  0
   -4.0167    1.2645    0.0221 H   0  0  0  0  0  0
   -4.0068   -1.2194    0.0875 H   0  0  0  0  0  0
   -1.8658   -2.4484    0.1520 H   0  0  0  0  0  0
   -1.8818    2.5039    0.0218 H   0  0  0  0  0  0
    2.5827   -1.3315    0.1900 H   0  0  0  0  0  0
    0.6108    2.4823    0.0600 H   0  0  0  0  0  0
    3.0404    2.4557    0.0975 H   0  0  0  0  0  0
  1  2  2  0  0  0
  1  6  1  0  0  0
  1 13  1  0  0  0
  2  3  1  0  0  0
  2 14  1  0  0  0
  3  4  2  0  0  0
  3 15  1  0  0  0
  4  5  1  0  0  0
  4  7  1  0  0  0
  5  6  2  0  0  0
  5 10  1  0  0  0
  6 16  1  0  0  0
  7  8  2  0  0  0
  8  9  1  0  0  0
  8 17  1  0  0  0
  9 10  2  0  0  0
  9 11  1  0  0  0
 10 18  1  0  0  0
 11 12  2  0  0  0
 11 19  1  0  0  0
M  END
>  <Name>
2-39

>  <Family>
F

>  <IC50_uM>
>100

>  <set>
1

$$$$
2-31a
  Cerius2 12180215283D 1   1.00000                          
 Structure written by MMmdl.
 23 24  0  0  0  0  0  0  0  0999 V2000
   -3.4588   -0.6102   -1.0408 C   0  0  0  0  0  0
   -3.3065   -1.9823   -1.2241 C   0  0  0  0  0  0
   -2.0314   -2.5486   -1.2193 C   0  0  0  0  0  0
   -0.8952   -1.7421   -1.0304 C   0  0  0  0  0  0
   -1.0459   -0.3536   -0.8447 C   0  0  0  0  0  0
   -2.3370    0.2001   -0.8522 C   0  0  0  0  0  0
    0.4027   -2.2562   -1.0170 C   0  0  0  0  0  0
    1.5215   -1.5113   -0.8381 N   0  0  0  0  0  0
    1.3477   -0.1706   -0.6605 C   0  0  0  0  0  0
    0.0956    0.4380   -0.6575 C   0  0  0  0  0  0
    2.6162    0.6120   -0.4664 C   0  0  0  0  0  0
    3.7369    0.1162   -0.4638 O   0  0  0  0  0  0
    2.3513    1.9355   -0.2953 O   0  0  0  0  0  0
    3.5086    2.7564   -0.1032 C   0  0  0  0  0  0
   -4.4537   -0.1678   -1.0445 H   0  0  0  0  0  0
   -4.1817   -2.6130   -1.3710 H   0  0  0  0  0  0
   -1.9286   -3.6235   -1.3640 H   0  0  0  0  0  0
   -2.4806    1.2711   -0.7108 H   0  0  0  0  0  0
    0.5809   -3.3215   -1.1554 H   0  0  0  0  0  0
   -0.0029    1.5097   -0.5130 H   0  0  0  0  0  0
    4.1600    2.7075   -0.9811 H   0  0  0  0  0  0
    4.0474    2.4504    0.7989 H   0  0  0  0  0  0
    3.1731    3.7891    0.0248 H   0  0  0  0  0  0
  1  2  2  0  0  0
  1  6  1  0  0  0
  1 15  1  0  0  0
  2  3  1  0  0  0
  2 16  1  0  0  0
  3  4  2  0  0  0
  3 17  1  0  0  0
  4  5  1  0  0  0
  4  7  1  0  0  0
  5  6  2  0  0  0
  5 10  1  0  0  0
  6 18  1  0  0  0
  7  8  2  0  0  0
  7 19  1  0  0  0
  8  9  1  0  0  0
  9 10  2  0  0  0
  9 11  1  0  0  0
 10 20  1  0  0  0
 11 12  2  0  0  0
 11 13  1  0  0  0
 13 14  1  0  0  0
 14 21  1  0  0  0
 14 22  1  0  0  0
 14 23  1  0  0  0
M  END
>  <Name>
2-31a

>  <Family>
G.1

>  <IC50_uM>
13.200000

>  <set>
2

$$$$
2-31b
  Cerius2 12180215283D 1   1.00000                          
 Structure written by MMmdl.
 17 18  0  0  0  0  0  0  0  0999 V2000
   -2.4421    0.6967    0.0062 C   0  0  0  0  0  0
   -2.4439   -0.6962    0.0120 C   0  0  0  0  0  0
   -1.2361   -1.3950    0.0134 C   0  0  0  0  0  0
   -0.0123   -0.7015    0.0091 C   0  0  0  0  0  0
   -0.0083    0.7079    0.0033 C   0  0  0  0  0  0
   -1.2330    1.3959    0.0019 C   0  0  0  0  0  0
    1.2273   -1.3474    0.0103 C   0  0  0  0  0  0
    2.4266   -0.7103    0.0063 N   0  0  0  0  0  0
    2.3903    0.6420    0.0007 C   0  0  0  0  0  0
    1.2186    1.3823   -0.0009 C   0  0  0  0  0  0
   -3.3845    1.2422    0.0051 H   0  0  0  0  0  0
   -3.3872   -1.2399    0.0153 H   0  0  0  0  0  0
   -1.2537   -2.4842    0.0179 H   0  0  0  0  0  0
   -1.2545    2.4853   -0.0026 H   0  0  0  0  0  0
    1.2876   -2.4347    0.0147 H   0  0  0  0  0  0
    3.3572    1.1412   -0.0024 H   0  0  0  0  0  0
    1.2699    2.4676   -0.0055 H   0  0  0  0  0  0
  1  2  2  0  0  0
  1  6  1  0  0  0
  1 11  1  0  0  0
  2  3  1  0  0  0
  2 12  1  0  0  0
  3  4  2  0  0  0
  3 13  1  0  0  0
  4  5  1  0  0  0
  4  7  1  0  0  0
  5  6  2  0  0  0
  5 10  1  0  0  0
  6 14  1  0  0  0
  7  8  2  0  0  0
  7 15  1  0  0  0
  8  9  1  0  0  0
  9 10  2  0  0  0
  9 16  1  0  0  0
 10 17  1  0  0  0
M  END
>  <Name>
2-31b

>  <Family>
G.1

>  <IC50_uM>
>100

>  <set>
2

$$$$
3-3b
  Cerius2 12180215283D 1   1.00000                          
 Structure written by MMmdl.
 31 32  0  0  0  0  0  0  0  0999 V2000
   -2.5021   -0.1014    0.1038 C   0  0  0  0  0  0
   -2.5454   -1.4985    0.1108 C   0  0  0  0  0  0
   -1.3626   -2.2397    0.1416 C   0  0  0  0  0  0
   -0.1182   -1.5874    0.1087 C   0  0  0  0  0  0
   -0.0659   -0.1804    0.0515 C   0  0  0  0  0  0
   -1.2671    0.5501    0.0434 C   0  0  0  0  0  0
    1.0955   -2.2771    0.1233 C   0  0  0  0  0  0
    2.3145   -1.6852    0.0850 N   0  0  0  0  0  0
    2.3382   -0.3234    0.0275 C   0  0  0  0  0  0
    1.1833    0.4541    0.0094 C   0  0  0  0  0  0
    3.7121    0.2850   -0.0140 C   0  0  0  0  0  0
    4.7522   -0.3627    0.0039 O   0  0  0  0  0  0
    3.6423    1.6424   -0.0741 O   0  0  0  0  0  0
    4.9111    2.3045   -0.1176 C   0  0  0  0  0  0
   -3.6070    0.7082    0.0913 O   0  0  0  0  0  0
   -4.5092    0.4424    1.1697 C   0  0  0  0  0  0
   -3.7287   -2.1887    0.1243 O   0  0  0  0  0  0
   -4.2072   -2.3621   -1.2151 C   0  0  0  0  0  0
   -1.4126   -3.3266    0.1771 H   0  0  0  0  0  0
   -1.2447    1.6386    0.0055 H   0  0  0  0  0  0
    1.1178   -3.3651    0.1664 H   0  0  0  0  0  0
    1.2426    1.5376   -0.0349 H   0  0  0  0  0  0
    4.7290    3.3816   -0.1644 H   0  0  0  0  0  0
    5.4663    2.0054   -1.0120 H   0  0  0  0  0  0
    5.4855    2.0868    0.7881 H   0  0  0  0  0  0
   -5.0333    1.3751    1.3994 H   0  0  0  0  0  0
   -3.9917    0.1153    2.0789 H   0  0  0  0  0  0
   -5.2586   -0.2930    0.8639 H   0  0  0  0  0  0
   -3.4904   -2.9285   -1.8198 H   0  0  0  0  0  0
   -4.4275   -1.3980   -1.6858 H   0  0  0  0  0  0
   -5.1375   -2.9355   -1.1643 H   0  0  0  0  0  0
  1  2  2  0  0  0
  1  6  1  0  0  0
  1 15  1  0  0  0
  2  3  1  0  0  0
  2 17  1  0  0  0
  3  4  2  0  0  0
  3 19  1  0  0  0
  4  5  1  0  0  0
  4  7  1  0  0  0
  5  6  2  0  0  0
  5 10  1  0  0  0
  6 20  1  0  0  0
  7  8  2  0  0  0
  7 21  1  0  0  0
  8  9  1  0  0  0
  9 10  2  0  0  0
  9 11  1  0  0  0
 10 22  1  0  0  0
 11 12  2  0  0  0
 11 13  1  0  0  0
 13 14  1  0  0  0
 14 23  1  0  0  0
 14 24  1  0  0  0
 14 25  1  0  0  0
 15 16  1  0  0  0
 16 26  1  0  0  0
 16 27  1  0  0  0
 16 28  1  0  0  0
 17 18  1  0  0  0
 18 29  1  0  0  0
 18 30  1  0  0  0
 18 31  1  0  0  0
M  END
>  <Name>
3-3b

>  <Family>
G.1

>  <IC50_uM>
10.000000

>  <set>
2

$$$$
2-35
  Cerius2 12180215283D 1   1.00000                          
 Structure written by MMmdl.
 23 24  0  0  0  0  0  0  0  0999 V2000
   -2.3466    0.6976    0.0657 C   0  0  0  0  0  0
   -2.3468   -0.6940   -0.0291 C   0  0  0  0  0  0
   -1.1434   -1.3957   -0.0819 C   0  0  0  0  0  0
    0.0779   -0.7033   -0.0466 C   0  0  0  0  0  0
    0.0741    0.7009    0.0694 C   0  0  0  0  0  0
   -1.1431    1.3980    0.1127 C   0  0  0  0  0  0
    1.3774   -1.4788   -0.0642 C   0  0  0  0  0  0
    2.5472   -0.6695   -0.4459 N   0  0  0  0  0  0
    2.5815    0.5547    0.3696 C   0  0  0  0  0  0
    1.3786    1.4623    0.0864 C   0  0  0  0  0  0
   -3.5373    1.3696    0.1121 O   0  0  0  0  0  0
   -3.5382   -1.3654   -0.0687 O   0  0  0  0  0  0
   -1.1419   -2.4821   -0.1502 H   0  0  0  0  0  0
   -1.1378    2.4841    0.1824 H   0  0  0  0  0  0
    1.2989   -2.3084   -0.7763 H   0  0  0  0  0  0
    1.5443   -1.9149    0.9282 H   0  0  0  0  0  0
    2.4178   -0.3927   -1.4260 H   0  0  0  0  0  0
    3.5057    1.1020    0.1532 H   0  0  0  0  0  0
    2.6197    0.2878    1.4336 H   0  0  0  0  0  0
    1.3408    2.2509    0.8470 H   0  0  0  0  0  0
    1.5052    1.9418   -0.8924 H   0  0  0  0  0  0
   -3.3499    2.3296    0.1780 H   0  0  0  0  0  0
   -3.3526   -2.3256   -0.1362 H   0  0  0  0  0  0
  1  2  2  0  0  0
  1  6  1  0  0  0
  1 11  1  0  0  0
  2  3  1  0  0  0
  2 12  1  0  0  0
  3  4  2  0  0  0
  3 13  1  0  0  0
  4  5  1  0  0  0
  4  7  1  0  0  0
  5  6  2  0  0  0
  5 10  1  0  0  0
  6 14  1  0  0  0
  7  8  1  0  0  0
  7 15  1  0  0  0
  7 16  1  0  0  0
  8  9  1  0  0  0
  8 17  1  0  0  0
  9 10  1  0  0  0
  9 18  1  0  0  0
  9 19  1  0  0  0
 10 20  1  0  0  0
 10 21  1  0  0  0
 11 22  1  0  0  0
 12 23  1  0  0  0
M  END
>  <Name>
2-35

>  <Family>
G.2

>  <IC50_uM>
>100

>  <set>
2

$$$$
2-36
  Cerius2 12180215283D 1   1.00000                          
 Structure written by MMmdl.
 29 30  0  0  0  0  0  0  0  0999 V2000
   -1.5211    0.6962    0.0851 C   0  0  0  0  0  0
   -1.5215   -0.6936   -0.0549 C   0  0  0  0  0  0
   -0.3165   -1.3952   -0.0910 C   0  0  0  0  0  0
    0.9046   -0.7044   -0.0471 C   0  0  0  0  0  0
    0.9010    0.7000    0.0692 C   0  0  0  0  0  0
   -0.3159    1.3959    0.1180 C   0  0  0  0  0  0
    2.2034   -1.4804   -0.0600 C   0  0  0  0  0  0
    3.3735   -0.6723   -0.4430 N   0  0  0  0  0  0
    3.4078    0.5541    0.3693 C   0  0  0  0  0  0
    2.2050    1.4614    0.0842 C   0  0  0  0  0  0
   -2.6883    1.4126    0.1280 O   0  0  0  0  0  0
   -3.2052    1.4257    1.4635 C   0  0  0  0  0  0
   -2.6892   -1.4096   -0.0930 O   0  0  0  0  0  0
   -3.2137   -1.4198   -1.4256 C   0  0  0  0  0  0
   -0.3283   -2.4814   -0.1619 H   0  0  0  0  0  0
   -0.3235    2.4820    0.1904 H   0  0  0  0  0  0
    2.1258   -2.3125   -0.7694 H   0  0  0  0  0  0
    2.3687   -1.9132    0.9341 H   0  0  0  0  0  0
    3.2448   -0.3980   -1.4238 H   0  0  0  0  0  0
    4.3321    1.1007    0.1516 H   0  0  0  0  0  0
    3.4461    0.2898    1.4340 H   0  0  0  0  0  0
    2.1674    2.2517    0.8430 H   0  0  0  0  0  0
    2.3315    1.9387   -0.8957 H   0  0  0  0  0  0
   -4.0939    2.0638    1.4699 H   0  0  0  0  0  0
   -2.4781    1.8486    2.1656 H   0  0  0  0  0  0
   -3.5061    0.4224    1.7827 H   0  0  0  0  0  0
   -4.1046   -2.0548   -1.4275 H   0  0  0  0  0  0
   -2.4917   -1.8448   -2.1318 H   0  0  0  0  0  0
   -3.5128   -0.4153   -1.7427 H   0  0  0  0  0  0
  1  2  2  0  0  0
  1  6  1  0  0  0
  1 11  1  0  0  0
  2  3  1  0  0  0
  2 13  1  0  0  0
  3  4  2  0  0  0
  3 15  1  0  0  0
  4  5  1  0  0  0
  4  7  1  0  0  0
  5  6  2  0  0  0
  5 10  1  0  0  0
  6 16  1  0  0  0
  7  8  1  0  0  0
  7 17  1  0  0  0
  7 18  1  0  0  0
  8  9  1  0  0  0
  8 19  1  0  0  0
  9 10  1  0  0  0
  9 20  1  0  0  0
  9 21  1  0  0  0
 10 22  1  0  0  0
 10 23  1  0  0  0
 11 12  1  0  0  0
 12 24  1  0  0  0
 12 25  1  0  0  0
 12 26  1  0  0  0
 13 14  1  0  0  0
 14 27  1  0  0  0
 14 28  1  0  0  0
 14 29  1  0  0  0
M  END
>  <Name>
2-36

>  <Family>
G.2

>  <IC50_uM>
>100

>  <set>
1

$$$$
2-29
  Cerius2 12180215283D 1   1.00000                          
 Structure written by MMmdl.
 24 25  0  0  0  0  0  0  0  0999 V2000
   -3.5484    0.7048   -0.0206 C   0  0  0  0  0  0
   -3.5578   -0.6881   -0.0301 C   0  0  0  0  0  0
   -2.3546   -1.3947   -0.0202 C   0  0  0  0  0  0
   -1.1281   -0.7143   -0.0070 C   0  0  0  0  0  0
   -1.1233    0.6921    0.0231 C   0  0  0  0  0  0
   -2.3364    1.3941    0.0033 C   0  0  0  0  0  0
    0.1629   -1.4997    0.0434 C   0  0  0  0  0  0
    1.3444   -0.7266   -0.3666 N   0  0  0  0  0  0
    1.3814    0.5545    0.3931 C   0  0  0  0  0  0
    0.1856    1.4463    0.0171 C   0  0  0  0  0  0
    2.6967    1.2990    0.1236 C   0  0  0  0  0  0
    2.8219    2.4771   -0.1873 O   0  0  0  0  0  0
    3.7921    0.5217    0.3073 O   0  0  0  0  0  0
   -4.4874    1.2556   -0.0319 H   0  0  0  0  0  0
   -4.5043   -1.2259   -0.0446 H   0  0  0  0  0  0
   -2.3783   -2.4842   -0.0226 H   0  0  0  0  0  0
   -2.3424    2.4836    0.0067 H   0  0  0  0  0  0
    0.0872   -2.3701   -0.6186 H   0  0  0  0  0  0
    0.3098   -1.8775    1.0626 H   0  0  0  0  0  0
    1.2356   -0.4991   -1.3603 H   0  0  0  0  0  0
    1.3632    0.3429    1.4710 H   0  0  0  0  0  0
    0.1283    2.2848    0.7227 H   0  0  0  0  0  0
    0.3255    1.8700   -0.9863 H   0  0  0  0  0  0
    4.5664    1.1022    0.1142 H   0  0  0  0  0  0
  1  2  2  0  0  0
  1  6  1  0  0  0
  1 14  1  0  0  0
  2  3  1  0  0  0
  2 15  1  0  0  0
  3  4  2  0  0  0
  3 16  1  0  0  0
  4  5  1  0  0  0
  4  7  1  0  0  0
  5  6  2  0  0  0
  5 10  1  0  0  0
  6 17  1  0  0  0
  7  8  1  0  0  0
  7 18  1  0  0  0
  7 19  1  0  0  0
  8  9  1  0  0  0
  8 20  1  0  0  0
  9 10  1  0  0  0
  9 11  1  0  0  0
  9 21  1  0  0  0
 10 22  1  0  0  0
 10 23  1  0  0  0
 11 12  2  0  0  0
 11 13  1  0  0  0
 13 24  1  0  0  0
M  END
>  <Name>
2-29

>  <Family>
G.2

>  <IC50_uM>
>100

>  <set>
1

$$$$
2-30
  Cerius2 12180215283D 1   1.00000                          
 Structure written by MMmdl.
 27 28  0  0  0  0  0  0  0  0999 V2000
   -3.7344    0.3332    0.5687 C   0  0  0  0  0  0
   -3.7219   -1.0555    0.4646 C   0  0  0  0  0  0
   -2.5076   -1.7420    0.4287 C   0  0  0  0  0  0
   -1.2915   -1.0451    0.4894 C   0  0  0  0  0  0
   -1.3088    0.3556    0.6142 C   0  0  0  0  0  0
   -2.5333    1.0379    0.6411 C   0  0  0  0  0  0
    0.0098   -1.8143    0.4914 C   0  0  0  0  0  0
    1.1803   -1.0068    0.1201 N   0  0  0  0  0  0
    1.2031    0.2385    0.9370 C   0  0  0  0  0  0
   -0.0148    1.1320    0.6612 C   0  0  0  0  0  0
    2.4750    1.0498    0.6624 C   0  0  0  0  0  0
    3.0959    1.6670    1.5251 O   0  0  0  0  0  0
    2.8024    1.0432   -0.6650 O   0  0  0  0  0  0
    3.9722    1.7986   -0.9936 C   0  0  0  0  0  0
   -4.6819    0.8689    0.5935 H   0  0  0  0  0  0
   -4.6597   -1.6060    0.4125 H   0  0  0  0  0  0
   -2.5144   -2.8291    0.3532 H   0  0  0  0  0  0
   -2.5566    2.1244    0.7186 H   0  0  0  0  0  0
   -0.0574   -2.6490   -0.2160 H   0  0  0  0  0  0
    0.1656   -2.2447    1.4881 H   0  0  0  0  0  0
    1.0707   -0.7279   -0.8612 H   0  0  0  0  0  0
    1.2394   -0.0523    1.9954 H   0  0  0  0  0  0
   -0.0767    1.9008    1.4418 H   0  0  0  0  0  0
    0.1013    1.6517   -0.2991 H   0  0  0  0  0  0
    4.1416    1.7087   -2.0700 H   0  0  0  0  0  0
    4.8451    1.3983   -0.4689 H   0  0  0  0  0  0
    3.8232    2.8553   -0.7514 H   0  0  0  0  0  0
  1  2  2  0  0  0
  1  6  1  0  0  0
  1 15  1  0  0  0
  2  3  1  0  0  0
  2 16  1  0  0  0
  3  4  2  0  0  0
  3 17  1  0  0  0
  4  5  1  0  0  0
  4  7  1  0  0  0
  5  6  2  0  0  0
  5 10  1  0  0  0
  6 18  1  0  0  0
  7  8  1  0  0  0
  7 19  1  0  0  0
  7 20  1  0  0  0
  8  9  1  0  0  0
  8 21  1  0  0  0
  9 10  1  0  0  0
  9 11  1  0  0  0
  9 22  1  0  0  0
 10 23  1  0  0  0
 10 24  1  0  0  0
 11 12  2  0  0  0
 11 13  1  0  0  0
 13 14  1  0  0  0
 14 25  1  0  0  0
 14 26  1  0  0  0
 14 27  1  0  0  0
M  END
>  <Name>
2-30

>  <Family>
G.2

>  <IC50_uM>
>100

>  <set>
1

$$$$
3-2b
  Cerius2 12180215283D 1   1.00000                          
 Structure written by MMmdl.
 35 36  0  0  0  0  0  0  0  0999 V2000
   -2.7155   -0.0398    0.0444 C   0  0  0  0  0  0
   -2.7226   -1.4328   -0.0518 C   0  0  0  0  0  0
   -1.5209   -2.1410   -0.0573 C   0  0  0  0  0  0
   -0.2959   -1.4559   -0.0260 C   0  0  0  0  0  0
   -0.2925   -0.0497    0.0462 C   0  0  0  0  0  0
   -1.5065    0.6537    0.0643 C   0  0  0  0  0  0
    0.9962   -2.2397   -0.0046 C   0  0  0  0  0  0
    2.1677   -1.4598   -0.4254 N   0  0  0  0  0  0
    2.2252   -0.1886    0.3491 C   0  0  0  0  0  0
    1.0138    0.7084    0.0508 C   0  0  0  0  0  0
    3.5079    0.5846    0.0038 C   0  0  0  0  0  0
    4.2260    0.3867   -0.9727 O   0  0  0  0  0  0
    3.7384    1.5492    0.9460 O   0  0  0  0  0  0
    4.9124    2.3355    0.7173 C   0  0  0  0  0  0
   -3.8797    0.6825    0.0563 O   0  0  0  0  0  0
   -4.3953    0.7553    1.3903 C   0  0  0  0  0  0
   -3.8940   -2.1432   -0.0743 O   0  0  0  0  0  0
   -4.4085   -2.1956   -1.4097 C   0  0  0  0  0  0
   -1.5384   -3.2290   -0.0945 H   0  0  0  0  0  0
   -1.5092    1.7416    0.1027 H   0  0  0  0  0  0
    0.9121   -3.1031   -0.6748 H   0  0  0  0  0  0
    1.1598   -2.6289    1.0076 H   0  0  0  0  0  0
    2.0463   -1.2181   -1.4147 H   0  0  0  0  0  0
    2.2774   -0.4448    1.4158 H   0  0  0  0  0  0
    0.9657    1.5076    0.8012 H   0  0  0  0  0  0
    1.1307    1.1883   -0.9300 H   0  0  0  0  0  0
    4.9980    3.0602    1.5315 H   0  0  0  0  0  0
    4.8266    2.8810   -0.2274 H   0  0  0  0  0  0
    5.8036    1.7004    0.7209 H   0  0  0  0  0  0
   -5.2874    1.3882    1.3683 H   0  0  0  0  0  0
   -3.6693    1.2146    2.0705 H   0  0  0  0  0  0
   -4.6900   -0.2336    1.7568 H   0  0  0  0  0  0
   -5.3032   -2.8250   -1.3969 H   0  0  0  0  0  0
   -3.6838   -2.6485   -2.0955 H   0  0  0  0  0  0
   -4.6989   -1.2007   -1.7631 H   0  0  0  0  0  0
  1  2  2  0  0  0
  1  6  1  0  0  0
  1 15  1  0  0  0
  2  3  1  0  0  0
  2 17  1  0  0  0
  3  4  2  0  0  0
  3 19  1  0  0  0
  4  5  1  0  0  0
  4  7  1  0  0  0
  5  6  2  0  0  0
  5 10  1  0  0  0
  6 20  1  0  0  0
  7  8  1  0  0  0
  7 21  1  0  0  0
  7 22  1  0  0  0
  8  9  1  0  0  0
  8 23  1  0  0  0
  9 10  1  0  0  0
  9 11  1  0  0  0
  9 24  1  0  0  0
 10 25  1  0  0  0
 10 26  1  0  0  0
 11 12  2  0  0  0
 11 13  1  0  0  0
 13 14  1  0  0  0
 14 27  1  0  0  0
 14 28  1  0  0  0
 14 29  1  0  0  0
 15 16  1  0  0  0
 16 30  1  0  0  0
 16 31  1  0  0  0
 16 32  1  0  0  0
 17 18  1  0  0  0
 18 33  1  0  0  0
 18 34  1  0  0  0
 18 35  1  0  0  0
M  END
>  <Name>
3-2b

>  <Family>
G.2

>  <IC50_uM>
32.000000

>  <set>
2

$$$$
3-2c
  Cerius2 12180215283D 1   1.00000                          
 Structure written by MMmdl.
 26 27  0  0  0  0  0  0  0  0999 V2000
   -2.9836    0.5452    0.0260 C   0  0  0  0  0  0
   -2.9834   -0.8467   -0.0599 C   0  0  0  0  0  0
   -1.7796   -1.5489   -0.0896 C   0  0  0  0  0  0
   -0.5580   -0.8573   -0.0404 C   0  0  0  0  0  0
   -0.5622    0.5465    0.0662 C   0  0  0  0  0  0
   -1.7800    1.2445    0.0868 C   0  0  0  0  0  0
    0.7388   -1.6344   -0.0330 C   0  0  0  0  0  0
    1.9088   -0.8377   -0.4255 N   0  0  0  0  0  0
    1.9549    0.4111    0.3842 C   0  0  0  0  0  0
    0.7412    1.3100    0.1018 C   0  0  0  0  0  0
    3.2365    1.1941    0.0713 C   0  0  0  0  0  0
    4.0063    1.0136   -0.8645 O   0  0  0  0  0  0
    3.4692    2.1745    0.9758 O   0  0  0  0  0  0
   -4.1741    1.2184    0.0502 O   0  0  0  0  0  0
   -4.1744   -1.5177   -0.1133 O   0  0  0  0  0  0
   -1.7780   -2.6358   -0.1507 H   0  0  0  0  0  0
   -1.7754    2.3310    0.1503 H   0  0  0  0  0  0
    0.6629   -2.4794   -0.7271 H   0  0  0  0  0  0
    0.8984   -2.0502    0.9692 H   0  0  0  0  0  0
    1.7908   -0.5682   -1.4079 H   0  0  0  0  0  0
    2.0014    0.1280    1.4442 H   0  0  0  0  0  0
    0.6837    2.0879    0.8736 H   0  0  0  0  0  0
    0.8630    1.8173   -0.8646 H   0  0  0  0  0  0
    4.3101    2.6074    0.6911 H   0  0  0  0  0  0
   -3.9872    2.1786    0.1131 H   0  0  0  0  0  0
   -3.9883   -2.4783   -0.1726 H   0  0  0  0  0  0
  1  2  2  0  0  0
  1  6  1  0  0  0
  1 14  1  0  0  0
  2  3  1  0  0  0
  2 15  1  0  0  0
  3  4  2  0  0  0
  3 16  1  0  0  0
  4  5  1  0  0  0
  4  7  1  0  0  0
  5  6  2  0  0  0
  5 10  1  0  0  0
  6 17  1  0  0  0
  7  8  1  0  0  0
  7 18  1  0  0  0
  7 19  1  0  0  0
  8  9  1  0  0  0
  8 20  1  0  0  0
  9 10  1  0  0  0
  9 11  1  0  0  0
  9 21  1  0  0  0
 10 22  1  0  0  0
 10 23  1  0  0  0
 11 12  2  0  0  0
 11 13  1  0  0  0
 13 24  1  0  0  0
 14 25  1  0  0  0
 15 26  1  0  0  0
M  END
>  <Name>
3-2c

>  <Family>
G.2

>  <IC50_uM>
>50

>  <set>
2

$$$$
2-32
  Cerius2 12180215283D 1   1.00000                          
 Structure written by MMmdl.
 31 32  0  0  0  0  0  0  0  0999 V2000
   -2.8068   -0.0181   -0.1849 C   0  0  0  0  0  0
   -3.2117   -1.1761    0.4662 C   0  0  0  0  0  0
   -2.4568   -1.6990    1.5196 C   0  0  0  0  0  0
   -1.2897   -1.0154    1.8855 C   0  0  0  0  0  0
   -0.8598    0.1490    1.2442 C   0  0  0  0  0  0
   -1.6416    0.6589    0.1839 C   0  0  0  0  0  0
   -0.3750   -1.3002    2.8743 N   0  0  0  0  0  0
    0.6119   -0.3501    2.8844 C   0  0  0  0  0  0
    0.3571    0.5649    1.8794 C   0  0  0  0  0  0
    2.5329    1.4444    0.8665 C   0  0  0  0  0  0
    1.1907    1.7716    1.5526 C   0  0  0  0  0  0
   -3.5907    0.4429   -1.2046 O   0  0  0  0  0  0
    2.4315    0.8598   -0.4927 N   0  0  0  0  0  0
    3.7488    0.3620   -0.9141 C   0  0  0  0  0  0
    1.9543    1.8488   -1.4675 C   0  0  0  0  0  0
   -4.1241   -1.6843    0.1593 H   0  0  0  0  0  0
   -2.7699   -2.6035    2.0351 H   0  0  0  0  0  0
   -1.3352    1.5649   -0.3303 H   0  0  0  0  0  0
   -0.4312   -2.0917    3.5054 H   0  0  0  0  0  0
    1.4159   -0.4117    3.6083 H   0  0  0  0  0  0
    3.0698    0.7384    1.5146 H   0  0  0  0  0  0
    3.1422    2.3577    0.8340 H   0  0  0  0  0  0
    1.4109    2.2918    2.4947 H   0  0  0  0  0  0
    0.6127    2.4848    0.9554 H   0  0  0  0  0  0
   -3.1846    1.2612   -1.5621 H   0  0  0  0  0  0
    3.6849   -0.1011   -1.9051 H   0  0  0  0  0  0
    4.1023   -0.4165   -0.2287 H   0  0  0  0  0  0
    4.4999    1.1594   -0.9511 H   0  0  0  0  0  0
    1.9021    1.4032   -2.4675 H   0  0  0  0  0  0
    2.6064    2.7283   -1.5177 H   0  0  0  0  0  0
    0.9400    2.1824   -1.2315 H   0  0  0  0  0  0
  1  2  2  0  0  0
  1  6  1  0  0  0
  1 12  1  0  0  0
  2  3  1  0  0  0
  2 16  1  0  0  0
  3  4  2  0  0  0
  3 17  1  0  0  0
  4  5  1  0  0  0
  4  7  1  0  0  0
  5  6  2  0  0  0
  5  9  1  0  0  0
  6 18  1  0  0  0
  7  8  1  0  0  0
  7 19  1  0  0  0
  8  9  2  0  0  0
  8 20  1  0  0  0
  9 11  1  0  0  0
 10 11  1  0  0  0
 10 13  1  0  0  0
 10 21  1  0  0  0
 10 22  1  0  0  0
 11 23  1  0  0  0
 11 24  1  0  0  0
 12 25  1  0  0  0
 13 14  1  0  0  0
 13 15  1  0  0  0
 14 26  1  0  0  0
 14 27  1  0  0  0
 14 28  1  0  0  0
 15 29  1  0  0  0
 15 30  1  0  0  0
 15 31  1  0  0  0
M  END
>  <Name>
2-32

>  <Family>
H

>  <IC50_uM>
>100

>  <set>
1

$$$$
2-33
  Cerius2 12180215283D 1   1.00000                          
 Structure written by MMmdl.
 30 31  0  0  0  0  0  0  0  0999 V2000
   -2.7138   -0.2204   -0.6006 C   0  0  0  0  0  0
   -3.1816   -1.2993    0.1447 C   0  0  0  0  0  0
   -2.5588   -1.6706    1.3394 C   0  0  0  0  0  0
   -1.4512   -0.9213    1.7570 C   0  0  0  0  0  0
   -0.9546    0.1645    1.0324 C   0  0  0  0  0  0
   -1.6050    0.5182   -0.1689 C   0  0  0  0  0  0
   -0.6628   -1.0607    2.8770 N   0  0  0  0  0  0
    0.3093   -0.0951    2.8866 C   0  0  0  0  0  0
    0.1712    0.6838    1.7524 C   0  0  0  0  0  0
    2.4190    1.4759    0.8324 C   0  0  0  0  0  0
    1.0291    1.8598    1.3801 C   0  0  0  0  0  0
    2.4195    0.8008   -0.4881 N   0  0  0  0  0  0
    3.7532    0.2444   -0.7571 C   0  0  0  0  0  0
    2.0585    1.7319   -1.5650 C   0  0  0  0  0  0
   -3.2137    0.0538   -1.5285 H   0  0  0  0  0  0
   -4.0457   -1.8624   -0.2065 H   0  0  0  0  0  0
   -2.9259   -2.5122    1.9217 H   0  0  0  0  0  0
   -1.2536    1.3587   -0.7626 H   0  0  0  0  0  0
   -0.7902   -1.7692    3.5909 H   0  0  0  0  0  0
    1.0195   -0.0492    3.7037 H   0  0  0  0  0  0
    2.8911    0.8121    1.5694 H   0  0  0  0  0  0
    3.0417    2.3796    0.7877 H   0  0  0  0  0  0
    1.1784    2.4655    2.2843 H   0  0  0  0  0  0
    0.4980    2.5120    0.6787 H   0  0  0  0  0  0
    3.7631   -0.2813   -1.7185 H   0  0  0  0  0  0
    4.0210   -0.4957    0.0052 H   0  0  0  0  0  0
    4.5283    1.0191   -0.7769 H   0  0  0  0  0  0
    2.0744    1.2184   -2.5332 H   0  0  0  0  0  0
    2.7423    2.5867   -1.6190 H   0  0  0  0  0  0
    1.0404    2.1108   -1.4396 H   0  0  0  0  0  0
  1  2  2  0  0  0
  1  6  1  0  0  0
  1 15  1  0  0  0
  2  3  1  0  0  0
  2 16  1  0  0  0
  3  4  2  0  0  0
  3 17  1  0  0  0
  4  5  1  0  0  0
  4  7  1  0  0  0
  5  6  2  0  0  0
  5  9  1  0  0  0
  6 18  1  0  0  0
  7  8  1  0  0  0
  7 19  1  0  0  0
  8  9  2  0  0  0
  8 20  1  0  0  0
  9 11  1  0  0  0
 10 11  1  0  0  0
 10 12  1  0  0  0
 10 21  1  0  0  0
 10 22  1  0  0  0
 11 23  1  0  0  0
 11 24  1  0  0  0
 12 13  1  0  0  0
 12 14  1  0  0  0
 13 25  1  0  0  0
 13 26  1  0  0  0
 13 27  1  0  0  0
 14 28  1  0  0  0
 14 29  1  0  0  0
 14 30  1  0  0  0
M  END
>  <Name>
2-33

>  <Family>
H

>  <IC50_uM>
>100

>  <set>
2

$$$$
2-34
  Cerius2 12180215283D 1   1.00000                          
 Structure written by MMmdl.
 36 37  0  0  0  0  0  0  0  0999 V2000
   -3.5452   -0.6725   -0.2913 C   0  0  0  0  0  0
   -3.8708   -1.7610    0.5133 C   0  0  0  0  0  0
   -3.0235   -2.1684    1.5471 C   0  0  0  0  0  0
   -1.8392   -1.4456    1.7420 C   0  0  0  0  0  0
   -1.4804   -0.3521    0.9510 C   0  0  0  0  0  0
   -2.3573    0.0392   -0.0830 C   0  0  0  0  0  0
   -0.8421   -1.6214    2.6747 N   0  0  0  0  0  0
    0.1299   -0.6710    2.5031 C   0  0  0  0  0  0
   -0.2204    0.1324    1.4337 C   0  0  0  0  0  0
    1.8877    0.9104    0.2074 C   0  0  0  0  0  0
    0.5678    1.3026    0.9149 C   0  0  0  0  0  0
    1.7252    0.1412   -1.0725 N   0  0  0  0  0  0
    3.0095   -0.3814   -1.5515 C   0  0  0  0  0  0
    1.0338    0.8507   -2.1488 C   0  0  0  0  0  0
    2.7182    2.2018    0.0392 C   0  0  0  0  0  0
    2.3898    3.1167   -0.7204 O   0  0  0  0  0  0
    3.8643    2.3385    0.7562 O   0  0  0  0  0  0
    4.2176    1.4515    1.8319 C   0  0  0  0  0  0
   -4.2203   -0.3690   -1.0902 H   0  0  0  0  0  0
   -4.7998   -2.3023    0.3372 H   0  0  0  0  0  0
   -3.2801   -3.0167    2.1771 H   0  0  0  0  0  0
   -2.1223    0.8893   -0.7190 H   0  0  0  0  0  0
   -0.8356   -2.3426    3.3873 H   0  0  0  0  0  0
    0.9911   -0.6542    3.1605 H   0  0  0  0  0  0
    2.4028    0.2214    0.8806 H   0  0  0  0  0  0
    0.8040    1.9459    1.7749 H   0  0  0  0  0  0
   -0.0572    1.9252    0.2647 H   0  0  0  0  0  0
    2.8565   -1.0405   -2.4135 H   0  0  0  0  0  0
    3.4932   -0.9883   -0.7783 H   0  0  0  0  0  0
    3.6990    0.4162   -1.8489 H   0  0  0  0  0  0
    0.8101    0.1542   -2.9654 H   0  0  0  0  0  0
    1.6272    1.6677   -2.5708 H   0  0  0  0  0  0
    0.0705    1.2506   -1.8242 H   0  0  0  0  0  0
    5.0554    1.9025    2.3707 H   0  0  0  0  0  0
    4.5449    0.4892    1.4295 H   0  0  0  0  0  0
    3.3847    1.3382    2.5314 H   0  0  0  0  0  0
  1  2  2  0  0  0
  1  6  1  0  0  0
  1 19  1  0  0  0
  2  3  1  0  0  0
  2 20  1  0  0  0
  3  4  2  0  0  0
  3 21  1  0  0  0
  4  5  1  0  0  0
  4  7  1  0  0  0
  5  6  2  0  0  0
  5  9  1  0  0  0
  6 22  1  0  0  0
  7  8  1  0  0  0
  7 23  1  0  0  0
  8  9  2  0  0  0
  8 24  1  0  0  0
  9 11  1  0  0  0
 10 11  1  0  0  0
 10 12  1  0  0  0
 10 15  1  0  0  0
 10 25  1  0  0  0
 11 26  1  0  0  0
 11 27  1  0  0  0
 12 13  1  0  0  0
 12 14  1  0  0  0
 13 28  1  0  0  0
 13 29  1  0  0  0
 13 30  1  0  0  0
 14 31  1  0  0  0
 14 32  1  0  0  0
 14 33  1  0  0  0
 15 16  2  0  0  0
 15 17  1  0  0  0
 17 18  1  0  0  0
 18 34  1  0  0  0
 18 35  1  0  0  0
 18 36  1  0  0  0
M  END
>  <Name>
2-34

>  <Family>
H

>  <IC50_uM>
>100

>  <set>
2

$$$$
4-GBLD_137
  Cerius2 12180215283D 1   1.00000                          
 Structure written by MMmdl.
 42 45  0  0  0  0  0  0  0  0999 V2000
   -0.9953    2.1980    3.5715 C   0  0  0  0  0  0
   -1.3637    1.2167    2.5238 C   0  0  0  0  0  0
   -0.5828    0.3329    1.9904 N   0  0  0  0  0  0
    0.6946    0.3676    2.4912 N   0  0  0  0  0  0
    1.1791    1.2436    3.4541 C   0  0  0  0  0  0
    0.2721    2.1779    4.0015 C   0  0  0  0  0  0
    2.4573    1.0525    3.6953 N   0  0  0  0  0  0
    2.8290    0.0078    2.8757 C   0  0  0  0  0  0
    1.7574   -0.4495    2.1161 C   0  0  0  0  0  0
   -3.0423    1.3374    2.0346 S   0  0  0  0  0  0
   -3.0483    0.2489    0.5799 C   0  0  0  0  0  0
   -4.4065    0.2302   -0.0825 C   0  0  0  0  0  0
   -5.3761   -0.7072    0.3043 C   0  0  0  0  0  0
   -6.6345   -0.7159   -0.3006 C   0  0  0  0  0  0
   -6.9387    0.2137   -1.2934 C   0  0  0  0  0  0
   -5.9864    1.1542   -1.6816 C   0  0  0  0  0  0
   -4.7273    1.1650   -1.0785 C   0  0  0  0  0  0
    4.1978   -0.4959    2.8490 C   0  0  0  0  0  0
    4.4983   -1.8281    2.5318 C   0  0  0  0  0  0
    5.8221   -2.2795    2.5242 C   0  0  0  0  0  0
    6.8611   -1.4067    2.8390 C   0  0  0  0  0  0
    6.5785   -0.0831    3.1665 C   0  0  0  0  0  0
    5.2553    0.3681    3.1745 C   0  0  0  0  0  0
    1.7304   -1.4066    1.1736 O   0  0  0  0  0  0
    0.4944   -2.0677    0.9205 C   0  0  0  0  0  0
   -1.7260    2.8951    3.9604 H   0  0  0  0  0  0
    0.6164    2.8680    4.7637 H   0  0  0  0  0  0
   -2.7754   -0.7700    0.8772 H   0  0  0  0  0  0
   -2.2966    0.5892   -0.1416 H   0  0  0  0  0  0
   -5.1560   -1.4375    1.0824 H   0  0  0  0  0  0
   -7.3795   -1.4484    0.0054 H   0  0  0  0  0  0
   -7.9207    0.2071   -1.7634 H   0  0  0  0  0  0
   -6.2252    1.8828   -2.4545 H   0  0  0  0  0  0
   -3.9957    1.9099   -1.3901 H   0  0  0  0  0  0
    3.7101   -2.5409    2.2979 H   0  0  0  0  0  0
    6.0399   -3.3169    2.2752 H   0  0  0  0  0  0
    7.8909   -1.7596    2.8328 H   0  0  0  0  0  0
    7.3874    0.6009    3.4175 H   0  0  0  0  0  0
    5.0566    1.4075    3.4345 H   0  0  0  0  0  0
    0.7199   -3.0008    0.3949 H   0  0  0  0  0  0
   -0.1357   -1.4646    0.2609 H   0  0  0  0  0  0
   -0.0263   -2.3268    1.8486 H   0  0  0  0  0  0
  1  2  1  0  0  0
  1  6  2  0  0  0
  1 26  1  0  0  0
  2  3  2  0  0  0
  2 10  1  0  0  0
  3  4  1  0  0  0
  4  5  1  0  0  0
  4  9  1  0  0  0
  5  6  1  0  0  0
  5  7  2  0  0  0
  6 27  1  0  0  0
  7  8  1  0  0  0
  8  9  2  0  0  0
  8 18  1  0  0  0
  9 24  1  0  0  0
 10 11  1  0  0  0
 11 12  1  0  0  0
 11 28  1  0  0  0
 11 29  1  0  0  0
 12 13  2  0  0  0
 12 17  1  0  0  0
 13 14  1  0  0  0
 13 30  1  0  0  0
 14 15  2  0  0  0
 14 31  1  0  0  0
 15 16  1  0  0  0
 15 32  1  0  0  0
 16 17  2  0  0  0
 16 33  1  0  0  0
 17 34  1  0  0  0
 18 19  2  0  0  0
 18 23  1  0  0  0
 19 20  1  0  0  0
 19 35  1  0  0  0
 20 21  2  0  0  0
 20 36  1  0  0  0
 21 22  1  0  0  0
 21 37  1  0  0  0
 22 23  2  0  0  0
 22 38  1  0  0  0
 23 39  1  0  0  0
 24 25  1  0  0  0
 25 40  1  0  0  0
 25 41  1  0  0  0
 25 42  1  0  0  0
M  END
>  <Name>
4-GBLD_137

>  <Family>
I

>  <IC50_uM>
0.025000

>  <set>
1

$$$$
4-GBLD_150
  Cerius2 12180215283D 1   1.00000                          
 Structure written by MMmdl.
 42 45  0  0  0  0  0  0  0  0999 V2000
   -1.0855    2.0068    3.7012 C   0  0  0  0  0  0
   -1.4444    0.9924    2.6828 C   0  0  0  0  0  0
   -0.6481    0.1262    2.1439 N   0  0  0  0  0  0
    0.6417    0.2232    2.6013 N   0  0  0  0  0  0
    1.1225    1.1413    3.5259 C   0  0  0  0  0  0
    0.1953    2.0468    4.0884 C   0  0  0  0  0  0
    2.4170    1.0143    3.7178 N   0  0  0  0  0  0
    2.8036   -0.0298    2.9040 C   0  0  0  0  0  0
    1.7235   -0.5573    2.2052 C   0  0  0  0  0  0
   -3.1381    1.0303    2.2376 S   0  0  0  0  0  0
   -3.0476    0.2820    0.5823 C   0  0  0  0  0  0
   -4.3855    0.3312   -0.1186 C   0  0  0  0  0  0
   -5.2544   -0.7704   -0.0003 C   0  0  0  0  0  0
   -6.5049   -0.7691   -0.6211 C   0  0  0  0  0  0
   -6.9109    0.3336   -1.3666 C   0  0  0  0  0  0
   -6.0672    1.4371   -1.4891 C   0  0  0  0  0  0
   -4.8135    1.4400   -0.8679 C   0  0  0  0  0  0
    4.1931   -0.4645    2.8218 C   0  0  0  0  0  0
    4.5459   -1.7902    2.5334 C   0  0  0  0  0  0
    5.8896   -2.1732    2.4702 C   0  0  0  0  0  0
    6.8959   -1.2374    2.6990 C   0  0  0  0  0  0
    6.5612    0.0814    2.9951 C   0  0  0  0  0  0
    5.2184    0.4642    3.0592 C   0  0  0  0  0  0
    1.6980   -1.5387    1.2883 O   0  0  0  0  0  0
    0.4941   -2.2877    1.1456 C   0  0  0  0  0  0
   -3.8312    2.8497   -1.0611 Cl  0  0  0  0  0  0
   -1.8321    2.6796    4.1019 H   0  0  0  0  0  0
    0.5354    2.7649    4.8264 H   0  0  0  0  0  0
   -2.7296   -0.7627    0.6805 H   0  0  0  0  0  0
   -2.2809    0.7791   -0.0215 H   0  0  0  0  0  0
   -4.9583   -1.6428    0.5824 H   0  0  0  0  0  0
   -7.1628   -1.6309   -0.5203 H   0  0  0  0  0  0
   -7.8857    0.3365   -1.8509 H   0  0  0  0  0  0
   -6.3963    2.2954   -2.0715 H   0  0  0  0  0  0
    3.7848   -2.5495    2.3654 H   0  0  0  0  0  0
    6.1490   -3.2065    2.2450 H   0  0  0  0  0  0
    7.9412   -1.5373    2.6500 H   0  0  0  0  0  0
    7.3447    0.8151    3.1776 H   0  0  0  0  0  0
    4.9783    1.5011    3.2926 H   0  0  0  0  0  0
    0.7478   -3.2320    0.6541 H   0  0  0  0  0  0
   -0.2107   -1.7593    0.4974 H   0  0  0  0  0  0
    0.0447   -2.5277    2.1152 H   0  0  0  0  0  0
  1  2  1  0  0  0
  1  6  2  0  0  0
  1 27  1  0  0  0
  2  3  2  0  0  0
  2 10  1  0  0  0
  3  4  1  0  0  0
  4  5  1  0  0  0
  4  9  1  0  0  0
  5  6  1  0  0  0
  5  7  2  0  0  0
  6 28  1  0  0  0
  7  8  1  0  0  0
  8  9  2  0  0  0
  8 18  1  0  0  0
  9 24  1  0  0  0
 10 11  1  0  0  0
 11 12  1  0  0  0
 11 29  1  0  0  0
 11 30  1  0  0  0
 12 13  2  0  0  0
 12 17  1  0  0  0
 13 14  1  0  0  0
 13 31  1  0  0  0
 14 15  2  0  0  0
 14 32  1  0  0  0
 15 16  1  0  0  0
 15 33  1  0  0  0
 16 17  2  0  0  0
 16 34  1  0  0  0
 17 26  1  0  0  0
 18 19  2  0  0  0
 18 23  1  0  0  0
 19 20  1  0  0  0
 19 35  1  0  0  0
 20 21  2  0  0  0
 20 36  1  0  0  0
 21 22  1  0  0  0
 21 37  1  0  0  0
 22 23  2  0  0  0
 22 38  1  0  0  0
 23 39  1  0  0  0
 24 25  1  0  0  0
 25 40  1  0  0  0
 25 41  1  0  0  0
 25 42  1  0  0  0
M  END
>  <Name>
4-GBLD_150

>  <Family>
I

>  <IC50_uM>
0.054000

>  <set>
1

$$$$
4-GBLD_167
  Cerius2 12180215283D 1   1.00000                          
 Structure written by MMmdl.
 43 46  0  0  0  0  0  0  0  0999 V2000
   -1.6442    2.6523    1.9559 C   0  0  0  0  0  0
   -2.0739    1.6922    0.9216 C   0  0  0  0  0  0
   -1.3930    0.7067    0.4331 N   0  0  0  0  0  0
   -0.1464    0.5954    0.9879 N   0  0  0  0  0  0
    0.3974    1.4284    1.9594 C   0  0  0  0  0  0
   -0.4090    2.4854    2.4440 C   0  0  0  0  0  0
    1.6269    1.0820    2.2698 N   0  0  0  0  0  0
    1.9013   -0.0208    1.4886 C   0  0  0  0  0  0
    0.8222   -0.3549    0.6758 C   0  0  0  0  0  0
   -3.3611    2.0220    0.5294 O   0  0  0  0  0  0
   -3.9198    1.1537   -0.4217 C   0  0  0  0  0  0
    3.1959   -0.6909    1.5394 C   0  0  0  0  0  0
    3.3415   -2.0593    1.2703 C   0  0  0  0  0  0
    4.5984   -2.6698    1.3337 C   0  0  0  0  0  0
    5.7233   -1.9215    1.6731 C   0  0  0  0  0  0
    5.5937   -0.5637    1.9542 C   0  0  0  0  0  0
    4.3377    0.0465    1.8904 C   0  0  0  0  0  0
    0.7283   -1.3335   -0.2414 O   0  0  0  0  0  0
   -0.5460   -1.6491   -0.7926 C   0  0  0  0  0  0
   -3.8540    1.5293   -1.7642 C   0  0  0  0  0  0
   -4.4126    0.6954   -2.7282 C   0  0  0  0  0  0
   -5.0379   -0.4908   -2.3417 C   0  0  0  0  0  0
   -5.1161   -0.8484   -0.9891 C   0  0  0  0  0  0
   -4.5614   -0.0234   -0.0094 C   0  0  0  0  0  0
   -4.5869   -0.2603    1.3386 O   0  0  0  0  0  0
   -5.2090   -1.4686    1.7696 C   0  0  0  0  0  0
   -2.3110    3.4387    2.2812 H   0  0  0  0  0  0
   -0.0133    3.1481    3.2059 H   0  0  0  0  0  0
    2.4810   -2.6765    1.0198 H   0  0  0  0  0  0
    4.6962   -3.7331    1.1207 H   0  0  0  0  0  0
    6.7010   -2.3980    1.7228 H   0  0  0  0  0  0
    6.4698    0.0230    2.2246 H   0  0  0  0  0  0
    4.2587    1.1099    2.1141 H   0  0  0  0  0  0
   -0.4322   -2.5631   -1.3839 H   0  0  0  0  0  0
   -0.8832   -0.8618   -1.4733 H   0  0  0  0  0  0
   -1.2823   -1.8552   -0.0090 H   0  0  0  0  0  0
   -3.3663    2.4552   -2.0577 H   0  0  0  0  0  0
   -4.3627    0.9671   -3.7810 H   0  0  0  0  0  0
   -5.4743   -1.1423   -3.0977 H   0  0  0  0  0  0
   -5.6216   -1.7778   -0.7411 H   0  0  0  0  0  0
   -5.1388   -1.5073    2.8609 H   0  0  0  0  0  0
   -4.6867   -2.3441    1.3703 H   0  0  0  0  0  0
   -6.2707   -1.4813    1.5026 H   0  0  0  0  0  0
  1  2  1  0  0  0
  1  6  2  0  0  0
  1 27  1  0  0  0
  2  3  2  0  0  0
  2 10  1  0  0  0
  3  4  1  0  0  0
  4  5  1  0  0  0
  4  9  1  0  0  0
  5  6  1  0  0  0
  5  7  2  0  0  0
  6 28  1  0  0  0
  7  8  1  0  0  0
  8  9  2  0  0  0
  8 12  1  0  0  0
  9 18  1  0  0  0
 10 11  1  0  0  0
 11 20  2  0  0  0
 11 24  1  0  0  0
 12 13  2  0  0  0
 12 17  1  0  0  0
 13 14  1  0  0  0
 13 29  1  0  0  0
 14 15  2  0  0  0
 14 30  1  0  0  0
 15 16  1  0  0  0
 15 31  1  0  0  0
 16 17  2  0  0  0
 16 32  1  0  0  0
 17 33  1  0  0  0
 18 19  1  0  0  0
 19 34  1  0  0  0
 19 35  1  0  0  0
 19 36  1  0  0  0
 20 21  1  0  0  0
 20 37  1  0  0  0
 21 22  2  0  0  0
 21 38  1  0  0  0
 22 23  1  0  0  0
 22 39  1  0  0  0
 23 24  2  0  0  0
 23 40  1  0  0  0
 24 25  1  0  0  0
 25 26  1  0  0  0
 26 41  1  0  0  0
 26 42  1  0  0  0
 26 43  1  0  0  0
M  END
>  <Name>
4-GBLD_167

>  <Family>
I

>  <IC50_uM>
0.070000

>  <set>
2

$$$$
4-GBLD_168
  Cerius2 12180215283D 1   1.00000                          
 Structure written by MMmdl.
 43 46  0  0  0  0  0  0  0  0999 V2000
   -0.8999    2.6878    1.9212 C   0  0  0  0  0  0
   -1.3269    1.7295    0.8859 C   0  0  0  0  0  0
   -0.6578    0.7284    0.4142 N   0  0  0  0  0  0
    0.5857    0.6093    0.9794 N   0  0  0  0  0  0
    1.1236    1.4374    1.9594 C   0  0  0  0  0  0
    0.3247    2.5062    2.4288 C   0  0  0  0  0  0
    2.3420    1.0775    2.2928 N   0  0  0  0  0  0
    2.6228   -0.0224    1.5109 C   0  0  0  0  0  0
    1.5578   -0.3409    0.6723 C   0  0  0  0  0  0
   -2.6065    2.0763    0.4798 O   0  0  0  0  0  0
   -3.1651    1.2741   -0.5249 C   0  0  0  0  0  0
    3.9156   -0.6959    1.5805 C   0  0  0  0  0  0
    4.0727   -2.0549    1.2765 C   0  0  0  0  0  0
    5.3293   -2.6639    1.3576 C   0  0  0  0  0  0
    6.4429   -1.9234    1.7477 C   0  0  0  0  0  0
    6.3018   -0.5754    2.0657 C   0  0  0  0  0  0
    5.0459    0.0325    1.9852 C   0  0  0  0  0  0
    1.4787   -1.3148   -0.2519 O   0  0  0  0  0  0
    0.2567   -1.5160   -0.9531 C   0  0  0  0  0  0
   -2.8242    1.4997   -1.8566 C   0  0  0  0  0  0
   -3.4222    0.7234   -2.8442 C   0  0  0  0  0  0
   -4.3583   -0.2534   -2.4906 C   0  0  0  0  0  0
   -4.7097   -0.4611   -1.1511 C   0  0  0  0  0  0
   -4.1115    0.3151   -0.1592 C   0  0  0  0  0  0
   -5.6428   -1.4414   -0.9501 O   0  0  0  0  0  0
   -6.0331   -1.6888    0.3997 C   0  0  0  0  0  0
   -1.5603    3.4848    2.2333 H   0  0  0  0  0  0
    0.7191    3.1668    3.1923 H   0  0  0  0  0  0
    3.2219   -2.6668    0.9828 H   0  0  0  0  0  0
    5.4354   -3.7204    1.1173 H   0  0  0  0  0  0
    7.4200   -2.3985    1.8088 H   0  0  0  0  0  0
    7.1678    0.0062    2.3770 H   0  0  0  0  0  0
    4.9576    1.0890    2.2380 H   0  0  0  0  0  0
    0.3885   -2.3873   -1.6027 H   0  0  0  0  0  0
    0.0285   -0.6614   -1.5973 H   0  0  0  0  0  0
   -0.5641   -1.7426   -0.2655 H   0  0  0  0  0  0
   -2.1013    2.2656   -2.1238 H   0  0  0  0  0  0
   -3.1658    0.8768   -3.8906 H   0  0  0  0  0  0
   -4.8209   -0.8537   -3.2723 H   0  0  0  0  0  0
   -4.3552    0.2000    0.8919 H   0  0  0  0  0  0
   -6.7679   -2.4996    0.3914 H   0  0  0  0  0  0
   -6.5113   -0.8071    0.8380 H   0  0  0  0  0  0
   -5.1793   -2.0189    1.0007 H   0  0  0  0  0  0
  1  2  1  0  0  0
  1  6  2  0  0  0
  1 27  1  0  0  0
  2  3  2  0  0  0
  2 10  1  0  0  0
  3  4  1  0  0  0
  4  5  1  0  0  0
  4  9  1  0  0  0
  5  6  1  0  0  0
  5  7  2  0  0  0
  6 28  1  0  0  0
  7  8  1  0  0  0
  8  9  2  0  0  0
  8 12  1  0  0  0
  9 18  1  0  0  0
 10 11  1  0  0  0
 11 20  2  0  0  0
 11 24  1  0  0  0
 12 13  2  0  0  0
 12 17  1  0  0  0
 13 14  1  0  0  0
 13 29  1  0  0  0
 14 15  2  0  0  0
 14 30  1  0  0  0
 15 16  1  0  0  0
 15 31  1  0  0  0
 16 17  2  0  0  0
 16 32  1  0  0  0
 17 33  1  0  0  0
 18 19  1  0  0  0
 19 34  1  0  0  0
 19 35  1  0  0  0
 19 36  1  0  0  0
 20 21  1  0  0  0
 20 37  1  0  0  0
 21 22  2  0  0  0
 21 38  1  0  0  0
 22 23  1  0  0  0
 22 39  1  0  0  0
 23 24  2  0  0  0
 23 25  1  0  0  0
 24 40  1  0  0  0
 25 26  1  0  0  0
 26 41  1  0  0  0
 26 42  1  0  0  0
 26 43  1  0  0  0
M  END
>  <Name>
4-GBLD_168

>  <Family>
I

>  <IC50_uM>
0.463000

>  <set>
1

$$$$
4-GBLD_177
  Cerius2 12180215283D 1   1.00000                          
 Structure written by MMmdl.
 45 48  0  0  0  0  0  0  0  0999 V2000
   -0.5452    2.0385    3.6968 C   0  0  0  0  0  0
   -0.9038    1.0075    2.6956 C   0  0  0  0  0  0
   -0.1069    0.1332    2.1702 N   0  0  0  0  0  0
    1.1824    0.2344    2.6288 N   0  0  0  0  0  0
    1.6607    1.1645    3.5424 C   0  0  0  0  0  0
    0.7348    2.0830    4.0851 C   0  0  0  0  0  0
    2.9526    1.0339    3.7473 N   0  0  0  0  0  0
    3.3415   -0.0238    2.9523 C   0  0  0  0  0  0
    2.2647   -0.5554    2.2504 C   0  0  0  0  0  0
    4.7313   -0.4625    2.8924 C   0  0  0  0  0  0
    5.0889   -1.7848    2.5951 C   0  0  0  0  0  0
    6.4335   -2.1689    2.5544 C   0  0  0  0  0  0
    7.4362   -1.2372    2.8148 C   0  0  0  0  0  0
    7.0967    0.0779    3.1209 C   0  0  0  0  0  0
    5.7533    0.4614    3.1629 C   0  0  0  0  0  0
    2.2452   -1.5516    1.3486 O   0  0  0  0  0  0
    1.0280   -2.2681    1.1641 C   0  0  0  0  0  0
   -2.5983    1.0382    2.2530 S   0  0  0  0  0  0
   -2.5144    0.2519    0.6166 C   0  0  0  0  0  0
   -3.8644    0.2546   -0.0609 C   0  0  0  0  0  0
   -4.7426   -0.8262    0.0973 C   0  0  0  0  0  0
   -5.9943   -0.8212   -0.5230 C   0  0  0  0  0  0
   -6.3896    0.2617   -1.3163 C   0  0  0  0  0  0
   -5.5250    1.3528   -1.4565 C   0  0  0  0  0  0
   -4.2724    1.3481   -0.8372 C   0  0  0  0  0  0
   -7.7460    0.2774   -1.9588 C   0  0  0  0  0  0
   -1.2911    2.7201    4.0846 H   0  0  0  0  0  0
    1.0746    2.8141    4.8100 H   0  0  0  0  0  0
    4.3310   -2.5417    2.4024 H   0  0  0  0  0  0
    6.6959   -3.1996    2.3213 H   0  0  0  0  0  0
    8.4822   -1.5372    2.7817 H   0  0  0  0  0  0
    7.8766    0.8085    3.3281 H   0  0  0  0  0  0
    5.5099    1.4957    3.4050 H   0  0  0  0  0  0
    1.2719   -3.2159    0.6744 H   0  0  0  0  0  0
    0.3573   -1.7188    0.4975 H   0  0  0  0  0  0
    0.5439   -2.5022    2.1181 H   0  0  0  0  0  0
   -2.1618   -0.7808    0.7187 H   0  0  0  0  0  0
   -1.7890    0.7808   -0.0126 H   0  0  0  0  0  0
   -4.4568   -1.6818    0.7087 H   0  0  0  0  0  0
   -6.6599   -1.6725   -0.3822 H   0  0  0  0  0  0
   -5.8200    2.2170   -2.0511 H   0  0  0  0  0  0
   -3.6155    2.2083   -0.9629 H   0  0  0  0  0  0
   -7.7351    0.8679   -2.8811 H   0  0  0  0  0  0
   -8.4808    0.7079   -1.2716 H   0  0  0  0  0  0
   -8.0616   -0.7367   -2.2262 H   0  0  0  0  0  0
  1  2  1  0  0  0
  1  6  2  0  0  0
  1 27  1  0  0  0
  2  3  2  0  0  0
  2 18  1  0  0  0
  3  4  1  0  0  0
  4  5  1  0  0  0
  4  9  1  0  0  0
  5  6  1  0  0  0
  5  7  2  0  0  0
  6 28  1  0  0  0
  7  8  1  0  0  0
  8  9  2  0  0  0
  8 10  1  0  0  0
  9 16  1  0  0  0
 10 11  2  0  0  0
 10 15  1  0  0  0
 11 12  1  0  0  0
 11 29  1  0  0  0
 12 13  2  0  0  0
 12 30  1  0  0  0
 13 14  1  0  0  0
 13 31  1  0  0  0
 14 15  2  0  0  0
 14 32  1  0  0  0
 15 33  1  0  0  0
 16 17  1  0  0  0
 17 34  1  0  0  0
 17 35  1  0  0  0
 17 36  1  0  0  0
 18 19  1  0  0  0
 19 20  1  0  0  0
 19 37  1  0  0  0
 19 38  1  0  0  0
 20 21  2  0  0  0
 20 25  1  0  0  0
 21 22  1  0  0  0
 21 39  1  0  0  0
 22 23  2  0  0  0
 22 40  1  0  0  0
 23 24  1  0  0  0
 23 26  1  0  0  0
 24 25  2  0  0  0
 24 41  1  0  0  0
 25 42  1  0  0  0
 26 43  1  0  0  0
 26 44  1  0  0  0
 26 45  1  0  0  0
M  END
>  <Name>
4-GBLD_177

>  <Family>
I

>  <IC50_uM>
0.074000

>  <set>
0

$$$$
4-GBLD_190
  Cerius2 12180215283D 1   1.00000                          
 Structure written by MMmdl.
 46 49  0  0  0  0  0  0  0  0999 V2000
   -0.7422    1.7109    3.7518 C   0  0  0  0  0  0
   -1.0603    0.6000    2.8287 C   0  0  0  0  0  0
   -0.2210   -0.2199    2.2839 N   0  0  0  0  0  0
    1.0810    0.0225    2.6445 N   0  0  0  0  0  0
    1.5229    1.0299    3.4949 C   0  0  0  0  0  0
    0.5500    1.8908    4.0512 C   0  0  0  0  0  0
    2.8283    1.0092    3.6477 N   0  0  0  0  0  0
    3.2622   -0.0580    2.8925 C   0  0  0  0  0  0
    2.2086   -0.6870    2.2363 C   0  0  0  0  0  0
    4.6723   -0.4205    2.8154 C   0  0  0  0  0  0
    5.0902   -1.7498    2.6600 C   0  0  0  0  0  0
    6.4507   -2.0677    2.6036 C   0  0  0  0  0  0
    7.4089   -1.0616    2.7075 C   0  0  0  0  0  0
    7.0089    0.2624    2.8726 C   0  0  0  0  0  0
    5.6489    0.5805    2.9294 C   0  0  0  0  0  0
    2.2552   -1.7281    1.3870 O   0  0  0  0  0  0
    1.0454   -2.2565    0.8593 C   0  0  0  0  0  0
   -2.7698    0.4149    2.5050 S   0  0  0  0  0  0
   -2.7027    0.3510    0.6882 C   0  0  0  0  0  0
   -4.0872    0.2502    0.0909 C   0  0  0  0  0  0
   -4.5910   -0.9898   -0.3251 C   0  0  0  0  0  0
   -5.8705   -1.0825   -0.8702 C   0  0  0  0  0  0
   -6.6587    0.0616   -0.9967 C   0  0  0  0  0  0
   -6.1788    1.3052   -0.5796 C   0  0  0  0  0  0
   -4.8936    1.3965   -0.0396 C   0  0  0  0  0  0
   -7.0523    2.3438   -0.7527 O   0  0  0  0  0  0
   -6.6339    3.6219   -0.2764 C   0  0  0  0  0  0
   -1.5239    2.3404    4.1546 H   0  0  0  0  0  0
    0.8646    2.6850    4.7192 H   0  0  0  0  0  0
    4.3667   -2.5604    2.5940 H   0  0  0  0  0  0
    6.7606   -3.1044    2.4824 H   0  0  0  0  0  0
    8.4679   -1.3107    2.6647 H   0  0  0  0  0  0
    7.7555    1.0502    2.9586 H   0  0  0  0  0  0
    5.3562    1.6218    3.0600 H   0  0  0  0  0  0
    1.3071   -3.1100    0.2261 H   0  0  0  0  0  0
    0.5390   -1.5232    0.2244 H   0  0  0  0  0  0
    0.3939   -2.6290    1.6558 H   0  0  0  0  0  0
   -2.1004   -0.5071    0.3696 H   0  0  0  0  0  0
   -2.2064    1.2512    0.3074 H   0  0  0  0  0  0
   -3.9880   -1.8922   -0.2285 H   0  0  0  0  0  0
   -6.2558   -2.0473   -1.1960 H   0  0  0  0  0  0
   -7.6577   -0.0233   -1.4211 H   0  0  0  0  0  0
   -4.4888    2.3498    0.2924 H   0  0  0  0  0  0
   -7.4483    4.3287   -0.4623 H   0  0  0  0  0  0
   -5.7531    3.9753   -0.8223 H   0  0  0  0  0  0
   -6.4511    3.5993    0.8032 H   0  0  0  0  0  0
  1  2  1  0  0  0
  1  6  2  0  0  0
  1 28  1  0  0  0
  2  3  2  0  0  0
  2 18  1  0  0  0
  3  4  1  0  0  0
  4  5  1  0  0  0
  4  9  1  0  0  0
  5  6  1  0  0  0
  5  7  2  0  0  0
  6 29  1  0  0  0
  7  8  1  0  0  0
  8  9  2  0  0  0
  8 10  1  0  0  0
  9 16  1  0  0  0
 10 11  2  0  0  0
 10 15  1  0  0  0
 11 12  1  0  0  0
 11 30  1  0  0  0
 12 13  2  0  0  0
 12 31  1  0  0  0
 13 14  1  0  0  0
 13 32  1  0  0  0
 14 15  2  0  0  0
 14 33  1  0  0  0
 15 34  1  0  0  0
 16 17  1  0  0  0
 17 35  1  0  0  0
 17 36  1  0  0  0
 17 37  1  0  0  0
 18 19  1  0  0  0
 19 20  1  0  0  0
 19 38  1  0  0  0
 19 39  1  0  0  0
 20 21  2  0  0  0
 20 25  1  0  0  0
 21 22  1  0  0  0
 21 40  1  0  0  0
 22 23  2  0  0  0
 22 41  1  0  0  0
 23 24  1  0  0  0
 23 42  1  0  0  0
 24 25  2  0  0  0
 24 26  1  0  0  0
 25 43  1  0  0  0
 26 27  1  0  0  0
 27 44  1  0  0  0
 27 45  1  0  0  0
 27 46  1  0  0  0
M  END
>  <Name>
4-GBLD_190

>  <Family>
I

>  <IC50_uM>
0.011000

>  <set>
0

$$$$
4-GBLD_214
  Cerius2 12180215283D 1   1.00000                          
 Structure written by MMmdl.
 46 49  0  0  0  0  0  0  0  0999 V2000
   -1.2636    1.4612    3.9642 C   0  0  0  0  0  0
   -1.5583    0.4338    2.9412 C   0  0  0  0  0  0
   -0.7036   -0.3262    2.3373 N   0  0  0  0  0  0
    0.5914   -0.1046    2.7348 N   0  0  0  0  0  0
    1.0117    0.8272    3.6771 C   0  0  0  0  0  0
    0.0226    1.6249    4.2968 C   0  0  0  0  0  0
    2.3160    0.8101    3.8393 N   0  0  0  0  0  0
    2.7722   -0.1749    2.9906 C   0  0  0  0  0  0
    1.7321   -0.7592    2.2741 C   0  0  0  0  0  0
    4.1907   -0.4955    2.8815 C   0  0  0  0  0  0
    4.6431   -1.7930    2.6019 C   0  0  0  0  0  0
    6.0118   -2.0663    2.5116 C   0  0  0  0  0  0
    6.9436   -1.0480    2.7039 C   0  0  0  0  0  0
    6.5091    0.2434    2.9914 C   0  0  0  0  0  0
    5.1411    0.5168    3.0838 C   0  0  0  0  0  0
    1.7995   -1.7164    1.3318 O   0  0  0  0  0  0
    0.5968   -2.2444    0.7856 C   0  0  0  0  0  0
   -3.2624    0.2689    2.5794 S   0  0  0  0  0  0
   -3.1624    0.2770    0.7622 C   0  0  0  0  0  0
   -4.5390    0.2920    0.1326 C   0  0  0  0  0  0
   -5.1296   -0.9279   -0.2456 C   0  0  0  0  0  0
   -6.3988   -0.9567   -0.8206 C   0  0  0  0  0  0
   -7.0947    0.2312   -1.0189 C   0  0  0  0  0  0
   -6.5251    1.4502   -0.6443 C   0  0  0  0  0  0
   -5.2510    1.4921   -0.0666 C   0  0  0  0  0  0
   -4.6152    2.6404    0.3285 O   0  0  0  0  0  0
   -5.3451    3.8607    0.2246 C   0  0  0  0  0  0
   -2.0578    2.0460    4.4092 H   0  0  0  0  0  0
    0.3205    2.3595    5.0369 H   0  0  0  0  0  0
    3.9417   -2.6136    2.4625 H   0  0  0  0  0  0
    6.3495   -3.0785    2.2941 H   0  0  0  0  0  0
    8.0092   -1.2617    2.6346 H   0  0  0  0  0  0
    7.2333    1.0413    3.1463 H   0  0  0  0  0  0
    4.8220    1.5338    3.3102 H   0  0  0  0  0  0
    0.8720   -3.0513    0.0992 H   0  0  0  0  0  0
    0.0642   -1.4873    0.2021 H   0  0  0  0  0  0
   -0.0351   -2.6814    1.5647 H   0  0  0  0  0  0
   -2.6183   -0.6139    0.4270 H   0  0  0  0  0  0
   -2.5814    1.1424    0.4224 H   0  0  0  0  0  0
   -4.5977   -1.8674   -0.0948 H   0  0  0  0  0  0
   -6.8434   -1.9058   -1.1147 H   0  0  0  0  0  0
   -8.0858    0.2120   -1.4682 H   0  0  0  0  0  0
   -7.1061    2.3514   -0.8231 H   0  0  0  0  0  0
   -4.7132    4.6602    0.6238 H   0  0  0  0  0  0
   -6.2599    3.8267    0.8257 H   0  0  0  0  0  0
   -5.5650    4.0974   -0.8214 H   0  0  0  0  0  0
  1  2  1  0  0  0
  1  6  2  0  0  0
  1 28  1  0  0  0
  2  3  2  0  0  0
  2 18  1  0  0  0
  3  4  1  0  0  0
  4  5  1  0  0  0
  4  9  1  0  0  0
  5  6  1  0  0  0
  5  7  2  0  0  0
  6 29  1  0  0  0
  7  8  1  0  0  0
  8  9  2  0  0  0
  8 10  1  0  0  0
  9 16  1  0  0  0
 10 11  2  0  0  0
 10 15  1  0  0  0
 11 12  1  0  0  0
 11 30  1  0  0  0
 12 13  2  0  0  0
 12 31  1  0  0  0
 13 14  1  0  0  0
 13 32  1  0  0  0
 14 15  2  0  0  0
 14 33  1  0  0  0
 15 34  1  0  0  0
 16 17  1  0  0  0
 17 35  1  0  0  0
 17 36  1  0  0  0
 17 37  1  0  0  0
 18 19  1  0  0  0
 19 20  1  0  0  0
 19 38  1  0  0  0
 19 39  1  0  0  0
 20 21  2  0  0  0
 20 25  1  0  0  0
 21 22  1  0  0  0
 21 40  1  0  0  0
 22 23  2  0  0  0
 22 41  1  0  0  0
 23 24  1  0  0  0
 23 42  1  0  0  0
 24 25  2  0  0  0
 24 43  1  0  0  0
 25 26  1  0  0  0
 26 27  1  0  0  0
 27 44  1  0  0  0
 27 45  1  0  0  0
 27 46  1  0  0  0
M  END
>  <Name>
4-GBLD_214

>  <Family>
I

>  <IC50_uM>
0.009000

>  <set>
1

$$$$
4-GBLD_219
  Cerius2 12180215283D 1   1.00000                          
 Structure written by MMmdl.
 44 47  0  0  0  0  0  0  0  0999 V2000
   -0.4201    2.0463    3.7506 C   0  0  0  0  0  0
   -0.7874    0.9668    2.8062 C   0  0  0  0  0  0
    0.0064    0.0779    2.3020 N   0  0  0  0  0  0
    1.3048    0.2101    2.7257 N   0  0  0  0  0  0
    1.7865    1.1751    3.6011 C   0  0  0  0  0  0
    0.8657    2.1141    4.1154 C   0  0  0  0  0  0
    3.0780    1.0517    3.8082 N   0  0  0  0  0  0
    3.4659   -0.0298    3.0481 C   0  0  0  0  0  0
    2.3927   -0.5779    2.3519 C   0  0  0  0  0  0
    4.8563   -0.4722    3.0084 C   0  0  0  0  0  0
    5.2105   -1.8097    2.7847 C   0  0  0  0  0  0
    6.5540   -2.1989    2.7697 C   0  0  0  0  0  0
    7.5593   -1.2566    2.9812 C   0  0  0  0  0  0
    7.2225    0.0744    3.2125 C   0  0  0  0  0  0
    5.8804    0.4626    3.2268 C   0  0  0  0  0  0
    2.3897   -1.5939    1.4719 O   0  0  0  0  0  0
    1.1522   -2.2062    1.1303 C   0  0  0  0  0  0
   -2.4923    0.9571    2.4014 S   0  0  0  0  0  0
   -2.4119    0.2349    0.7372 C   0  0  0  0  0  0
   -3.7656    0.2493    0.0631 C   0  0  0  0  0  0
   -4.6051   -0.8748    0.1243 C   0  0  0  0  0  0
   -5.8537   -0.8670   -0.5058 C   0  0  0  0  0  0
   -6.2726    0.2763   -1.1965 C   0  0  0  0  0  0
   -5.4515    1.4094   -1.2569 C   0  0  0  0  0  0
   -4.2041    1.3925   -0.6255 C   0  0  0  0  0  0
   -7.5790    0.2854   -1.8681 N   0  3  0  0  0  0
   -7.9436    1.3303   -2.4403 O   0  0  0  0  0  0
   -8.2672   -0.7522   -1.8390 O   0  5  0  0  0  0
   -1.1625    2.7415    4.1187 H   0  0  0  0  0  0
    1.2148    2.8792    4.8000 H   0  0  0  0  0  0
    4.4501   -2.5737    2.6318 H   0  0  0  0  0  0
    6.8153   -3.2424    2.5953 H   0  0  0  0  0  0
    8.6044   -1.5609    2.9657 H   0  0  0  0  0  0
    8.0034    0.8150    3.3820 H   0  0  0  0  0  0
    5.6384    1.5101    3.4067 H   0  0  0  0  0  0
    1.3775   -3.1114    0.5584 H   0  0  0  0  0  0
    0.5592   -1.5534    0.4829 H   0  0  0  0  0  0
    0.5969   -2.5087    2.0245 H   0  0  0  0  0  0
   -2.0451   -0.7961    0.7989 H   0  0  0  0  0  0
   -1.6974    0.7950    0.1228 H   0  0  0  0  0  0
   -4.2880   -1.7688    0.6619 H   0  0  0  0  0  0
   -6.4785   -1.7555   -0.4489 H   0  0  0  0  0  0
   -5.7613    2.3072   -1.7886 H   0  0  0  0  0  0
   -3.5718    2.2786   -0.6745 H   0  0  0  0  0  0
  1  2  1  0  0  0
  1  6  2  0  0  0
  1 29  1  0  0  0
  2  3  2  0  0  0
  2 18  1  0  0  0
  3  4  1  0  0  0
  4  5  1  0  0  0
  4  9  1  0  0  0
  5  6  1  0  0  0
  5  7  2  0  0  0
  6 30  1  0  0  0
  7  8  1  0  0  0
  8  9  2  0  0  0
  8 10  1  0  0  0
  9 16  1  0  0  0
 10 11  2  0  0  0
 10 15  1  0  0  0
 11 12  1  0  0  0
 11 31  1  0  0  0
 12 13  2  0  0  0
 12 32  1  0  0  0
 13 14  1  0  0  0
 13 33  1  0  0  0
 14 15  2  0  0  0
 14 34  1  0  0  0
 15 35  1  0  0  0
 16 17  1  0  0  0
 17 36  1  0  0  0
 17 37  1  0  0  0
 17 38  1  0  0  0
 18 19  1  0  0  0
 19 20  1  0  0  0
 19 39  1  0  0  0
 19 40  1  0  0  0
 20 21  2  0  0  0
 20 25  1  0  0  0
 21 22  1  0  0  0
 21 41  1  0  0  0
 22 23  2  0  0  0
 22 42  1  0  0  0
 23 24  1  0  0  0
 23 26  1  0  0  0
 24 25  2  0  0  0
 24 43  1  0  0  0
 25 44  1  0  0  0
 26 27  2  0  0  0
 26 28  1  0  0  0
M  CHG  2  26   1  28  -1
M  END
>  <Name>
4-GBLD_219

>  <Family>
I

>  <IC50_uM>
0.024000

>  <set>
2

$$$$
4-GBLD_220
  Cerius2 12180215283D 1   1.00000                          
 Structure written by MMmdl.
 44 47  0  0  0  0  0  0  0  0999 V2000
   -0.5520    2.0073    3.7033 C   0  0  0  0  0  0
   -0.9048    0.9573    2.7205 C   0  0  0  0  0  0
   -0.1012    0.0873    2.1985 N   0  0  0  0  0  0
    1.1905    0.2128    2.6435 N   0  0  0  0  0  0
    1.6651    1.1635    3.5385 C   0  0  0  0  0  0
    0.7313    2.0775    4.0767 C   0  0  0  0  0  0
    2.9601    1.0510    3.7349 N   0  0  0  0  0  0
    3.3530   -0.0184    2.9581 C   0  0  0  0  0  0
    2.2783   -0.5705    2.2693 C   0  0  0  0  0  0
    4.7425   -0.4558    2.9032 C   0  0  0  0  0  0
    5.0956   -1.7935    2.6749 C   0  0  0  0  0  0
    6.4384   -2.1820    2.6435 C   0  0  0  0  0  0
    7.4435   -1.2391    2.8452 C   0  0  0  0  0  0
    7.1090    0.0918    3.0810 C   0  0  0  0  0  0
    5.7668    0.4802    3.1131 C   0  0  0  0  0  0
    2.2643   -1.5793    1.3821 O   0  0  0  0  0  0
    1.0559   -2.3174    1.2235 C   0  0  0  0  0  0
   -2.6032    0.9501    2.2949 S   0  0  0  0  0  0
   -2.4959    0.3003    0.6008 C   0  0  0  0  0  0
   -3.8497    0.2956   -0.0673 C   0  0  0  0  0  0
   -4.6824   -0.8277    0.0157 C   0  0  0  0  0  0
   -5.9412   -0.8249   -0.5952 C   0  0  0  0  0  0
   -6.4051    0.3016   -1.2770 C   0  0  0  0  0  0
   -5.5658    1.4126   -1.3777 C   0  0  0  0  0  0
   -4.3054    1.4183   -0.7698 C   0  0  0  0  0  0
   -7.6214    0.2752   -1.9329 N   0  0  0  0  0  0
   -1.3052    2.6816    4.0894 H   0  0  0  0  0  0
    1.0677    2.8237    4.7877 H   0  0  0  0  0  0
    4.3339   -2.5576    2.5322 H   0  0  0  0  0  0
    6.6975   -3.2244    2.4664 H   0  0  0  0  0  0
    8.4885   -1.5432    2.8231 H   0  0  0  0  0  0
    7.8920    0.8304    3.2428 H   0  0  0  0  0  0
    5.5260    1.5259    3.3016 H   0  0  0  0  0  0
    1.3090   -3.2695    0.7467 H   0  0  0  0  0  0
    0.3698   -1.7898    0.5550 H   0  0  0  0  0  0
    0.5857   -2.5428    2.1866 H   0  0  0  0  0  0
   -2.0960   -0.7199    0.6169 H   0  0  0  0  0  0
   -1.7997    0.9101    0.0132 H   0  0  0  0  0  0
   -4.3558   -1.7173    0.5530 H   0  0  0  0  0  0
   -6.5607   -1.7177   -0.5264 H   0  0  0  0  0  0
   -5.8876    2.2951   -1.9289 H   0  0  0  0  0  0
   -3.6802    2.3061   -0.8539 H   0  0  0  0  0  0
   -8.0162    1.1280   -2.3222 H   0  0  0  0  0  0
   -8.2869   -0.4720   -1.7507 H   0  0  0  0  0  0
  1  2  1  0  0  0
  1  6  2  0  0  0
  1 27  1  0  0  0
  2  3  2  0  0  0
  2 18  1  0  0  0
  3  4  1  0  0  0
  4  5  1  0  0  0
  4  9  1  0  0  0
  5  6  1  0  0  0
  5  7  2  0  0  0
  6 28  1  0  0  0
  7  8  1  0  0  0
  8  9  2  0  0  0
  8 10  1  0  0  0
  9 16  1  0  0  0
 10 11  2  0  0  0
 10 15  1  0  0  0
 11 12  1  0  0  0
 11 29  1  0  0  0
 12 13  2  0  0  0
 12 30  1  0  0  0
 13 14  1  0  0  0
 13 31  1  0  0  0
 14 15  2  0  0  0
 14 32  1  0  0  0
 15 33  1  0  0  0
 16 17  1  0  0  0
 17 34  1  0  0  0
 17 35  1  0  0  0
 17 36  1  0  0  0
 18 19  1  0  0  0
 19 20  1  0  0  0
 19 37  1  0  0  0
 19 38  1  0  0  0
 20 21  2  0  0  0
 20 25  1  0  0  0
 21 22  1  0  0  0
 21 39  1  0  0  0
 22 23  2  0  0  0
 22 40  1  0  0  0
 23 24  1  0  0  0
 23 26  1  0  0  0
 24 25  2  0  0  0
 24 41  1  0  0  0
 25 42  1  0  0  0
 26 43  1  0  0  0
 26 44  1  0  0  0
M  END
>  <Name>
4-GBLD_220

>  <Family>
I

>  <IC50_uM>
0.009000

>  <set>
0

$$$$
4-GBLD_221
  Cerius2 12180215283D 1   1.00000                          
 Structure written by MMmdl.
 46 49  0  0  0  0  0  0  0  0999 V2000
   -0.7726    2.1127    0.5867 C   0  0  0  0  0  0
   -1.1225    0.7453    0.1720 C   0  0  0  0  0  0
   -0.3301   -0.2613    0.0091 N   0  0  0  0  0  0
    0.9790    0.0593    0.2620 N   0  0  0  0  0  0
    1.4617    1.2986    0.6699 C   0  0  0  0  0  0
    0.5232    2.3461    0.8271 C   0  0  0  0  0  0
    2.7639    1.2797    0.8500 N   0  0  0  0  0  0
    3.1509   -0.0142    0.5670 C   0  0  0  0  0  0
    2.0718   -0.7930    0.1662 C   0  0  0  0  0  0
    4.5453   -0.4333    0.6534 C   0  0  0  0  0  0
    4.9153   -1.7574    0.9288 C   0  0  0  0  0  0
    6.2649   -2.1170    1.0091 C   0  0  0  0  0  0
    7.2574   -1.1573    0.8200 C   0  0  0  0  0  0
    6.9044    0.1640    0.5554 C   0  0  0  0  0  0
    5.5566    0.5227    0.4745 C   0  0  0  0  0  0
    2.0393   -2.0849   -0.2013 O   0  0  0  0  0  0
    1.0453   -2.4867   -1.1401 C   0  0  0  0  0  0
   -2.4587    0.6736   -0.0278 O   0  0  0  0  0  0
   -2.9767   -0.6257   -0.3634 C   0  0  0  0  0  0
   -4.4710   -0.5337   -0.5712 C   0  0  0  0  0  0
   -5.0799   -1.2749   -1.5918 C   0  0  0  0  0  0
   -6.4622   -1.2311   -1.7670 C   0  0  0  0  0  0
   -7.2504   -0.4539   -0.9161 C   0  0  0  0  0  0
   -6.6648    0.2803    0.1176 C   0  0  0  0  0  0
   -5.2790    0.2341    0.2889 C   0  0  0  0  0  0
   -7.5436    0.9915    0.8887 O   0  0  0  0  0  0
   -6.9868    1.7548    1.9598 C   0  0  0  0  0  0
   -1.5420    2.8656    0.6884 H   0  0  0  0  0  0
    0.8656    3.3250    1.1445 H   0  0  0  0  0  0
    4.1665   -2.5278    1.0977 H   0  0  0  0  0  0
    6.5398   -3.1484    1.2241 H   0  0  0  0  0  0
    8.3078   -1.4387    0.8830 H   0  0  0  0  0  0
    7.6772    0.9170    0.4106 H   0  0  0  0  0  0
    5.3014    1.5606    0.2641 H   0  0  0  0  0  0
    1.3772   -3.4236   -1.5968 H   0  0  0  0  0  0
    0.9211   -1.7504   -1.9419 H   0  0  0  0  0  0
    0.0989   -2.6876   -0.6313 H   0  0  0  0  0  0
   -2.7793   -1.3266    0.4571 H   0  0  0  0  0  0
   -2.4907   -0.9794   -1.2811 H   0  0  0  0  0  0
   -4.4821   -1.8968   -2.2576 H   0  0  0  0  0  0
   -6.9267   -1.8110   -2.5636 H   0  0  0  0  0  0
   -8.3291   -0.4333   -1.0592 H   0  0  0  0  0  0
   -4.7950    0.7866    1.0914 H   0  0  0  0  0  0
   -7.8095    2.2716    2.4625 H   0  0  0  0  0  0
   -6.2947    2.5164    1.5846 H   0  0  0  0  0  0
   -6.5015    1.1030    2.6945 H   0  0  0  0  0  0
  1  2  1  0  0  0
  1  6  2  0  0  0
  1 28  1  0  0  0
  2  3  2  0  0  0
  2 18  1  0  0  0
  3  4  1  0  0  0
  4  5  1  0  0  0
  4  9  1  0  0  0
  5  6  1  0  0  0
  5  7  2  0  0  0
  6 29  1  0  0  0
  7  8  1  0  0  0
  8  9  2  0  0  0
  8 10  1  0  0  0
  9 16  1  0  0  0
 10 11  2  0  0  0
 10 15  1  0  0  0
 11 12  1  0  0  0
 11 30  1  0  0  0
 12 13  2  0  0  0
 12 31  1  0  0  0
 13 14  1  0  0  0
 13 32  1  0  0  0
 14 15  2  0  0  0
 14 33  1  0  0  0
 15 34  1  0  0  0
 16 17  1  0  0  0
 17 35  1  0  0  0
 17 36  1  0  0  0
 17 37  1  0  0  0
 18 19  1  0  0  0
 19 20  1  0  0  0
 19 38  1  0  0  0
 19 39  1  0  0  0
 20 21  2  0  0  0
 20 25  1  0  0  0
 21 22  1  0  0  0
 21 40  1  0  0  0
 22 23  2  0  0  0
 22 41  1  0  0  0
 23 24  1  0  0  0
 23 42  1  0  0  0
 24 25  2  0  0  0
 24 26  1  0  0  0
 25 43  1  0  0  0
 26 27  1  0  0  0
 27 44  1  0  0  0
 27 45  1  0  0  0
 27 46  1  0  0  0
M  END
>  <Name>
4-GBLD_221

>  <Family>
I

>  <IC50_uM>
0.006400

>  <set>
1

$$$$
4-GBLD_230
  Cerius2 12180215283D 1   1.00000                          
 Structure written by MMmdl.
 44 47  0  0  0  0  0  0  0  0999 V2000
   -1.1713    1.7190    3.7975 C   0  0  0  0  0  0
   -1.5040    0.6205    2.8640 C   0  0  0  0  0  0
   -0.6772   -0.2094    2.3162 N   0  0  0  0  0  0
    0.6274    0.0110    2.6791 N   0  0  0  0  0  0
    1.0844    1.0061    3.5366 C   0  0  0  0  0  0
    0.1235    1.8763    4.0994 C   0  0  0  0  0  0
    2.3893    0.9650    3.6909 N   0  0  0  0  0  0
    2.8072   -0.1084    2.9345 C   0  0  0  0  0  0
    1.7448   -0.7154    2.2704 C   0  0  0  0  0  0
    4.2100   -0.4995    2.8703 C   0  0  0  0  0  0
    4.6024   -1.8397    2.7463 C   0  0  0  0  0  0
    5.9573   -2.1872    2.7126 C   0  0  0  0  0  0
    6.9348   -1.1987    2.8013 C   0  0  0  0  0  0
    6.5601    0.1366    2.9305 C   0  0  0  0  0  0
    5.2058    0.4834    2.9680 C   0  0  0  0  0  0
    1.7759   -1.7585    1.4215 O   0  0  0  0  0  0
    0.5644   -2.2226    0.8383 C   0  0  0  0  0  0
   -3.2145    0.4679    2.5326 S   0  0  0  0  0  0
   -3.1370    0.4548    0.7151 C   0  0  0  0  0  0
   -4.5171    0.4074    0.0967 C   0  0  0  0  0  0
   -5.0430   -0.8530   -0.2556 C   0  0  0  0  0  0
   -6.2968   -0.9663   -0.8525 C   0  0  0  0  0  0
   -7.0402    0.1782   -1.1118 C   0  0  0  0  0  0
   -6.5336    1.4309   -0.7598 C   0  0  0  0  0  0
   -5.2904    1.5636   -0.1246 C   0  0  0  0  0  0
   -4.8157    2.8396    0.1443 N   0  0  0  0  0  0
   -1.9447    2.3563    4.2058 H   0  0  0  0  0  0
    0.4492    2.6599    4.7742 H   0  0  0  0  0  0
    3.8630   -2.6366    2.6907 H   0  0  0  0  0  0
    6.2472   -3.2333    2.6234 H   0  0  0  0  0  0
    7.9885   -1.4710    2.7755 H   0  0  0  0  0  0
    7.3229    0.9104    3.0056 H   0  0  0  0  0  0
    4.9347    1.5336    3.0730 H   0  0  0  0  0  0
    0.8142   -3.0602    0.1790 H   0  0  0  0  0  0
    0.1013   -1.4488    0.2170 H   0  0  0  0  0  0
   -0.1236   -2.6009    1.6019 H   0  0  0  0  0  0
   -2.5594   -0.4164    0.3826 H   0  0  0  0  0  0
   -2.5924    1.3357    0.3577 H   0  0  0  0  0  0
   -4.4649   -1.7585   -0.0724 H   0  0  0  0  0  0
   -6.6866   -1.9461   -1.1224 H   0  0  0  0  0  0
   -8.0157    0.1013   -1.5881 H   0  0  0  0  0  0
   -7.1299    2.3159   -0.9788 H   0  0  0  0  0  0
   -5.4506    3.6327    0.0727 H   0  0  0  0  0  0
   -4.0436    2.9773    0.7890 H   0  0  0  0  0  0
  1  2  1  0  0  0
  1  6  2  0  0  0
  1 27  1  0  0  0
  2  3  2  0  0  0
  2 18  1  0  0  0
  3  4  1  0  0  0
  4  5  1  0  0  0
  4  9  1  0  0  0
  5  6  1  0  0  0
  5  7  2  0  0  0
  6 28  1  0  0  0
  7  8  1  0  0  0
  8  9  2  0  0  0
  8 10  1  0  0  0
  9 16  1  0  0  0
 10 11  2  0  0  0
 10 15  1  0  0  0
 11 12  1  0  0  0
 11 29  1  0  0  0
 12 13  2  0  0  0
 12 30  1  0  0  0
 13 14  1  0  0  0
 13 31  1  0  0  0
 14 15  2  0  0  0
 14 32  1  0  0  0
 15 33  1  0  0  0
 16 17  1  0  0  0
 17 34  1  0  0  0
 17 35  1  0  0  0
 17 36  1  0  0  0
 18 19  1  0  0  0
 19 20  1  0  0  0
 19 37  1  0  0  0
 19 38  1  0  0  0
 20 21  2  0  0  0
 20 25  1  0  0  0
 21 22  1  0  0  0
 21 39  1  0  0  0
 22 23  2  0  0  0
 22 40  1  0  0  0
 23 24  1  0  0  0
 23 41  1  0  0  0
 24 25  2  0  0  0
 24 42  1  0  0  0
 25 26  1  0  0  0
 26 43  1  0  0  0
 26 44  1  0  0  0
M  END
>  <Name>
4-GBLD_230

>  <Family>
I

>  <IC50_uM>
0.049000

>  <set>
1

$$$$
4-GBLD_231
  Cerius2 12180215283D 1   1.00000                          
 Structure written by MMmdl.
 47 50  0  0  0  0  0  0  0  0999 V2000
   -0.3804    2.3009   -0.2479 C   0  0  0  0  0  0
   -0.9640    0.9329   -0.0958 C   0  0  0  0  0  0
   -0.2385   -0.1221    0.1781 N   0  0  0  0  0  0
    1.1045    0.1143    0.3136 N   0  0  0  0  0  0
    1.7399    1.3411    0.2074 C   0  0  0  0  0  0
    0.9381    2.4600   -0.0928 C   0  0  0  0  0  0
    3.0344    1.2491    0.4181 N   0  0  0  0  0  0
    3.2621   -0.0840    0.6841 C   0  0  0  0  0  0
    2.0907   -0.8291    0.5937 C   0  0  0  0  0  0
    4.5991   -0.5893    0.9742 C   0  0  0  0  0  0
    4.8151   -1.7134    1.7835 C   0  0  0  0  0  0
    6.1125   -2.1651    2.0464 C   0  0  0  0  0  0
    7.2092   -1.4960    1.5081 C   0  0  0  0  0  0
    7.0116   -0.3719    0.7102 C   0  0  0  0  0  0
    5.7152    0.0800    0.4481 C   0  0  0  0  0  0
    1.9145   -2.1513    0.7580 O   0  0  0  0  0  0
    0.7480   -2.7575    0.2113 C   0  0  0  0  0  0
   -2.3032    0.7011   -0.2374 N   0  0  0  0  0  0
   -3.3313    1.6637   -0.5553 C   0  0  0  0  0  0
   -4.6747    0.9752   -0.6318 C   0  0  0  0  0  0
   -5.1252    0.4337   -1.8439 C   0  0  0  0  0  0
   -6.3550   -0.2185   -1.9088 C   0  0  0  0  0  0
   -7.1394   -0.3412   -0.7617 C   0  0  0  0  0  0
   -6.7028    0.1812    0.4583 C   0  0  0  0  0  0
   -5.4693    0.8338    0.5207 C   0  0  0  0  0  0
   -7.5634   -0.0125    1.5040 O   0  0  0  0  0  0
   -7.1709    0.5220    2.7672 C   0  0  0  0  0  0
   -1.0274    3.1366   -0.4779 H   0  0  0  0  0  0
    1.4011    3.4354   -0.1924 H   0  0  0  0  0  0
    3.9816   -2.2494    2.2333 H   0  0  0  0  0  0
    6.2648   -3.0398    2.6766 H   0  0  0  0  0  0
    8.2184   -1.8485    1.7138 H   0  0  0  0  0  0
    7.8661    0.1564    0.2909 H   0  0  0  0  0  0
    5.5829    0.9617   -0.1784 H   0  0  0  0  0  0
    0.9068   -3.8403    0.2135 H   0  0  0  0  0  0
    0.5808   -2.4510   -0.8266 H   0  0  0  0  0  0
   -0.1241   -2.5547    0.8397 H   0  0  0  0  0  0
   -2.6086   -0.2615   -0.1185 H   0  0  0  0  0  0
   -3.1157    2.1518   -1.5132 H   0  0  0  0  0  0
   -3.3667    2.4515    0.2065 H   0  0  0  0  0  0
   -4.5169    0.5171   -2.7439 H   0  0  0  0  0  0
   -6.7025   -0.6344   -2.8528 H   0  0  0  0  0  0
   -8.0984   -0.8530   -0.8236 H   0  0  0  0  0  0
   -5.0944    1.2438    1.4556 H   0  0  0  0  0  0
   -7.9645    0.2952    3.4855 H   0  0  0  0  0  0
   -7.0660    1.6108    2.7182 H   0  0  0  0  0  0
   -6.2508    0.0488    3.1254 H   0  0  0  0  0  0
  1  2  1  0  0  0
  1  6  2  0  0  0
  1 28  1  0  0  0
  2  3  2  0  0  0
  2 18  1  0  0  0
  3  4  1  0  0  0
  4  5  1  0  0  0
  4  9  1  0  0  0
  5  6  1  0  0  0
  5  7  2  0  0  0
  6 29  1  0  0  0
  7  8  1  0  0  0
  8  9  2  0  0  0
  8 10  1  0  0  0
  9 16  1  0  0  0
 10 11  2  0  0  0
 10 15  1  0  0  0
 11 12  1  0  0  0
 11 30  1  0  0  0
 12 13  2  0  0  0
 12 31  1  0  0  0
 13 14  1  0  0  0
 13 32  1  0  0  0
 14 15  2  0  0  0
 14 33  1  0  0  0
 15 34  1  0  0  0
 16 17  1  0  0  0
 17 35  1  0  0  0
 17 36  1  0  0  0
 17 37  1  0  0  0
 18 19  1  0  0  0
 18 38  1  0  0  0
 19 20  1  0  0  0
 19 39  1  0  0  0
 19 40  1  0  0  0
 20 21  2  0  0  0
 20 25  1  0  0  0
 21 22  1  0  0  0
 21 41  1  0  0  0
 22 23  2  0  0  0
 22 42  1  0  0  0
 23 24  1  0  0  0
 23 43  1  0  0  0
 24 25  2  0  0  0
 24 26  1  0  0  0
 25 44  1  0  0  0
 26 27  1  0  0  0
 27 45  1  0  0  0
 27 46  1  0  0  0
 27 47  1  0  0  0
M  END
>  <Name>
4-GBLD_231

>  <Family>
I

>  <IC50_uM>
0.002900

>  <set>
1

$$$$
4-GBLD_233
  Cerius2 12180215283D 1   1.00000                          
 Structure written by MMmdl.
 46 49  0  0  0  0  0  0  0  0999 V2000
   -0.8694    1.6005    3.9871 C   0  0  0  0  0  0
   -1.1902    0.6343    2.9119 C   0  0  0  0  0  0
   -0.3510   -0.1093    2.2655 N   0  0  0  0  0  0
    0.9474    0.0666    2.6725 N   0  0  0  0  0  0
    1.3927    0.9466    3.6506 C   0  0  0  0  0  0
    0.4218    1.7268    4.3181 C   0  0  0  0  0  0
    2.6995    0.9065    3.7911 N   0  0  0  0  0  0
    3.1315   -0.0429    2.8896 C   0  0  0  0  0  0
    2.0702   -0.5900    2.1769 C   0  0  0  0  0  0
    4.5435   -0.3776    2.7469 C   0  0  0  0  0  0
    4.9712   -1.6594    2.3654 C   0  0  0  0  0  0
    6.3342   -1.9512    2.2519 C   0  0  0  0  0  0
    7.2729   -0.9647    2.5250 C   0  0  0  0  0  0
    6.8761    0.3079    2.9137 C   0  0  0  0  0  0
    5.5139    0.5997    3.0275 C   0  0  0  0  0  0
    2.0892   -1.4947    1.1839 O   0  0  0  0  0  0
    0.9292   -2.2974    0.9839 C   0  0  0  0  0  0
   -2.9021    0.5237    2.5612 S   0  0  0  0  0  0
   -2.8275    0.2795    0.7607 C   0  0  0  0  0  0
   -4.2137    0.2085    0.1625 C   0  0  0  0  0  0
   -4.8125   -1.0341   -0.0876 C   0  0  0  0  0  0
   -6.0949   -1.1013   -0.6284 C   0  0  0  0  0  0
   -6.7915    0.0723   -0.9166 C   0  0  0  0  0  0
   -6.2173    1.3207   -0.6646 C   0  0  0  0  0  0
   -4.9287    1.3855   -0.1286 C   0  0  0  0  0  0
    8.5781   -1.2461    2.4170 F   0  0  0  0  0  0
   -7.0092    2.3899   -0.9836 O   0  0  0  0  0  0
   -6.5015    3.6839   -0.6630 C   0  0  0  0  0  0
   -1.6499    2.1725    4.4713 H   0  0  0  0  0  0
    0.7369    2.4157    5.0939 H   0  0  0  0  0  0
    4.2550   -2.4537    2.1649 H   0  0  0  0  0  0
    6.6613   -2.9443    1.9569 H   0  0  0  0  0  0
    7.6225    1.0674    3.1288 H   0  0  0  0  0  0
    5.2138    1.6011    3.3349 H   0  0  0  0  0  0
    1.2264   -3.1644    0.3861 H   0  0  0  0  0  0
    0.1760   -1.7488    0.4113 H   0  0  0  0  0  0
    0.5241   -2.6699    1.9308 H   0  0  0  0  0  0
   -2.2851   -0.6451    0.5337 H   0  0  0  0  0  0
   -2.2707    1.1029    0.2982 H   0  0  0  0  0  0
   -4.2808   -1.9581    0.1379 H   0  0  0  0  0  0
   -6.5545   -2.0690   -0.8230 H   0  0  0  0  0  0
   -7.7944    0.0080   -1.3358 H   0  0  0  0  0  0
   -4.4520    2.3408    0.0776 H   0  0  0  0  0  0
   -7.2656    4.4178   -0.9368 H   0  0  0  0  0  0
   -5.6001    3.9066   -1.2431 H   0  0  0  0  0  0
   -6.3172    3.7797    0.4121 H   0  0  0  0  0  0
  1  2  1  0  0  0
  1  6  2  0  0  0
  1 29  1  0  0  0
  2  3  2  0  0  0
  2 18  1  0  0  0
  3  4  1  0  0  0
  4  5  1  0  0  0
  4  9  1  0  0  0
  5  6  1  0  0  0
  5  7  2  0  0  0
  6 30  1  0  0  0
  7  8  1  0  0  0
  8  9  2  0  0  0
  8 10  1  0  0  0
  9 16  1  0  0  0
 10 11  2  0  0  0
 10 15  1  0  0  0
 11 12  1  0  0  0
 11 31  1  0  0  0
 12 13  2  0  0  0
 12 32  1  0  0  0
 13 14  1  0  0  0
 13 26  1  0  0  0
 14 15  2  0  0  0
 14 33  1  0  0  0
 15 34  1  0  0  0
 16 17  1  0  0  0
 17 35  1  0  0  0
 17 36  1  0  0  0
 17 37  1  0  0  0
 18 19  1  0  0  0
 19 20  1  0  0  0
 19 38  1  0  0  0
 19 39  1  0  0  0
 20 21  2  0  0  0
 20 25  1  0  0  0
 21 22  1  0  0  0
 21 40  1  0  0  0
 22 23  2  0  0  0
 22 41  1  0  0  0
 23 24  1  0  0  0
 23 42  1  0  0  0
 24 25  2  0  0  0
 24 27  1  0  0  0
 25 43  1  0  0  0
 27 28  1  0  0  0
 28 44  1  0  0  0
 28 45  1  0  0  0
 28 46  1  0  0  0
M  END
>  <Name>
4-GBLD_233

>  <Family>
I

>  <IC50_uM>
0.011000

>  <set>
2

$$$$
4-GBLD_251
  Cerius2 12180215283D 1   1.00000                          
 Structure written by MMmdl.
 31 33  0  0  0  0  0  0  0  0999 V2000
   -4.1380    1.9578    2.8897 C   0  0  0  0  0  0
   -4.5085    0.5360    2.7611 C   0  0  0  0  0  0
   -3.8380   -0.3961    2.1645 N   0  0  0  0  0  0
   -2.6668    0.0667    1.6193 N   0  0  0  0  0  0
   -2.1815    1.3683    1.6803 C   0  0  0  0  0  0
   -2.9772    2.3323    2.3406 C   0  0  0  0  0  0
   -1.0093    1.4832    1.0958 N   0  0  0  0  0  0
   -0.7014    0.2163    0.6456 C   0  0  0  0  0  0
   -1.7283   -0.6813    0.9152 C   0  0  0  0  0  0
    0.5444   -0.0671   -0.0575 C   0  0  0  0  0  0
    1.1523   -1.3284   -0.0225 C   0  0  0  0  0  0
    2.3525   -1.5638   -0.7033 C   0  0  0  0  0  0
    2.9660   -0.5437   -1.4373 C   0  0  0  0  0  0
    2.3770    0.7240   -1.4563 C   0  0  0  0  0  0
    1.1779    0.9581   -0.7747 C   0  0  0  0  0  0
   -1.8195   -1.9897    0.6263 O   0  0  0  0  0  0
   -3.1171   -2.5251    0.3784 C   0  0  0  0  0  0
   -5.6698    0.1752    3.3246 F   0  0  0  0  0  0
    4.2697   -0.7886   -2.1389 C   0  0  0  0  0  0
   -4.8051    2.6264    3.4134 H   0  0  0  0  0  0
   -2.6342    3.3593    2.3956 H   0  0  0  0  0  0
    0.7143   -2.1466    0.5459 H   0  0  0  0  0  0
    2.8054   -2.5536   -0.6514 H   0  0  0  0  0  0
    2.8458    1.5422   -2.0020 H   0  0  0  0  0  0
    0.7400    1.9552   -0.8118 H   0  0  0  0  0  0
   -2.9905   -3.4489   -0.1946 H   0  0  0  0  0  0
   -3.7333   -1.8438   -0.2182 H   0  0  0  0  0  0
   -3.6091   -2.7864    1.3195 H   0  0  0  0  0  0
    5.1039   -0.5785   -1.4625 H   0  0  0  0  0  0
    4.3622   -0.1510   -3.0244 H   0  0  0  0  0  0
    4.3410   -1.8274   -2.4780 H   0  0  0  0  0  0
  1  2  1  0  0  0
  1  6  2  0  0  0
  1 20  1  0  0  0
  2  3  2  0  0  0
  2 18  1  0  0  0
  3  4  1  0  0  0
  4  5  1  0  0  0
  4  9  1  0  0  0
  5  6  1  0  0  0
  5  7  2  0  0  0
  6 21  1  0  0  0
  7  8  1  0  0  0
  8  9  2  0  0  0
  8 10  1  0  0  0
  9 16  1  0  0  0
 10 11  2  0  0  0
 10 15  1  0  0  0
 11 12  1  0  0  0
 11 22  1  0  0  0
 12 13  2  0  0  0
 12 23  1  0  0  0
 13 14  1  0  0  0
 13 19  1  0  0  0
 14 15  2  0  0  0
 14 24  1  0  0  0
 15 25  1  0  0  0
 16 17  1  0  0  0
 17 26  1  0  0  0
 17 27  1  0  0  0
 17 28  1  0  0  0
 19 29  1  0  0  0
 19 30  1  0  0  0
 19 31  1  0  0  0
M  END
>  <Name>
4-GBLD_251

>  <Family>
I

>  <IC50_uM>
0.030000

>  <set>
1

$$$$
4-GBLD_254
  Cerius2 12180215283D 1   1.00000                          
 Structure written by MMmdl.
 46 49  0  0  0  0  0  0  0  0999 V2000
   -0.3044    2.2762   -0.2142 C   0  0  0  0  0  0
   -0.8770    0.9052   -0.0481 C   0  0  0  0  0  0
   -0.1434   -0.1406    0.2392 N   0  0  0  0  0  0
    1.1969    0.1086    0.3725 N   0  0  0  0  0  0
    1.8225    1.3394    0.2563 C   0  0  0  0  0  0
    1.0123    2.4483   -0.0579 C   0  0  0  0  0  0
    3.1170    1.2598    0.4726 N   0  0  0  0  0  0
    3.3561   -0.0694    0.7487 C   0  0  0  0  0  0
    2.1912   -0.8241    0.6597 C   0  0  0  0  0  0
    4.6937   -0.5606    1.0440 C   0  0  0  0  0  0
    4.9363   -1.7164    1.7823 C   0  0  0  0  0  0
    6.1765   -2.1975    2.0785 N   0  0  0  0  0  0
    7.2299   -1.4848    1.6171 C   0  0  0  0  0  0
    7.0993   -0.3195    0.8828 C   0  0  0  0  0  0
    5.8160    0.1463    0.5983 C   0  0  0  0  0  0
    2.0251   -2.1463    0.8325 O   0  0  0  0  0  0
    0.8777   -2.7680    0.2613 C   0  0  0  0  0  0
   -2.2142    0.6609   -0.1904 N   0  0  0  0  0  0
   -3.2444    1.6071   -0.5488 C   0  0  0  0  0  0
   -4.5835    0.9091   -0.6171 C   0  0  0  0  0  0
   -4.9786    0.2506   -1.7901 C   0  0  0  0  0  0
   -6.2040   -0.4104   -1.8473 C   0  0  0  0  0  0
   -7.0409   -0.4220   -0.7313 C   0  0  0  0  0  0
   -6.6614    0.2209    0.4498 C   0  0  0  0  0  0
   -5.4307    0.8791    0.5057 C   0  0  0  0  0  0
   -7.5708    0.1297    1.4678 O   0  0  0  0  0  0
   -7.2531    0.8167    2.6773 C   0  0  0  0  0  0
   -0.9580    3.1041   -0.4533 H   0  0  0  0  0  0
    1.4673    3.4264   -0.1670 H   0  0  0  0  0  0
    4.1231   -2.3120    2.1902 H   0  0  0  0  0  0
    8.2139   -1.8803    1.8590 H   0  0  0  0  0  0
    7.9773    0.2179    0.5381 H   0  0  0  0  0  0
    5.7005    1.0628    0.0221 H   0  0  0  0  0  0
    1.0529   -3.8484    0.2630 H   0  0  0  0  0  0
    0.7254   -2.4601   -0.7786 H   0  0  0  0  0  0
   -0.0087   -2.5799    0.8739 H   0  0  0  0  0  0
   -2.5130   -0.3017   -0.0567 H   0  0  0  0  0  0
   -3.0237    2.0645   -1.5207 H   0  0  0  0  0  0
   -3.2897    2.4190    0.1865 H   0  0  0  0  0  0
   -4.3287    0.2483   -2.6647 H   0  0  0  0  0  0
   -6.5074   -0.9189   -2.7607 H   0  0  0  0  0  0
   -7.9967   -0.9406   -0.7868 H   0  0  0  0  0  0
   -5.0994    1.3792    1.4128 H   0  0  0  0  0  0
   -8.0878    0.6732    3.3700 H   0  0  0  0  0  0
   -7.1452    1.8924    2.5029 H   0  0  0  0  0  0
   -6.3558    0.3964    3.1430 H   0  0  0  0  0  0
  1  2  1  0  0  0
  1  6  2  0  0  0
  1 28  1  0  0  0
  2  3  2  0  0  0
  2 18  1  0  0  0
  3  4  1  0  0  0
  4  5  1  0  0  0
  4  9  1  0  0  0
  5  6  1  0  0  0
  5  7  2  0  0  0
  6 29  1  0  0  0
  7  8  1  0  0  0
  8  9  2  0  0  0
  8 10  1  0  0  0
  9 16  1  0  0  0
 10 11  2  0  0  0
 10 15  1  0  0  0
 11 12  1  0  0  0
 11 30  1  0  0  0
 12 13  2  0  0  0
 13 14  1  0  0  0
 13 31  1  0  0  0
 14 15  2  0  0  0
 14 32  1  0  0  0
 15 33  1  0  0  0
 16 17  1  0  0  0
 17 34  1  0  0  0
 17 35  1  0  0  0
 17 36  1  0  0  0
 18 19  1  0  0  0
 18 37  1  0  0  0
 19 20  1  0  0  0
 19 38  1  0  0  0
 19 39  1  0  0  0
 20 21  2  0  0  0
 20 25  1  0  0  0
 21 22  1  0  0  0
 21 40  1  0  0  0
 22 23  2  0  0  0
 22 41  1  0  0  0
 23 24  1  0  0  0
 23 42  1  0  0  0
 24 25  2  0  0  0
 24 26  1  0  0  0
 25 43  1  0  0  0
 26 27  1  0  0  0
 27 44  1  0  0  0
 27 45  1  0  0  0
 27 46  1  0  0  0
M  END
>  <Name>
4-GBLD_254

>  <Family>
I

>  <IC50_uM>
0.002100

>  <set>
0

$$$$
4-GBLD_266
  Cerius2 12180215283D 1   1.00000                          
 Structure written by MMmdl.
 46 49  0  0  0  0  0  0  0  0999 V2000
   -0.7408    1.7790    3.7393 C   0  0  0  0  0  0
   -1.0614    0.6571    2.8302 C   0  0  0  0  0  0
   -0.2243   -0.1723    2.2967 N   0  0  0  0  0  0
    1.0779    0.0709    2.6542 N   0  0  0  0  0  0
    1.5227    1.0875    3.4920 C   0  0  0  0  0  0
    0.5519    1.9589    4.0368 C   0  0  0  0  0  0
    2.8282    1.0645    3.6450 N   0  0  0  0  0  0
    3.2594   -0.0122    2.9024 C   0  0  0  0  0  0
    2.2037   -0.6470    2.2551 C   0  0  0  0  0  0
    4.6689   -0.3743    2.8232 C   0  0  0  0  0  0
    5.0867   -1.7007    2.6604 C   0  0  0  0  0  0
    6.4450   -2.0004    2.5976 C   0  0  0  0  0  0
    7.4084   -1.0043    2.6992 C   0  0  0  0  0  0
    7.0078    0.3173    2.8724 C   0  0  0  0  0  0
    5.6459    0.6293    2.9376 C   0  0  0  0  0  0
    2.2474   -1.7013    1.4218 O   0  0  0  0  0  0
    1.0386   -2.2118    0.8735 C   0  0  0  0  0  0
   -2.7714    0.4746    2.5063 S   0  0  0  0  0  0
   -2.7012    0.4089    0.6900 C   0  0  0  0  0  0
   -4.0841    0.3067    0.0892 C   0  0  0  0  0  0
   -4.5809   -0.9323   -0.3380 C   0  0  0  0  0  0
   -5.8606   -1.0278   -0.8820 C   0  0  0  0  0  0
   -6.6553    0.1131   -0.9983 C   0  0  0  0  0  0
   -6.1814    1.3562   -0.5725 C   0  0  0  0  0  0
   -4.8964    1.4498   -0.0328 C   0  0  0  0  0  0
    6.8304   -3.2742    2.4400 F   0  0  0  0  0  0
   -7.0607    2.3914   -0.7368 O   0  0  0  0  0  0
   -6.6389    3.6732   -0.2723 C   0  0  0  0  0  0
   -1.5218    2.4159    4.1331 H   0  0  0  0  0  0
    0.8678    2.7616    4.6939 H   0  0  0  0  0  0
    4.3752   -2.5182    2.5921 H   0  0  0  0  0  0
    8.4627   -1.2608    2.6476 H   0  0  0  0  0  0
    7.7518    1.1073    2.9576 H   0  0  0  0  0  0
    5.3503    1.6695    3.0731 H   0  0  0  0  0  0
    1.2996   -3.0692    0.2457 H   0  0  0  0  0  0
    0.5538   -1.4707    0.2307 H   0  0  0  0  0  0
    0.3689   -2.5749    1.6591 H   0  0  0  0  0  0
   -2.0976   -0.4494    0.3745 H   0  0  0  0  0  0
   -2.2039    1.3083    0.3086 H   0  0  0  0  0  0
   -3.9731   -1.8321   -0.2490 H   0  0  0  0  0  0
   -6.2413   -1.9922   -1.2145 H   0  0  0  0  0  0
   -7.6541    0.0262   -1.4222 H   0  0  0  0  0  0
   -4.4970    2.4022    0.3081 H   0  0  0  0  0  0
   -7.4541    4.3791   -0.4574 H   0  0  0  0  0  0
   -5.7622    4.0226   -0.8270 H   0  0  0  0  0  0
   -6.4483    3.6582    0.8059 H   0  0  0  0  0  0
  1  2  1  0  0  0
  1  6  2  0  0  0
  1 29  1  0  0  0
  2  3  2  0  0  0
  2 18  1  0  0  0
  3  4  1  0  0  0
  4  5  1  0  0  0
  4  9  1  0  0  0
  5  6  1  0  0  0
  5  7  2  0  0  0
  6 30  1  0  0  0
  7  8  1  0  0  0
  8  9  2  0  0  0
  8 10  1  0  0  0
  9 16  1  0  0  0
 10 11  2  0  0  0
 10 15  1  0  0  0
 11 12  1  0  0  0
 11 31  1  0  0  0
 12 13  2  0  0  0
 12 26  1  0  0  0
 13 14  1  0  0  0
 13 32  1  0  0  0
 14 15  2  0  0  0
 14 33  1  0  0  0
 15 34  1  0  0  0
 16 17  1  0  0  0
 17 35  1  0  0  0
 17 36  1  0  0  0
 17 37  1  0  0  0
 18 19  1  0  0  0
 19 20  1  0  0  0
 19 38  1  0  0  0
 19 39  1  0  0  0
 20 21  2  0  0  0
 20 25  1  0  0  0
 21 22  1  0  0  0
 21 40  1  0  0  0
 22 23  2  0  0  0
 22 41  1  0  0  0
 23 24  1  0  0  0
 23 42  1  0  0  0
 24 25  2  0  0  0
 24 27  1  0  0  0
 25 43  1  0  0  0
 27 28  1  0  0  0
 28 44  1  0  0  0
 28 45  1  0  0  0
 28 46  1  0  0  0
M  END
>  <Name>
4-GBLD_266

>  <Family>
I

>  <IC50_uM>
0.010000

>  <set>
0

$$$$
4-GBLD_268
  Cerius2 12180215283D 1   1.00000                          
 Structure written by MMmdl.
 43 46  0  0  0  0  0  0  0  0999 V2000
   -1.1355    3.1253    1.6261 C   0  0  0  0  0  0
   -1.6550    2.0697    0.7354 C   0  0  0  0  0  0
   -1.0552    0.9827    0.3716 N   0  0  0  0  0  0
    0.1953    0.8598    0.9148 N   0  0  0  0  0  0
    0.8171    1.7717    1.7610 C   0  0  0  0  0  0
    0.0957    2.9360    2.1162 C   0  0  0  0  0  0
    2.0287    1.3847    2.0930 N   0  0  0  0  0  0
    2.2090    0.1757    1.4573 C   0  0  0  0  0  0
    1.0929   -0.1844    0.7103 C   0  0  0  0  0  0
   -2.9266    2.4346    0.3245 O   0  0  0  0  0  0
   -3.5945    1.4510   -0.4220 C   0  0  0  0  0  0
    3.4524   -0.5753    1.5770 C   0  0  0  0  0  0
    3.4825   -1.9747    1.5249 C   0  0  0  0  0  0
    4.6929   -2.6496    1.6581 C   0  0  0  0  0  0
    5.8852   -1.9618    1.8483 C   0  0  0  0  0  0
    5.8688   -0.5709    1.9080 C   0  0  0  0  0  0
    4.6585    0.1173    1.7772 C   0  0  0  0  0  0
    0.9160   -1.2604   -0.0757 O   0  0  0  0  0  0
   -0.3970   -1.5845   -0.5187 C   0  0  0  0  0  0
   -3.5241    1.5203   -1.8146 C   0  0  0  0  0  0
   -4.1884    0.5616   -2.5733 C   0  0  0  0  0  0
   -4.9229   -0.4409   -1.9368 C   0  0  0  0  0  0
   -5.0020   -0.4901   -0.5379 C   0  0  0  0  0  0
   -4.3420    0.4641    0.2374 C   0  0  0  0  0  0
    4.7088   -3.9885    1.6065 F   0  0  0  0  0  0
   -4.3536    0.5269    1.6049 O   0  0  0  0  0  0
   -5.1168   -0.4618    2.2928 C   0  0  0  0  0  0
   -1.7406    3.9915    1.8547 H   0  0  0  0  0  0
    0.5526    3.6620    2.7796 H   0  0  0  0  0  0
    2.5769   -2.5602    1.3959 H   0  0  0  0  0  0
    6.8180   -2.5085    1.9534 H   0  0  0  0  0  0
    6.7950   -0.0187    2.0573 H   0  0  0  0  0  0
    4.6638    1.2058    1.8298 H   0  0  0  0  0  0
   -0.3574   -2.5850   -0.9622 H   0  0  0  0  0  0
   -0.7253   -0.8938   -1.3015 H   0  0  0  0  0  0
   -1.1052   -1.6232    0.3147 H   0  0  0  0  0  0
   -2.9493    2.3027   -2.3031 H   0  0  0  0  0  0
   -4.1356    0.5912   -3.6604 H   0  0  0  0  0  0
   -5.4420   -1.1902   -2.5331 H   0  0  0  0  0  0
   -5.5889   -1.2893   -0.0931 H   0  0  0  0  0  0
   -5.0310   -0.2609    3.3655 H   0  0  0  0  0  0
   -4.7186   -1.4648    2.1089 H   0  0  0  0  0  0
   -6.1772   -0.3984    2.0269 H   0  0  0  0  0  0
  1  2  1  0  0  0
  1  6  2  0  0  0
  1 28  1  0  0  0
  2  3  2  0  0  0
  2 10  1  0  0  0
  3  4  1  0  0  0
  4  5  1  0  0  0
  4  9  1  0  0  0
  5  6  1  0  0  0
  5  7  2  0  0  0
  6 29  1  0  0  0
  7  8  1  0  0  0
  8  9  2  0  0  0
  8 12  1  0  0  0
  9 18  1  0  0  0
 10 11  1  0  0  0
 11 20  2  0  0  0
 11 24  1  0  0  0
 12 13  2  0  0  0
 12 17  1  0  0  0
 13 14  1  0  0  0
 13 30  1  0  0  0
 14 15  2  0  0  0
 14 25  1  0  0  0
 15 16  1  0  0  0
 15 31  1  0  0  0
 16 17  2  0  0  0
 16 32  1  0  0  0
 17 33  1  0  0  0
 18 19  1  0  0  0
 19 34  1  0  0  0
 19 35  1  0  0  0
 19 36  1  0  0  0
 20 21  1  0  0  0
 20 37  1  0  0  0
 21 22  2  0  0  0
 21 38  1  0  0  0
 22 23  1  0  0  0
 22 39  1  0  0  0
 23 24  2  0  0  0
 23 40  1  0  0  0
 24 26  1  0  0  0
 26 27  1  0  0  0
 27 41  1  0  0  0
 27 42  1  0  0  0
 27 43  1  0  0  0
M  END
>  <Name>
4-GBLD_268

>  <Family>
I

>  <IC50_uM>
0.065000

>  <set>
1

$$$$
4-GBLD_274
  Cerius2 12180215283D 1   1.00000                          
 Structure written by MMmdl.
 47 50  0  0  0  0  0  0  0  0999 V2000
   -0.4833    2.3040   -0.2202 C   0  0  0  0  0  0
   -1.0642    0.9331   -0.0850 C   0  0  0  0  0  0
   -0.3372   -0.1233    0.1786 N   0  0  0  0  0  0
    1.0052    0.1137    0.3190 N   0  0  0  0  0  0
    1.6383    1.3430    0.2260 C   0  0  0  0  0  0
    0.8345    2.4639   -0.0615 C   0  0  0  0  0  0
    2.9332    1.2514    0.4340 N   0  0  0  0  0  0
    3.1634   -0.0836    0.6838 C   0  0  0  0  0  0
    1.9937   -0.8307    0.5892 C   0  0  0  0  0  0
    4.5018   -0.5899    0.9630 C   0  0  0  0  0  0
    4.7209   -1.7156    1.7722 C   0  0  0  0  0  0
    6.0196   -2.1701    2.0228 C   0  0  0  0  0  0
    7.1020   -1.4973    1.4702 C   0  0  0  0  0  0
    6.9123   -0.3754    0.6748 C   0  0  0  0  0  0
    5.6145    0.0792    0.4247 C   0  0  0  0  0  0
    1.8252   -2.1559    0.7378 O   0  0  0  0  0  0
    0.6324   -2.7559    0.2447 C   0  0  0  0  0  0
   -2.4026    0.7002   -0.2316 N   0  0  0  0  0  0
   -3.4313    1.6638   -0.5449 C   0  0  0  0  0  0
   -4.7735    0.9742   -0.6298 C   0  0  0  0  0  0
   -5.2152    0.4312   -1.8445 C   0  0  0  0  0  0
   -6.4437   -0.2225   -1.9172 C   0  0  0  0  0  0
   -7.2359   -0.3446   -0.7755 C   0  0  0  0  0  0
   -6.8084    0.1799    0.4469 C   0  0  0  0  0  0
   -5.5759    0.8334    0.5174 C   0  0  0  0  0  0
   -7.6760   -0.0129    1.4869 O   0  0  0  0  0  0
   -7.2961    0.5297    2.7506 C   0  0  0  0  0  0
    8.3452   -1.9346    1.7107 F   0  0  0  0  0  0
   -1.1320    3.1411   -0.4405 H   0  0  0  0  0  0
    1.2956    3.4413   -0.1486 H   0  0  0  0  0  0
    3.8897   -2.2489    2.2293 H   0  0  0  0  0  0
    6.1857   -3.0423    2.6490 H   0  0  0  0  0  0
    7.7683    0.1428    0.2522 H   0  0  0  0  0  0
    5.4770    0.9607   -0.2007 H   0  0  0  0  0  0
    0.7809   -3.8403    0.2528 H   0  0  0  0  0  0
    0.4294   -2.4594   -0.7896 H   0  0  0  0  0  0
   -0.2125   -2.5377    0.9043 H   0  0  0  0  0  0
   -2.7062   -0.2639   -0.1223 H   0  0  0  0  0  0
   -3.2142    2.1593   -1.4989 H   0  0  0  0  0  0
   -3.4695    2.4462    0.2224 H   0  0  0  0  0  0
   -4.6007    0.5146   -2.7403 H   0  0  0  0  0  0
   -6.7843   -0.6399   -2.8631 H   0  0  0  0  0  0
   -8.1940   -0.8573   -0.8434 H   0  0  0  0  0  0
   -5.2077    1.2444    1.4545 H   0  0  0  0  0  0
   -8.0960    0.3055    3.4628 H   0  0  0  0  0  0
   -7.1925    1.6184    2.6962 H   0  0  0  0  0  0
   -6.3785    0.0599    3.1197 H   0  0  0  0  0  0
  1  2  1  0  0  0
  1  6  2  0  0  0
  1 29  1  0  0  0
  2  3  2  0  0  0
  2 18  1  0  0  0
  3  4  1  0  0  0
  4  5  1  0  0  0
  4  9  1  0  0  0
  5  6  1  0  0  0
  5  7  2  0  0  0
  6 30  1  0  0  0
  7  8  1  0  0  0
  8  9  2  0  0  0
  8 10  1  0  0  0
  9 16  1  0  0  0
 10 11  2  0  0  0
 10 15  1  0  0  0
 11 12  1  0  0  0
 11 31  1  0  0  0
 12 13  2  0  0  0
 12 32  1  0  0  0
 13 14  1  0  0  0
 13 28  1  0  0  0
 14 15  2  0  0  0
 14 33  1  0  0  0
 15 34  1  0  0  0
 16 17  1  0  0  0
 17 35  1  0  0  0
 17 36  1  0  0  0
 17 37  1  0  0  0
 18 19  1  0  0  0
 18 38  1  0  0  0
 19 20  1  0  0  0
 19 39  1  0  0  0
 19 40  1  0  0  0
 20 21  2  0  0  0
 20 25  1  0  0  0
 21 22  1  0  0  0
 21 41  1  0  0  0
 22 23  2  0  0  0
 22 42  1  0  0  0
 23 24  1  0  0  0
 23 43  1  0  0  0
 24 25  2  0  0  0
 24 26  1  0  0  0
 25 44  1  0  0  0
 26 27  1  0  0  0
 27 45  1  0  0  0
 27 46  1  0  0  0
 27 47  1  0  0  0
M  END
>  <Name>
4-GBLD_274

>  <Family>
I

>  <IC50_uM>
0.001500

>  <set>
0

$$$$
4-GBLD_293
  Cerius2 12180215283D 1   1.00000                          
 Structure written by MMmdl.
 49 52  0  0  0  0  0  0  0  0999 V2000
   -0.7523    2.1999    3.0917 C   0  0  0  0  0  0
   -1.0820    1.0161    2.2681 C   0  0  0  0  0  0
   -0.2511    0.1538    1.7792 N   0  0  0  0  0  0
    1.0563    0.4256    2.0985 N   0  0  0  0  0  0
    1.5080    1.4928    2.8667 C   0  0  0  0  0  0
    0.5438    2.4006    3.3590 C   0  0  0  0  0  0
    2.8132    1.4734    3.0194 N   0  0  0  0  0  0
    3.2387    0.3486    2.3482 C   0  0  0  0  0  0
    2.1797   -0.3145    1.7343 C   0  0  0  0  0  0
    4.6463   -0.0325    2.3089 C   0  0  0  0  0  0
    5.0523   -1.3714    2.2039 C   0  0  0  0  0  0
    6.4151   -1.7222    2.1754 C   0  0  0  0  0  0
    7.3783   -0.7097    2.2781 C   0  0  0  0  0  0
    6.9890    0.6243    2.3943 C   0  0  0  0  0  0
    5.6330    0.9590    2.4117 C   0  0  0  0  0  0
    2.2111   -1.4219    0.9724 O   0  0  0  0  0  0
    1.0372   -1.8230    0.2750 C   0  0  0  0  0  0
   -2.7950    0.8089    1.9788 S   0  0  0  0  0  0
   -2.7523    0.7591    0.1613 C   0  0  0  0  0  0
   -4.1451    0.6846   -0.4180 C   0  0  0  0  0  0
   -4.6917   -0.5516   -0.7883 C   0  0  0  0  0  0
   -5.9798   -0.6207   -1.3152 C   0  0  0  0  0  0
   -6.7336    0.5429   -1.4704 C   0  0  0  0  0  0
   -6.2103    1.7834   -1.0978 C   0  0  0  0  0  0
   -4.9173    1.8509   -0.5734 C   0  0  0  0  0  0
    6.8200   -3.1712    2.0814 C   0  0  0  0  0  0
    6.0001   -3.9123    1.2748 F   0  0  0  0  0  0
    6.8049   -3.8031    3.2941 F   0  0  0  0  0  0
    8.0805   -3.3632    1.5860 F   0  0  0  0  0  0
   -7.0531    2.8429   -1.2959 O   0  0  0  0  0  0
   -6.5855    4.1238   -0.8757 C   0  0  0  0  0  0
   -1.5287    2.8636    3.4480 H   0  0  0  0  0  0
    0.8690    3.2476    3.9531 H   0  0  0  0  0  0
    4.3111   -2.1690    2.1571 H   0  0  0  0  0  0
    8.4402   -0.9565    2.2723 H   0  0  0  0  0  0
    7.7425    1.4064    2.4738 H   0  0  0  0  0  0
    5.3530    2.0086    2.5036 H   0  0  0  0  0  0
    1.3123   -2.6510   -0.3860 H   0  0  0  0  0  0
    0.6496   -1.0154   -0.3540 H   0  0  0  0  0  0
    0.2809   -2.1990    0.9704 H   0  0  0  0  0  0
   -2.1675   -0.1059   -0.1713 H   0  0  0  0  0  0
   -2.2450    1.6540   -0.2193 H   0  0  0  0  0  0
   -4.1162   -1.4690   -0.6668 H   0  0  0  0  0  0
   -6.3992   -1.5828   -1.6047 H   0  0  0  0  0  0
   -7.7401    0.4763   -1.8815 H   0  0  0  0  0  0
   -4.4804    2.8007   -0.2740 H   0  0  0  0  0  0
   -7.3724    4.8525   -1.0930 H   0  0  0  0  0  0
   -5.6924    4.4203   -1.4354 H   0  0  0  0  0  0
   -6.4023    4.1402    0.2040 H   0  0  0  0  0  0
  1  2  1  0  0  0
  1  6  2  0  0  0
  1 32  1  0  0  0
  2  3  2  0  0  0
  2 18  1  0  0  0
  3  4  1  0  0  0
  4  5  1  0  0  0
  4  9  1  0  0  0
  5  6  1  0  0  0
  5  7  2  0  0  0
  6 33  1  0  0  0
  7  8  1  0  0  0
  8  9  2  0  0  0
  8 10  1  0  0  0
  9 16  1  0  0  0
 10 11  2  0  0  0
 10 15  1  0  0  0
 11 12  1  0  0  0
 11 34  1  0  0  0
 12 13  2  0  0  0
 12 26  1  0  0  0
 13 14  1  0  0  0
 13 35  1  0  0  0
 14 15  2  0  0  0
 14 36  1  0  0  0
 15 37  1  0  0  0
 16 17  1  0  0  0
 17 38  1  0  0  0
 17 39  1  0  0  0
 17 40  1  0  0  0
 18 19  1  0  0  0
 19 20  1  0  0  0
 19 41  1  0  0  0
 19 42  1  0  0  0
 20 21  2  0  0  0
 20 25  1  0  0  0
 21 22  1  0  0  0
 21 43  1  0  0  0
 22 23  2  0  0  0
 22 44  1  0  0  0
 23 24  1  0  0  0
 23 45  1  0  0  0
 24 25  2  0  0  0
 24 30  1  0  0  0
 25 46  1  0  0  0
 26 27  1  0  0  0
 26 28  1  0  0  0
 26 29  1  0  0  0
 30 31  1  0  0  0
 31 47  1  0  0  0
 31 48  1  0  0  0
 31 49  1  0  0  0
M  END
>  <Name>
4-GBLD_293

>  <Family>
I

>  <IC50_uM>
0.163000

>  <set>
1

$$$$
4-GBLD_305
  Cerius2 12180215283D 1   1.00000                          
 Structure written by MMmdl.
 49 52  0  0  0  0  0  0  0  0999 V2000
   -1.3946    2.4344    0.5894 C   0  0  0  0  0  0
   -1.5181    1.0166    0.1860 C   0  0  0  0  0  0
   -0.5825    0.1198    0.2463 N   0  0  0  0  0  0
    0.5981    0.6091    0.7262 N   0  0  0  0  0  0
    0.8639    1.9105    1.1202 C   0  0  0  0  0  0
   -0.2001    2.8359    1.0449 C   0  0  0  0  0  0
    2.1128    2.0555    1.5079 N   0  0  0  0  0  0
    2.6858    0.8113    1.3501 C   0  0  0  0  0  0
    1.7562   -0.1158    0.9037 C   0  0  0  0  0  0
   -2.7455    0.5981   -0.3132 O   0  0  0  0  0  0
   -3.8677    1.4439   -0.4725 C   0  0  0  0  0  0
    4.0803    0.5622    1.6743 C   0  0  0  0  0  0
    4.9178   -0.1624    0.8162 C   0  0  0  0  0  0
    6.2574   -0.3797    1.1501 C   0  0  0  0  0  0
    6.7725    0.1316    2.3401 C   0  0  0  0  0  0
    5.9509    0.8623    3.1959 C   0  0  0  0  0  0
    4.6120    1.0807    2.8630 C   0  0  0  0  0  0
   -4.0211    2.1000   -1.6942 C   0  0  0  0  0  0
   -5.1382    2.9058   -1.8880 C   0  0  0  0  0  0
   -6.0866    3.0345   -0.8714 C   0  0  0  0  0  0
   -5.9272    2.3559    0.3449 C   0  0  0  0  0  0
   -4.8134    1.5428    0.5566 C   0  0  0  0  0  0
    1.8259   -1.5685    0.6151 C   0  0  0  0  0  0
    2.3419   -2.2563    1.7754 N   0  0  0  0  0  0
    3.5232   -3.9424    3.0247 C   0  0  0  0  0  0
    3.0877   -3.4030    1.6893 C   0  0  0  0  0  0
    3.3638   -3.9651    0.6303 O   0  0  0  0  0  0
   -4.5502    0.8302    1.6941 O   0  0  0  0  0  0
   -5.5494    0.8497    2.7128 C   0  0  0  0  0  0
   -2.2243    3.1224    0.5241 H   0  0  0  0  0  0
   -0.0345    3.8608    1.3577 H   0  0  0  0  0  0
    4.5443   -0.5567   -0.1265 H   0  0  0  0  0  0
    6.8999   -0.9441    0.4766 H   0  0  0  0  0  0
    7.8170   -0.0339    2.5979 H   0  0  0  0  0  0
    6.3525    1.2671    4.1230 H   0  0  0  0  0  0
    3.9828    1.6570    3.5403 H   0  0  0  0  0  0
   -3.2829    1.9873   -2.4838 H   0  0  0  0  0  0
   -5.2752    3.4326   -2.8308 H   0  0  0  0  0  0
   -6.9614    3.6651   -1.0264 H   0  0  0  0  0  0
   -6.6962    2.4888    1.1015 H   0  0  0  0  0  0
    2.4619   -1.7616   -0.2544 H   0  0  0  0  0  0
    0.8443   -2.0049    0.4059 H   0  0  0  0  0  0
    2.0797   -1.9131    2.6937 H   0  0  0  0  0  0
    2.7151   -4.5415    3.4525 H   0  0  0  0  0  0
    3.7714   -3.1258    3.7089 H   0  0  0  0  0  0
    4.4112   -4.5676    2.8958 H   0  0  0  0  0  0
   -5.2086    0.2002    3.5244 H   0  0  0  0  0  0
   -6.4988    0.4501    2.3419 H   0  0  0  0  0  0
   -5.6751    1.8571    3.1223 H   0  0  0  0  0  0
  1  2  1  0  0  0
  1  6  2  0  0  0
  1 30  1  0  0  0
  2  3  2  0  0  0
  2 10  1  0  0  0
  3  4  1  0  0  0
  4  5  1  0  0  0
  4  9  1  0  0  0
  5  6  1  0  0  0
  5  7  2  0  0  0
  6 31  1  0  0  0
  7  8  1  0  0  0
  8  9  2  0  0  0
  8 12  1  0  0  0
  9 23  1  0  0  0
 10 11  1  0  0  0
 11 18  2  0  0  0
 11 22  1  0  0  0
 12 13  2  0  0  0
 12 17  1  0  0  0
 13 14  1  0  0  0
 13 32  1  0  0  0
 14 15  2  0  0  0
 14 33  1  0  0  0
 15 16  1  0  0  0
 15 34  1  0  0  0
 16 17  2  0  0  0
 16 35  1  0  0  0
 17 36  1  0  0  0
 18 19  1  0  0  0
 18 37  1  0  0  0
 19 20  2  0  0  0
 19 38  1  0  0  0
 20 21  1  0  0  0
 20 39  1  0  0  0
 21 22  2  0  0  0
 21 40  1  0  0  0
 22 28  1  0  0  0
 23 24  1  0  0  0
 23 41  1  0  0  0
 23 42  1  0  0  0
 24 26  1  0  0  0
 24 43  1  0  0  0
 25 26  1  0  0  0
 25 44  1  0  0  0
 25 45  1  0  0  0
 25 46  1  0  0  0
 26 27  2  0  0  0
 28 29  1  0  0  0
 29 47  1  0  0  0
 29 48  1  0  0  0
 29 49  1  0  0  0
M  END
>  <Name>
4-GBLD_305

>  <Family>
I

>  <IC50_uM>
10.000000

>  <set>
1

$$$$
4-GBLD_307
  Cerius2 12180215283D 1   1.00000                          
 Structure written by MMmdl.
 49 52  0  0  0  0  0  0  0  0999 V2000
   -0.3734    2.7239   -0.5227 C   0  0  0  0  0  0
   -0.9670    1.3980   -0.1684 C   0  0  0  0  0  0
   -0.2444    0.3767    0.2177 N   0  0  0  0  0  0
    1.1050    0.6071    0.2699 N   0  0  0  0  0  0
    1.7511    1.7976   -0.0214 C   0  0  0  0  0  0
    0.9518    2.8805   -0.4377 C   0  0  0  0  0  0
    3.0514    1.7126    0.1557 N   0  0  0  0  0  0
    3.2742    0.4174    0.5684 C   0  0  0  0  0  0
    2.0883   -0.3043    0.6461 C   0  0  0  0  0  0
    4.6129   -0.0676    0.8842 C   0  0  0  0  0  0
    4.9768   -1.4120    0.7193 C   0  0  0  0  0  0
    6.2794   -1.8311    1.0325 C   0  0  0  0  0  0
    7.2300   -0.9179    1.5038 C   0  0  0  0  0  0
    6.8752    0.4214    1.6575 C   0  0  0  0  0  0
    5.5787    0.8416    1.3472 C   0  0  0  0  0  0
    1.8898   -1.5690    1.0541 O   0  0  0  0  0  0
    0.7338   -2.2548    0.5821 C   0  0  0  0  0  0
   -2.3133    1.1723   -0.2297 N   0  0  0  0  0  0
   -3.3405    2.1033   -0.6326 C   0  0  0  0  0  0
   -4.6888    1.4208   -0.6165 C   0  0  0  0  0  0
   -5.1222    0.6867   -1.7296 C   0  0  0  0  0  0
   -6.3570    0.0416   -1.7093 C   0  0  0  0  0  0
   -7.1641    0.1199   -0.5741 C   0  0  0  0  0  0
   -6.7459    0.8389    0.5488 C   0  0  0  0  0  0
   -5.5062    1.4824    0.5269 C   0  0  0  0  0  0
   -7.6296    0.8331    1.5931 O   0  0  0  0  0  0
   -7.2681    1.5930    2.7454 C   0  0  0  0  0  0
    6.6501   -3.2419    0.8608 N   0  3  0  0  0  0
    7.8248   -3.5789    1.1028 O   0  0  0  0  0  0
    5.7739   -4.0417    0.4811 O   0  5  0  0  0  0
   -1.0188    3.5326   -0.8377 H   0  0  0  0  0  0
    1.4220    3.8263   -0.6827 H   0  0  0  0  0  0
    4.2550   -2.1290    0.3359 H   0  0  0  0  0  0
    8.2430   -1.2277    1.7508 H   0  0  0  0  0  0
    7.6074    1.1412    2.0193 H   0  0  0  0  0  0
    5.3246    1.8939    1.4752 H   0  0  0  0  0  0
    0.8967   -3.3254    0.7410 H   0  0  0  0  0  0
    0.5791   -2.0995   -0.4909 H   0  0  0  0  0  0
   -0.1475   -1.9679    1.1627 H   0  0  0  0  0  0
   -2.6262    0.2408    0.0314 H   0  0  0  0  0  0
   -3.1408    2.4837   -1.6416 H   0  0  0  0  0  0
   -3.3554    2.9686    0.0407 H   0  0  0  0  0  0
   -4.4956    0.6140   -2.6180 H   0  0  0  0  0  0
   -6.6912   -0.5244   -2.5769 H   0  0  0  0  0  0
   -8.1272   -0.3876   -0.5687 H   0  0  0  0  0  0
   -5.1451    2.0409    1.3874 H   0  0  0  0  0  0
   -8.0806    1.5013    3.4726 H   0  0  0  0  0  0
   -7.1589    2.6543    2.4988 H   0  0  0  0  0  0
   -6.3589    1.1958    3.2084 H   0  0  0  0  0  0
  1  2  1  0  0  0
  1  6  2  0  0  0
  1 31  1  0  0  0
  2  3  2  0  0  0
  2 18  1  0  0  0
  3  4  1  0  0  0
  4  5  1  0  0  0
  4  9  1  0  0  0
  5  6  1  0  0  0
  5  7  2  0  0  0
  6 32  1  0  0  0
  7  8  1  0  0  0
  8  9  2  0  0  0
  8 10  1  0  0  0
  9 16  1  0  0  0
 10 11  2  0  0  0
 10 15  1  0  0  0
 11 12  1  0  0  0
 11 33  1  0  0  0
 12 13  2  0  0  0
 12 28  1  0  0  0
 13 14  1  0  0  0
 13 34  1  0  0  0
 14 15  2  0  0  0
 14 35  1  0  0  0
 15 36  1  0  0  0
 16 17  1  0  0  0
 17 37  1  0  0  0
 17 38  1  0  0  0
 17 39  1  0  0  0
 18 19  1  0  0  0
 18 40  1  0  0  0
 19 20  1  0  0  0
 19 41  1  0  0  0
 19 42  1  0  0  0
 20 21  2  0  0  0
 20 25  1  0  0  0
 21 22  1  0  0  0
 21 43  1  0  0  0
 22 23  2  0  0  0
 22 44  1  0  0  0
 23 24  1  0  0  0
 23 45  1  0  0  0
 24 25  2  0  0  0
 24 26  1  0  0  0
 25 46  1  0  0  0
 26 27  1  0  0  0
 27 47  1  0  0  0
 27 48  1  0  0  0
 27 49  1  0  0  0
 28 29  2  0  0  0
 28 30  1  0  0  0
M  CHG  2  28   1  30  -1
M  END
>  <Name>
4-GBLD_307

>  <Family>
I

>  <IC50_uM>
0.002500

>  <set>
2

$$$$
4-GBLD_308
  Cerius2 12180215283D 1   1.00000                          
 Structure written by MMmdl.
 50 53  0  0  0  0  0  0  0  0999 V2000
   -0.8443    2.2810   -0.2630 C   0  0  0  0  0  0
   -1.4211    0.9091   -0.1174 C   0  0  0  0  0  0
   -0.6874   -0.1474    0.1280 N   0  0  0  0  0  0
    0.6576    0.0921    0.2387 N   0  0  0  0  0  0
    1.2872    1.3219    0.1365 C   0  0  0  0  0  0
    0.4767    2.4422   -0.1332 C   0  0  0  0  0  0
    2.5856    1.2310    0.3228 N   0  0  0  0  0  0
    2.8221   -0.1048    0.5678 C   0  0  0  0  0  0
    1.6515   -0.8517    0.4867 C   0  0  0  0  0  0
    4.1656   -0.6089    0.8285 C   0  0  0  0  0  0
    4.3999   -1.7507    1.6050 C   0  0  0  0  0  0
    5.7043   -2.2015    1.8397 C   0  0  0  0  0  0
    6.8012   -1.5102    1.3155 C   0  0  0  0  0  0
    6.5742   -0.3725    0.5357 C   0  0  0  0  0  0
    5.2701    0.0772    0.3027 C   0  0  0  0  0  0
    1.4766   -2.1754    0.6386 O   0  0  0  0  0  0
    0.3375   -2.7810    0.0354 C   0  0  0  0  0  0
   -2.7623    0.6758   -0.2353 N   0  0  0  0  0  0
   -3.7974    1.6388   -0.5288 C   0  0  0  0  0  0
   -5.1420    0.9501   -0.5795 C   0  0  0  0  0  0
   -5.5898    0.3594   -1.7695 C   0  0  0  0  0  0
   -6.8198   -0.2943   -1.8108 C   0  0  0  0  0  0
   -7.6083   -0.3667   -0.6623 C   0  0  0  0  0  0
   -7.1755    0.2073    0.5357 C   0  0  0  0  0  0
   -5.9406    0.8590    0.5751 C   0  0  0  0  0  0
   -8.0405    0.0612    1.5855 O   0  0  0  0  0  0
   -7.6549    0.6559    2.8238 C   0  0  0  0  0  0
    8.1966   -2.0152    1.5389 C   0  0  0  0  0  0
   -1.4981    3.1179   -0.4677 H   0  0  0  0  0  0
    0.9350    3.4201   -0.2295 H   0  0  0  0  0  0
    3.5763   -2.3058    2.0499 H   0  0  0  0  0  0
    5.8546   -3.0979    2.4408 H   0  0  0  0  0  0
    7.4098    0.1763    0.1028 H   0  0  0  0  0  0
    5.1241    0.9702   -0.3045 H   0  0  0  0  0  0
    0.5154   -3.8606    0.0033 H   0  0  0  0  0  0
    0.1932   -2.4384   -0.9946 H   0  0  0  0  0  0
   -0.5553   -2.6156    0.6451 H   0  0  0  0  0  0
   -3.0632   -0.2889   -0.1229 H   0  0  0  0  0  0
   -3.6035    2.1292   -1.4903 H   0  0  0  0  0  0
   -3.8156    2.4248    0.2354 H   0  0  0  0  0  0
   -4.9783    0.4052   -2.6700 H   0  0  0  0  0  0
   -7.1642   -0.7501   -2.7374 H   0  0  0  0  0  0
   -8.5679   -0.8794   -0.7058 H   0  0  0  0  0  0
   -5.5683    1.3071    1.4933 H   0  0  0  0  0  0
   -8.4530    0.4643    3.5477 H   0  0  0  0  0  0
   -7.5485    1.7411    2.7232 H   0  0  0  0  0  0
   -6.7374    0.1998    3.2097 H   0  0  0  0  0  0
    8.9154   -1.1891    1.5400 H   0  0  0  0  0  0
    8.4697   -2.7211    0.7487 H   0  0  0  0  0  0
    8.2789   -2.5185    2.5079 H   0  0  0  0  0  0
  1  2  1  0  0  0
  1  6  2  0  0  0
  1 29  1  0  0  0
  2  3  2  0  0  0
  2 18  1  0  0  0
  3  4  1  0  0  0
  4  5  1  0  0  0
  4  9  1  0  0  0
  5  6  1  0  0  0
  5  7  2  0  0  0
  6 30  1  0  0  0
  7  8  1  0  0  0
  8  9  2  0  0  0
  8 10  1  0  0  0
  9 16  1  0  0  0
 10 11  2  0  0  0
 10 15  1  0  0  0
 11 12  1  0  0  0
 11 31  1  0  0  0
 12 13  2  0  0  0
 12 32  1  0  0  0
 13 14  1  0  0  0
 13 28  1  0  0  0
 14 15  2  0  0  0
 14 33  1  0  0  0
 15 34  1  0  0  0
 16 17  1  0  0  0
 17 35  1  0  0  0
 17 36  1  0  0  0
 17 37  1  0  0  0
 18 19  1  0  0  0
 18 38  1  0  0  0
 19 20  1  0  0  0
 19 39  1  0  0  0
 19 40  1  0  0  0
 20 21  2  0  0  0
 20 25  1  0  0  0
 21 22  1  0  0  0
 21 41  1  0  0  0
 22 23  2  0  0  0
 22 42  1  0  0  0
 23 24  1  0  0  0
 23 43  1  0  0  0
 24 25  2  0  0  0
 24 26  1  0  0  0
 25 44  1  0  0  0
 26 27  1  0  0  0
 27 45  1  0  0  0
 27 46  1  0  0  0
 27 47  1  0  0  0
 28 48  1  0  0  0
 28 49  1  0  0  0
 28 50  1  0  0  0
M  END
>  <Name>
4-GBLD_308

>  <Family>
I

>  <IC50_uM>
0.003200

>  <set>
0

$$$$
4-GBLD_312
  Cerius2 12180215283D 1   1.00000                          
 Structure written by MMmdl.
 47 50  0  0  0  0  0  0  0  0999 V2000
   -0.4256    2.2638   -0.2217 C   0  0  0  0  0  0
   -0.9945    0.8914   -0.0523 C   0  0  0  0  0  0
   -0.2526   -0.1600    0.1894 N   0  0  0  0  0  0
    1.0925    0.0857    0.2748 N   0  0  0  0  0  0
    1.7159    1.3171    0.1516 C   0  0  0  0  0  0
    0.8965    2.4315   -0.1156 C   0  0  0  0  0  0
    3.0173    1.2331    0.3189 N   0  0  0  0  0  0
    3.2614   -0.0989    0.5728 C   0  0  0  0  0  0
    2.0941   -0.8519    0.5136 C   0  0  0  0  0  0
    4.6085   -0.5978    0.8206 C   0  0  0  0  0  0
    4.8519   -1.7153    1.6343 C   0  0  0  0  0  0
    6.1580   -2.1626    1.8568 C   0  0  0  0  0  0
    7.2235   -1.4910    1.2715 C   0  0  0  0  0  0
    7.0096   -0.3773    0.4704 C   0  0  0  0  0  0
    5.7044    0.0706    0.2485 C   0  0  0  0  0  0
    1.9293   -2.1756    0.6763 O   0  0  0  0  0  0
    0.7792   -2.7895    0.1031 C   0  0  0  0  0  0
   -2.3367    0.6521   -0.1437 N   0  0  0  0  0  0
   -3.3843    1.6142   -0.4039 C   0  0  0  0  0  0
   -4.7220    0.9145   -0.5166 C   0  0  0  0  0  0
   -5.0332    0.2463   -1.7168 C   0  0  0  0  0  0
   -6.2464   -0.4211   -1.8680 C   0  0  0  0  0  0
   -7.1610   -0.4332   -0.8207 C   0  0  0  0  0  0
   -6.8644    0.2175    0.3802 C   0  0  0  0  0  0
   -5.6475    0.8895    0.5448 C   0  0  0  0  0  0
    8.4738   -1.9210    1.4860 F   0  0  0  0  0  0
   -5.2749    1.5459    1.6886 O   0  0  0  0  0  0
   -6.1786    1.5075    2.7921 C   0  0  0  0  0  0
   -1.0862    3.0960   -0.4238 H   0  0  0  0  0  0
    1.3491    3.4101   -0.2290 H   0  0  0  0  0  0
    4.0342   -2.2463    2.1175 H   0  0  0  0  0  0
    6.3428   -3.0280    2.4870 H   0  0  0  0  0  0
    7.8532    0.1400    0.0226 H   0  0  0  0  0  0
    5.5482    0.9463   -0.3806 H   0  0  0  0  0  0
    0.9613   -3.8681    0.0717 H   0  0  0  0  0  0
    0.6087   -2.4530   -0.9252 H   0  0  0  0  0  0
   -0.0997   -2.6246    0.7330 H   0  0  0  0  0  0
   -2.6339   -0.3096    0.0011 H   0  0  0  0  0  0
   -3.1868    2.1431   -1.3448 H   0  0  0  0  0  0
   -3.4029    2.3771    0.3819 H   0  0  0  0  0  0
   -4.3202    0.2451   -2.5413 H   0  0  0  0  0  0
   -6.4761   -0.9321   -2.8012 H   0  0  0  0  0  0
   -8.1108   -0.9534   -0.9351 H   0  0  0  0  0  0
   -7.6110    0.1768    1.1691 H   0  0  0  0  0  0
   -5.7176    2.0582    3.6177 H   0  0  0  0  0  0
   -6.3456    0.4794    3.1295 H   0  0  0  0  0  0
   -7.1216    2.0056    2.5451 H   0  0  0  0  0  0
  1  2  1  0  0  0
  1  6  2  0  0  0
  1 29  1  0  0  0
  2  3  2  0  0  0
  2 18  1  0  0  0
  3  4  1  0  0  0
  4  5  1  0  0  0
  4  9  1  0  0  0
  5  6  1  0  0  0
  5  7  2  0  0  0
  6 30  1  0  0  0
  7  8  1  0  0  0
  8  9  2  0  0  0
  8 10  1  0  0  0
  9 16  1  0  0  0
 10 11  2  0  0  0
 10 15  1  0  0  0
 11 12  1  0  0  0
 11 31  1  0  0  0
 12 13  2  0  0  0
 12 32  1  0  0  0
 13 14  1  0  0  0
 13 26  1  0  0  0
 14 15  2  0  0  0
 14 33  1  0  0  0
 15 34  1  0  0  0
 16 17  1  0  0  0
 17 35  1  0  0  0
 17 36  1  0  0  0
 17 37  1  0  0  0
 18 19  1  0  0  0
 18 38  1  0  0  0
 19 20  1  0  0  0
 19 39  1  0  0  0
 19 40  1  0  0  0
 20 21  2  0  0  0
 20 25  1  0  0  0
 21 22  1  0  0  0
 21 41  1  0  0  0
 22 23  2  0  0  0
 22 42  1  0  0  0
 23 24  1  0  0  0
 23 43  1  0  0  0
 24 25  2  0  0  0
 24 44  1  0  0  0
 25 27  1  0  0  0
 27 28  1  0  0  0
 28 45  1  0  0  0
 28 46  1  0  0  0
 28 47  1  0  0  0
M  END
>  <Name>
4-GBLD_312

>  <Family>
I

>  <IC50_uM>
0.002200

>  <set>
2

$$$$
4-GBLD_313
  Cerius2 12180215283D 1   1.00000                          
 Structure written by MMmdl.
 49 52  0  0  0  0  0  0  0  0999 V2000
    0.2195    2.6169   -0.1299 C   0  0  0  0  0  0
   -0.3631    1.2572    0.0866 C   0  0  0  0  0  0
    0.3662    0.2120    0.3864 N   0  0  0  0  0  0
    1.7120    0.4502    0.4867 N   0  0  0  0  0  0
    2.3475    1.6700    0.3177 C   0  0  0  0  0  0
    1.5414    2.7784   -0.0090 C   0  0  0  0  0  0
    3.6456    1.5841    0.5080 N   0  0  0  0  0  0
    3.8788    0.2587    0.8040 C   0  0  0  0  0  0
    2.7006   -0.4809    0.7991 C   0  0  0  0  0  0
    5.2186   -0.2365    1.0977 C   0  0  0  0  0  0
    5.6110   -1.5515    0.7979 C   0  0  0  0  0  0
    6.8988   -2.0131    1.0947 C   0  0  0  0  0  0
    7.8210   -1.1235    1.6478 C   0  0  0  0  0  0
    7.4545    0.1900    1.9439 C   0  0  0  0  0  0
    6.1593    0.6303    1.6707 C   0  0  0  0  0  0
    2.5183   -1.7808    1.0874 O   0  0  0  0  0  0
    1.3250   -2.4176    0.6429 C   0  0  0  0  0  0
   -1.7055    1.0233   -0.0184 N   0  0  0  0  0  0
   -2.7411    1.9802   -0.3298 C   0  0  0  0  0  0
   -4.0874    1.2960   -0.3439 C   0  0  0  0  0  0
   -4.6073    0.7683   -1.5322 C   0  0  0  0  0  0
   -5.8434    0.1219   -1.5330 C   0  0  0  0  0  0
   -6.5706   -0.0131   -0.3471 C   0  0  0  0  0  0
   -6.0615    0.4949    0.8478 C   0  0  0  0  0  0
   -4.8219    1.1435    0.8432 C   0  0  0  0  0  0
    7.2875   -3.2913    0.7352 N   0  0  0  0  0  0
   -6.6662    0.4233    2.0729 O   0  0  0  0  0  0
   -7.9303   -0.2365    2.1268 C   0  0  0  0  0  0
   -0.4303    3.4450   -0.3782 H   0  0  0  0  0  0
    2.0038    3.7480   -0.1560 H   0  0  0  0  0  0
    4.9113   -2.2323    0.3171 H   0  0  0  0  0  0
    8.8399   -1.4470    1.8542 H   0  0  0  0  0  0
    8.1809    0.8721    2.3820 H   0  0  0  0  0  0
    5.8906    1.6595    1.9063 H   0  0  0  0  0  0
    1.4705   -3.4977    0.7425 H   0  0  0  0  0  0
    1.1242   -2.2078   -0.4129 H   0  0  0  0  0  0
    0.4792   -2.1428    1.2798 H   0  0  0  0  0  0
   -2.0100    0.0660    0.1398 H   0  0  0  0  0  0
   -2.5535    2.4409   -1.3070 H   0  0  0  0  0  0
   -2.7512    2.7885    0.4110 H   0  0  0  0  0  0
   -4.0509    0.8572   -2.4648 H   0  0  0  0  0  0
   -6.2427   -0.2824   -2.4620 H   0  0  0  0  0  0
   -7.5284   -0.5243   -0.3948 H   0  0  0  0  0  0
   -4.4206    1.5342    1.7781 H   0  0  0  0  0  0
    8.1722   -3.6703    1.0653 H   0  0  0  0  0  0
    6.5933   -3.9823    0.4599 H   0  0  0  0  0  0
   -8.2726   -0.2142    3.1659 H   0  0  0  0  0  0
   -7.8394   -1.2858    1.8275 H   0  0  0  0  0  0
   -8.6737    0.2887    1.5184 H   0  0  0  0  0  0
  1  2  1  0  0  0
  1  6  2  0  0  0
  1 29  1  0  0  0
  2  3  2  0  0  0
  2 18  1  0  0  0
  3  4  1  0  0  0
  4  5  1  0  0  0
  4  9  1  0  0  0
  5  6  1  0  0  0
  5  7  2  0  0  0
  6 30  1  0  0  0
  7  8  1  0  0  0
  8  9  2  0  0  0
  8 10  1  0  0  0
  9 16  1  0  0  0
 10 11  2  0  0  0
 10 15  1  0  0  0
 11 12  1  0  0  0
 11 31  1  0  0  0
 12 13  2  0  0  0
 12 26  1  0  0  0
 13 14  1  0  0  0
 13 32  1  0  0  0
 14 15  2  0  0  0
 14 33  1  0  0  0
 15 34  1  0  0  0
 16 17  1  0  0  0
 17 35  1  0  0  0
 17 36  1  0  0  0
 17 37  1  0  0  0
 18 19  1  0  0  0
 18 38  1  0  0  0
 19 20  1  0  0  0
 19 39  1  0  0  0
 19 40  1  0  0  0
 20 21  2  0  0  0
 20 25  1  0  0  0
 21 22  1  0  0  0
 21 41  1  0  0  0
 22 23  2  0  0  0
 22 42  1  0  0  0
 23 24  1  0  0  0
 23 43  1  0  0  0
 24 25  2  0  0  0
 24 27  1  0  0  0
 25 44  1  0  0  0
 26 45  1  0  0  0
 26 46  1  0  0  0
 27 28  1  0  0  0
 28 47  1  0  0  0
 28 48  1  0  0  0
 28 49  1  0  0  0
M  END
>  <Name>
4-GBLD_313

>  <Family>
I

>  <IC50_uM>
0.001800

>  <set>
0

$$$$
4-GBLD_345
  Cerius2 12180215283D 1   1.00000                          
 Structure written by MMmdl.
 49 52  0  0  0  0  0  0  0  0999 V2000
   -0.2936    2.2709    0.2746 C   0  0  0  0  0  0
   -0.8485    0.8828    0.2262 C   0  0  0  0  0  0
   -0.0987   -0.1861    0.3247 N   0  0  0  0  0  0
    1.2401    0.0582    0.4807 N   0  0  0  0  0  0
    1.8502    1.2992    0.5629 C   0  0  0  0  0  0
    1.0233    2.4333    0.4405 C   0  0  0  0  0  0
    3.1470    1.2011    0.7576 N   0  0  0  0  0  0
    3.4008   -0.1526    0.8194 C   0  0  0  0  0  0
    2.2455   -0.8960    0.6057 C   0  0  0  0  0  0
    4.7441   -0.6717    1.0434 C   0  0  0  0  0  0
    4.9763   -1.9006    1.6720 C   0  0  0  0  0  0
    6.2834   -2.3601    1.8823 C   0  0  0  0  0  0
    7.3842   -1.5964    1.4928 C   0  0  0  0  0  0
    7.1555   -0.3813    0.8475 C   0  0  0  0  0  0
    5.8514    0.0844    0.6366 C   0  0  0  0  0  0
    2.0835   -2.2289    0.5642 O   0  0  0  0  0  0
    1.0199   -2.7464   -0.2305 C   0  0  0  0  0  0
   -2.1855    0.6468    0.0740 N   0  0  0  0  0  0
   -3.2391    1.6250   -0.0569 C   0  0  0  0  0  0
   -4.5736    0.9289   -0.1793 C   0  0  0  0  0  0
   -5.0520    0.5226   -1.4309 C   0  0  0  0  0  0
   -6.2733   -0.1424   -1.5351 C   0  0  0  0  0  0
   -7.0286   -0.4152   -0.3913 C   0  0  0  0  0  0
   -6.5625   -0.0260    0.8643 C   0  0  0  0  0  0
   -5.3353    0.6387    0.9636 C   0  0  0  0  0  0
   -7.1983   -0.2356    2.0572 O   0  0  0  0  0  0
   -8.4718   -0.8763    2.0003 C   0  0  0  0  0  0
    8.6680   -2.0831    1.6436 N   0  0  0  0  0  0
   -0.9599    3.1177    0.1779 H   0  0  0  0  0  0
    1.4657    3.4223    0.4855 H   0  0  0  0  0  0
    4.1514   -2.5211    2.0171 H   0  0  0  0  0  0
    6.4297   -3.3260    2.3631 H   0  0  0  0  0  0
    7.9926    0.2236    0.5027 H   0  0  0  0  0  0
    5.7111    1.0438    0.1394 H   0  0  0  0  0  0
    1.2459   -3.7963   -0.4406 H   0  0  0  0  0  0
    0.9366   -2.2261   -1.1911 H   0  0  0  0  0  0
    0.0776   -2.7181    0.3239 H   0  0  0  0  0  0
   -2.4708   -0.3288    0.0499 H   0  0  0  0  0  0
   -3.0717    2.2518   -0.9411 H   0  0  0  0  0  0
   -3.2523    2.2923    0.8132 H   0  0  0  0  0  0
   -4.4722    0.7200   -2.3320 H   0  0  0  0  0  0
   -6.6383   -0.4544   -2.5125 H   0  0  0  0  0  0
   -7.9727   -0.9377   -0.5196 H   0  0  0  0  0  0
   -4.9665    0.9337    1.9456 H   0  0  0  0  0  0
   -8.8524   -0.9517    3.0236 H   0  0  0  0  0  0
   -8.3828   -1.8919    1.6009 H   0  0  0  0  0  0
   -9.1857   -0.2815    1.4210 H   0  0  0  0  0  0
    9.4713   -1.4826    1.4731 H   0  0  0  0  0  0
    8.8460   -2.8982    2.2257 H   0  0  0  0  0  0
  1  2  1  0  0  0
  1  6  2  0  0  0
  1 29  1  0  0  0
  2  3  2  0  0  0
  2 18  1  0  0  0
  3  4  1  0  0  0
  4  5  1  0  0  0
  4  9  1  0  0  0
  5  6  1  0  0  0
  5  7  2  0  0  0
  6 30  1  0  0  0
  7  8  1  0  0  0
  8  9  2  0  0  0
  8 10  1  0  0  0
  9 16  1  0  0  0
 10 11  2  0  0  0
 10 15  1  0  0  0
 11 12  1  0  0  0
 11 31  1  0  0  0
 12 13  2  0  0  0
 12 32  1  0  0  0
 13 14  1  0  0  0
 13 28  1  0  0  0
 14 15  2  0  0  0
 14 33  1  0  0  0
 15 34  1  0  0  0
 16 17  1  0  0  0
 17 35  1  0  0  0
 17 36  1  0  0  0
 17 37  1  0  0  0
 18 19  1  0  0  0
 18 38  1  0  0  0
 19 20  1  0  0  0
 19 39  1  0  0  0
 19 40  1  0  0  0
 20 21  2  0  0  0
 20 25  1  0  0  0
 21 22  1  0  0  0
 21 41  1  0  0  0
 22 23  2  0  0  0
 22 42  1  0  0  0
 23 24  1  0  0  0
 23 43  1  0  0  0
 24 25  2  0  0  0
 24 26  1  0  0  0
 25 44  1  0  0  0
 26 27  1  0  0  0
 27 45  1  0  0  0
 27 46  1  0  0  0
 27 47  1  0  0  0
 28 48  1  0  0  0
 28 49  1  0  0  0
M  END
>  <Name>
4-GBLD_345

>  <Family>
I

>  <IC50_uM>
0.001000

>  <set>
0

$$$$
4-GBLD_318
  Cerius2 12180215283D 1   1.00000                          
 Structure written by MMmdl.
 34 36  0  0  0  0  0  0  0  0999 V2000
   -3.6730    3.3855    1.9480 C   0  0  0  0  0  0
   -3.9140    1.9413    2.1976 C   0  0  0  0  0  0
   -3.1539    0.9651    1.8022 N   0  0  0  0  0  0
   -2.0610    1.3911    1.1033 N   0  0  0  0  0  0
   -1.7122    2.6990    0.8030 C   0  0  0  0  0  0
   -2.5766    3.7188    1.2568 C   0  0  0  0  0  0
   -0.5852    2.7580    0.1262 N   0  0  0  0  0  0
   -0.1927    1.4464   -0.0388 C   0  0  0  0  0  0
   -1.0873    0.5781    0.5661 C   0  0  0  0  0  0
    1.0412    1.0961   -0.7223 C   0  0  0  0  0  0
    1.0973    0.0554   -1.6578 C   0  0  0  0  0  0
    2.2982   -0.2538   -2.3032 C   0  0  0  0  0  0
    3.4506    0.4792   -2.0256 C   0  0  0  0  0  0
    3.4036    1.5263   -1.1077 C   0  0  0  0  0  0
    2.2036    1.8359   -0.4624 C   0  0  0  0  0  0
   -5.3167    1.4627    3.0892 Cl  0  0  0  0  0  0
   -1.1006   -0.8911    0.7445 C   0  0  0  0  0  0
   -1.8448   -1.4985   -0.3391 N   0  0  0  0  0  0
   -1.1151   -3.7726    0.2454 C   0  0  0  0  0  0
   -1.9180   -2.8330   -0.6145 C   0  0  0  0  0  0
   -2.6140   -3.2410   -1.5472 O   0  0  0  0  0  0
   -4.3779    4.1122    2.3270 H   0  0  0  0  0  0
   -2.3401    4.7543    1.0403 H   0  0  0  0  0  0
    0.2080   -0.5174   -1.9107 H   0  0  0  0  0  0
    2.3312   -1.0652   -3.0283 H   0  0  0  0  0  0
    4.3848    0.2376   -2.5296 H   0  0  0  0  0  0
    4.3009    2.1042   -0.8936 H   0  0  0  0  0  0
    2.1826    2.6586    0.2514 H   0  0  0  0  0  0
   -1.5719   -1.1867    1.6879 H   0  0  0  0  0  0
   -0.0835   -1.2958    0.7527 H   0  0  0  0  0  0
   -2.4197   -0.8991   -0.9212 H   0  0  0  0  0  0
   -1.3462   -4.8056   -0.0302 H   0  0  0  0  0  0
   -1.3663   -3.6322    1.2998 H   0  0  0  0  0  0
   -0.0472   -3.5989    0.0897 H   0  0  0  0  0  0
  1  2  1  0  0  0
  1  6  2  0  0  0
  1 22  1  0  0  0
  2  3  2  0  0  0
  2 16  1  0  0  0
  3  4  1  0  0  0
  4  5  1  0  0  0
  4  9  1  0  0  0
  5  6  1  0  0  0
  5  7  2  0  0  0
  6 23  1  0  0  0
  7  8  1  0  0  0
  8  9  2  0  0  0
  8 10  1  0  0  0
  9 17  1  0  0  0
 10 11  2  0  0  0
 10 15  1  0  0  0
 11 12  1  0  0  0
 11 24  1  0  0  0
 12 13  2  0  0  0
 12 25  1  0  0  0
 13 14  1  0  0  0
 13 26  1  0  0  0
 14 15  2  0  0  0
 14 27  1  0  0  0
 15 28  1  0  0  0
 17 18  1  0  0  0
 17 29  1  0  0  0
 17 30  1  0  0  0
 18 20  1  0  0  0
 18 31  1  0  0  0
 19 20  1  0  0  0
 19 32  1  0  0  0
 19 33  1  0  0  0
 19 34  1  0  0  0
 20 21  2  0  0  0
M  END
>  <Name>
4-GBLD_318

>  <Family>
I

>  <IC50_uM>
0.474000

>  <set>
1

$$$$
4-GBLD_322
  Cerius2 12180215283D 1   1.00000                          
 Structure written by MMmdl.
 44 47  0  0  0  0  0  0  0  0999 V2000
   -4.2032    3.6745    3.3500 C   0  0  0  0  0  0
   -4.4862    2.2279    3.2640 C   0  0  0  0  0  0
   -3.7567    1.3214    2.6956 N   0  0  0  0  0  0
   -2.6189    1.8440    2.1460 N   0  0  0  0  0  0
   -2.2154    3.1730    2.1539 C   0  0  0  0  0  0
   -3.0671    4.1055    2.7884 C   0  0  0  0  0  0
   -1.0636    3.3357    1.5362 N   0  0  0  0  0  0
   -0.7007    2.0750    1.1227 C   0  0  0  0  0  0
   -1.6584    1.1352    1.4606 C   0  0  0  0  0  0
    0.5153    1.8191    0.3791 C   0  0  0  0  0  0
    1.5044    0.9691    0.8859 C   0  0  0  0  0  0
    2.6676    0.7241    0.1504 C   0  0  0  0  0  0
    2.8530    1.3176   -1.1040 C   0  0  0  0  0  0
    1.8755    2.1898   -1.5956 C   0  0  0  0  0  0
    0.7138    2.4391   -0.8591 C   0  0  0  0  0  0
   -5.6251    1.8136    3.8372 F   0  0  0  0  0  0
   -1.7637   -0.3187    1.1977 C   0  0  0  0  0  0
   -2.3504   -0.4918   -0.1191 N   0  0  0  0  0  0
    4.1026    1.0443   -1.8883 C   0  0  0  0  0  0
   -1.8412   -1.1306   -1.2189 C   0  0  0  0  0  0
   -2.4113   -1.0556   -2.3080 O   0  0  0  0  0  0
   -0.5979   -1.9264   -1.1136 C   0  0  0  0  0  0
   -0.4972   -2.9853   -0.2038 C   0  0  0  0  0  0
    0.6704   -3.7486   -0.1561 C   0  0  0  0  0  0
    1.7258   -3.4661   -1.0248 C   0  0  0  0  0  0
    1.6154   -2.4272   -1.9493 C   0  0  0  0  0  0
    0.4514   -1.6590   -1.9999 C   0  0  0  0  0  0
   -4.9111    4.3152    3.8541 H   0  0  0  0  0  0
   -2.7899    5.1529    2.8078 H   0  0  0  0  0  0
    1.3834    0.4941    1.8578 H   0  0  0  0  0  0
    3.4248    0.0563    0.5594 H   0  0  0  0  0  0
    2.0038    2.6748   -2.5626 H   0  0  0  0  0  0
   -0.0390    3.1144   -1.2631 H   0  0  0  0  0  0
   -2.4209   -0.8213    1.9144 H   0  0  0  0  0  0
   -0.7810   -0.7879    1.2645 H   0  0  0  0  0  0
   -3.2419   -0.0313   -0.2711 H   0  0  0  0  0  0
    3.9685    1.3010   -2.9444 H   0  0  0  0  0  0
    4.3587   -0.0195   -1.8420 H   0  0  0  0  0  0
    4.9353    1.6311   -1.4891 H   0  0  0  0  0  0
   -1.3241   -3.2263    0.4611 H   0  0  0  0  0  0
    0.7568   -4.5684    0.5548 H   0  0  0  0  0  0
    2.6362   -4.0626   -0.9861 H   0  0  0  0  0  0
    2.4372   -2.2151   -2.6304 H   0  0  0  0  0  0
    0.3686   -0.8509   -2.7244 H   0  0  0  0  0  0
  1  2  1  0  0  0
  1  6  2  0  0  0
  1 28  1  0  0  0
  2  3  2  0  0  0
  2 16  1  0  0  0
  3  4  1  0  0  0
  4  5  1  0  0  0
  4  9  1  0  0  0
  5  6  1  0  0  0
  5  7  2  0  0  0
  6 29  1  0  0  0
  7  8  1  0  0  0
  8  9  2  0  0  0
  8 10  1  0  0  0
  9 17  1  0  0  0
 10 11  2  0  0  0
 10 15  1  0  0  0
 11 12  1  0  0  0
 11 30  1  0  0  0
 12 13  2  0  0  0
 12 31  1  0  0  0
 13 14  1  0  0  0
 13 19  1  0  0  0
 14 15  2  0  0  0
 14 32  1  0  0  0
 15 33  1  0  0  0
 17 18  1  0  0  0
 17 34  1  0  0  0
 17 35  1  0  0  0
 18 20  1  0  0  0
 18 36  1  0  0  0
 19 37  1  0  0  0
 19 38  1  0  0  0
 19 39  1  0  0  0
 20 21  2  0  0  0
 20 22  1  0  0  0
 22 23  2  0  0  0
 22 27  1  0  0  0
 23 24  1  0  0  0
 23 40  1  0  0  0
 24 25  2  0  0  0
 24 41  1  0  0  0
 25 26  1  0  0  0
 25 42  1  0  0  0
 26 27  2  0  0  0
 26 43  1  0  0  0
 27 44  1  0  0  0
M  END
>  <Name>
4-GBLD_322

>  <Family>
I

>  <IC50_uM>
0.008200

>  <set>
0

$$$$
4-GBLD_331
  Cerius2 12180215283D 1   1.00000                          
 Structure written by MMmdl.
 41 44  0  0  0  0  0  0  0  0999 V2000
   -3.5775    3.6741    2.9272 C   0  0  0  0  0  0
   -3.8956    2.2317    2.8160 C   0  0  0  0  0  0
   -3.1808    1.3314    2.2121 N   0  0  0  0  0  0
   -2.0413    1.8476    1.6542 N   0  0  0  0  0  0
   -1.6203    3.1702    1.6800 C   0  0  0  0  0  0
   -2.4461    4.0992    2.3521 C   0  0  0  0  0  0
   -0.4767    3.3294    1.0461 N   0  0  0  0  0  0
   -0.1327    2.0693    0.6099 C   0  0  0  0  0  0
   -1.0985    1.1361    0.9480 C   0  0  0  0  0  0
    1.0851    1.8138   -0.1339 C   0  0  0  0  0  0
    2.0225    0.8742    0.3137 C   0  0  0  0  0  0
    3.1968    0.6500   -0.4091 C   0  0  0  0  0  0
    3.4440    1.3660   -1.5796 C   0  0  0  0  0  0
    2.5223    2.3122   -2.0253 C   0  0  0  0  0  0
    1.3490    2.5397   -1.3021 C   0  0  0  0  0  0
   -1.2256   -0.3153    0.6798 C   0  0  0  0  0  0
   -1.7528   -0.4796   -0.6628 N   0  0  0  0  0  0
   -1.2213   -1.1643   -1.7235 C   0  0  0  0  0  0
   -1.7355   -1.0946   -2.8402 O   0  0  0  0  0  0
   -0.0184   -2.0045   -1.5380 C   0  0  0  0  0  0
   -0.0117   -3.0520   -0.6096 C   0  0  0  0  0  0
    1.1255   -3.8501   -0.4754 C   0  0  0  0  0  0
    2.2436   -3.6141   -1.2771 C   0  0  0  0  0  0
    2.2266   -2.5862   -2.2210 C   0  0  0  0  0  0
    1.0930   -1.7837   -2.3581 C   0  0  0  0  0  0
   -4.2610    4.3217    3.4595 H   0  0  0  0  0  0
   -4.8368    1.9252    3.3030 H   0  0  0  0  0  0
   -2.1510    5.1416    2.3930 H   0  0  0  0  0  0
    1.8555    0.3155    1.2326 H   0  0  0  0  0  0
    3.9180   -0.0859   -0.0585 H   0  0  0  0  0  0
    4.3583    1.1880   -2.1431 H   0  0  0  0  0  0
    2.7178    2.8757   -2.9357 H   0  0  0  0  0  0
    0.6393    3.2852   -1.6575 H   0  0  0  0  0  0
   -1.9268   -0.8042    1.3627 H   0  0  0  0  0  0
   -0.2591   -0.8070    0.7960 H   0  0  0  0  0  0
   -2.6171    0.0123   -0.8632 H   0  0  0  0  0  0
   -0.8862   -3.2540    0.0048 H   0  0  0  0  0  0
    1.1392   -4.6606    0.2513 H   0  0  0  0  0  0
    3.1296   -4.2381   -1.1704 H   0  0  0  0  0  0
    3.0977   -2.4083   -2.8491 H   0  0  0  0  0  0
    1.0839   -0.9827   -3.0943 H   0  0  0  0  0  0
  1  2  1  0  0  0
  1  6  2  0  0  0
  1 26  1  0  0  0
  2  3  2  0  0  0
  2 27  1  0  0  0
  3  4  1  0  0  0
  4  5  1  0  0  0
  4  9  1  0  0  0
  5  6  1  0  0  0
  5  7  2  0  0  0
  6 28  1  0  0  0
  7  8  1  0  0  0
  8  9  2  0  0  0
  8 10  1  0  0  0
  9 16  1  0  0  0
 10 11  2  0  0  0
 10 15  1  0  0  0
 11 12  1  0  0  0
 11 29  1  0  0  0
 12 13  2  0  0  0
 12 30  1  0  0  0
 13 14  1  0  0  0
 13 31  1  0  0  0
 14 15  2  0  0  0
 14 32  1  0  0  0
 15 33  1  0  0  0
 16 17  1  0  0  0
 16 34  1  0  0  0
 16 35  1  0  0  0
 17 18  1  0  0  0
 17 36  1  0  0  0
 18 19  2  0  0  0
 18 20  1  0  0  0
 20 21  2  0  0  0
 20 25  1  0  0  0
 21 22  1  0  0  0
 21 37  1  0  0  0
 22 23  2  0  0  0
 22 38  1  0  0  0
 23 24  1  0  0  0
 23 39  1  0  0  0
 24 25  2  0  0  0
 24 40  1  0  0  0
 25 41  1  0  0  0
M  END
>  <Name>
4-GBLD_331

>  <Family>
I

>  <IC50_uM>
0.214000

>  <set>
2

$$$$
2-40
  Cerius2 12180215283D 1   1.00000                          
 Structure written by MMmdl.
 13 13  0  0  0  0  0  0  0  0999 V2000
   -1.7203    0.7245    0.0225 C   0  0  0  0  0  0
   -1.7071   -0.6594   -0.0548 C   0  0  0  0  0  0
   -0.5742   -1.4000   -0.0671 N   0  0  0  0  0  0
    0.5987   -0.7117    0.0018 C   0  0  0  0  0  0
    0.6826    0.6716    0.0816 C   0  0  0  0  0  0
   -0.5045    1.3983    0.0917 C   0  0  0  0  0  0
    1.8470   -1.5161   -0.0111 C   0  0  0  0  0  0
    1.8628   -2.7450   -0.0797 O   0  0  0  0  0  0
   -2.6611    1.2670    0.0287 H   0  0  0  0  0  0
   -2.6389   -1.2183   -0.1103 H   0  0  0  0  0  0
    1.6394    1.1807    0.1348 H   0  0  0  0  0  0
   -0.4824    2.4843    0.1533 H   0  0  0  0  0  0
    2.7859   -0.9396    0.0455 H   0  0  0  0  0  0
  1  2  2  0  0  0
  1  6  1  0  0  0
  1  9  1  0  0  0
  2  3  1  0  0  0
  2 10  1  0  0  0
  3  4  2  0  0  0
  4  5  1  0  0  0
  4  7  1  0  0  0
  5  6  2  0  0  0
  5 11  1  0  0  0
  6 12  1  0  0  0
  7  8  2  0  0  0
  7 13  1  0  0  0
M  END
>  <Name>
2-40

>  <Family>
J

>  <IC50_uM>
>100

>  <set>
1

$$$$
2-41a
  Cerius2 12180215283D 1   1.00000                          
 Structure written by MMmdl.
 13 13  0  0  0  0  0  0  0  0999 V2000
   -1.8690    0.2001   -0.0559 C   0  0  0  0  0  0
   -1.8602   -1.1848    0.0212 C   0  0  0  0  0  0
   -0.7278   -1.9270    0.0905 N   0  0  0  0  0  0
    0.4481   -1.2427    0.0816 C   0  0  0  0  0  0
    0.5317    0.1405    0.0069 C   0  0  0  0  0  0
   -0.6500    0.8754   -0.0632 C   0  0  0  0  0  0
    1.8356    0.8245    0.0014 C   0  0  0  0  0  0
    2.8995    0.2120    0.0615 O   0  0  0  0  0  0
   -2.8083    0.7426   -0.1093 H   0  0  0  0  0  0
   -2.7939   -1.7437    0.0291 H   0  0  0  0  0  0
    1.3427   -1.8586    0.1380 H   0  0  0  0  0  0
   -0.6350    1.9609   -0.1231 H   0  0  0  0  0  0
    1.8099    1.9259   -0.0601 H   0  0  0  0  0  0
  1  2  2  0  0  0
  1  6  1  0  0  0
  1  9  1  0  0  0
  2  3  1  0  0  0
  2 10  1  0  0  0
  3  4  2  0  0  0
  4  5  1  0  0  0
  4 11  1  0  0  0
  5  6  2  0  0  0
  5  7  1  0  0  0
  6 12  1  0  0  0
  7  8  2  0  0  0
  7 13  1  0  0  0
M  END
>  <Name>
2-41a

>  <Family>
J

>  <IC50_uM>
>100

>  <set>
1

$$$$
2-41b
  Cerius2 12180215283D 1   1.00000                          
 Structure written by MMmdl.
 16 16  0  0  0  0  0  0  0  0999 V2000
   -1.8508    1.2264    0.0418 C   0  0  0  0  0  0
   -1.8401   -0.1589    0.0333 C   0  0  0  0  0  0
   -0.7081   -0.9015    0.0257 N   0  0  0  0  0  0
    0.4694   -0.2196    0.0268 C   0  0  0  0  0  0
    0.5515    1.1677    0.0351 C   0  0  0  0  0  0
   -0.6332    1.8987    0.0427 C   0  0  0  0  0  0
    1.7192   -1.0398    0.0184 C   0  0  0  0  0  0
    2.8347   -0.5129    0.0188 O   0  0  0  0  0  0
    1.5570   -2.5377    0.0094 C   0  0  0  0  0  0
   -2.7905    1.7706    0.0477 H   0  0  0  0  0  0
   -2.7731   -0.7185    0.0324 H   0  0  0  0  0  0
    1.5106    1.6757    0.0357 H   0  0  0  0  0  0
   -0.6069    2.9862    0.0494 H   0  0  0  0  0  0
    2.5454   -3.0075    0.0027 H   0  0  0  0  0  0
    1.0221   -2.8539   -0.8900 H   0  0  0  0  0  0
    1.0287   -2.8653    0.9087 H   0  0  0  0  0  0
  1  2  2  0  0  0
  1  6  1  0  0  0
  1 10  1  0  0  0
  2  3  1  0  0  0
  2 11  1  0  0  0
  3  4  2  0  0  0
  4  5  1  0  0  0
  4  7  1  0  0  0
  5  6  2  0  0  0
  5 12  1  0  0  0
  6 13  1  0  0  0
  7  8  2  0  0  0
  7  9  1  0  0  0
  9 14  1  0  0  0
  9 15  1  0  0  0
  9 16  1  0  0  0
M  END
>  <Name>
2-41b

>  <Family>
J

>  <IC50_uM>
>100

>  <set>
2

$$$$
3-5a
  Cerius2 12180215283D 1   1.00000                          
 Structure written by MMmdl.
 21 22  0  0  0  0  0  0  0  0999 V2000
   -0.7386    0.7340    0.6233 C   0  0  0  0  0  0
   -0.8882   -0.5978    0.3289 C   0  0  0  0  0  0
    0.1808   -1.6156    0.2833 C   0  0  0  0  0  0
    1.3793   -1.1054    0.9824 N   0  0  0  0  0  0
    1.7128    0.3268    0.6432 C   0  0  0  0  0  0
    0.5718    1.3220    0.9938 C   0  0  0  0  0  0
   -1.9339    1.3958    0.5494 N   0  0  0  0  0  0
   -2.8055    0.4648    0.2069 C   0  0  0  0  0  0
   -2.2164   -0.7678    0.0602 N   0  0  0  0  0  0
    2.1826    0.4685   -0.8171 C   0  0  0  0  0  0
    2.4102   -0.4426   -1.6046 O   0  0  0  0  0  0
    2.4313    1.7494   -1.1712 O   0  0  0  0  0  0
    0.4168   -1.8647   -0.7567 H   0  0  0  0  0  0
   -0.1447   -2.5370    0.7773 H   0  0  0  0  0  0
    2.1729   -1.6877    0.6928 H   0  0  0  0  0  0
    2.5890    0.5908    1.2494 H   0  0  0  0  0  0
    0.5720    1.4991    2.0764 H   0  0  0  0  0  0
    0.6999    2.2908    0.5013 H   0  0  0  0  0  0
   -3.8682    0.6038    0.0482 H   0  0  0  0  0  0
   -2.6910   -1.6253   -0.2006 H   0  0  0  0  0  0
    2.7674    1.7119   -2.0992 H   0  0  0  0  0  0
  1  2  2  0  0  0
  1  6  1  0  0  0
  1  7  1  0  0  0
  2  3  1  0  0  0
  2  9  1  0  0  0
  3  4  1  0  0  0
  3 13  1  0  0  0
  3 14  1  0  0  0
  4  5  1  0  0  0
  4 15  1  0  0  0
  5  6  1  0  0  0
  5 10  1  0  0  0
  5 16  1  0  0  0
  6 17  1  0  0  0
  6 18  1  0  0  0
  7  8  2  0  0  0
  8  9  1  0  0  0
  8 19  1  0  0  0
  9 20  1  0  0  0
 10 11  2  0  0  0
 10 12  1  0  0  0
 12 21  1  0  0  0
M  END
>  <Name>
3-5a

>  <Family>
K.1

>  <IC50_uM>
>50

>  <set>
2

$$$$
3-7a
  Cerius2 12180215283D 1   1.00000                          
 Structure written by MMmdl.
 31 33  0  0  0  0  0  0  0  0999 V2000
   -1.1275    2.3807    1.0831 C   0  0  0  0  0  0
   -1.1208    1.0083    1.0230 C   0  0  0  0  0  0
    0.0801    0.1377    0.8696 C   0  0  0  0  0  0
    1.2213    0.9485    0.3744 N   0  0  0  0  0  0
    1.3427    2.2551    1.1125 C   0  0  0  0  0  0
    0.1103    3.1847    0.9542 C   0  0  0  0  0  0
   -2.3935    2.8659    1.2659 N   0  0  0  0  0  0
   -3.1530    1.7878    1.3298 C   0  0  0  0  0  0
   -2.4237    0.6316    1.1981 N   0  0  0  0  0  0
    2.5762    3.0142    0.6167 C   0  0  0  0  0  0
    3.1918    2.8261   -0.4256 O   0  0  0  0  0  0
    2.9573    3.9876    1.4770 O   0  0  0  0  0  0
   -0.1451   -1.0685   -0.0329 C   0  0  0  0  0  0
   -0.6312   -0.9300   -1.3459 C   0  0  0  0  0  0
   -0.8281   -2.0497   -2.1572 C   0  0  0  0  0  0
   -0.5388   -3.3230   -1.6719 C   0  0  0  0  0  0
   -0.0506   -3.4786   -0.3763 C   0  0  0  0  0  0
    0.1468   -2.3602    0.4371 C   0  0  0  0  0  0
    0.3484   -0.2234    1.8718 H   0  0  0  0  0  0
    1.0376    1.1746   -0.6067 H   0  0  0  0  0  0
    1.5140    2.0140    2.1703 H   0  0  0  0  0  0
    0.1316    3.9720    1.7161 H   0  0  0  0  0  0
    0.1187    3.6747   -0.0272 H   0  0  0  0  0  0
   -4.2270    1.7638    1.4711 H   0  0  0  0  0  0
   -2.7944   -0.3120    1.2204 H   0  0  0  0  0  0
    3.7545    4.4065    1.0715 H   0  0  0  0  0  0
   -0.8639    0.0570   -1.7444 H   0  0  0  0  0  0
   -1.2078   -1.9265   -3.1701 H   0  0  0  0  0  0
   -0.6921   -4.1952   -2.3048 H   0  0  0  0  0  0
    0.1787   -4.4731    0.0028 H   0  0  0  0  0  0
    0.5330   -2.5048    1.4458 H   0  0  0  0  0  0
  1  2  2  0  0  0
  1  6  1  0  0  0
  1  7  1  0  0  0
  2  3  1  0  0  0
  2  9  1  0  0  0
  3  4  1  0  0  0
  3 13  1  0  0  0
  3 19  1  0  0  0
  4  5  1  0  0  0
  4 20  1  0  0  0
  5  6  1  0  0  0
  5 10  1  0  0  0
  5 21  1  0  0  0
  6 22  1  0  0  0
  6 23  1  0  0  0
  7  8  2  0  0  0
  8  9  1  0  0  0
  8 24  1  0  0  0
  9 25  1  0  0  0
 10 11  2  0  0  0
 10 12  1  0  0  0
 12 26  1  0  0  0
 13 14  2  0  0  0
 13 18  1  0  0  0
 14 15  1  0  0  0
 14 27  1  0  0  0
 15 16  2  0  0  0
 15 28  1  0  0  0
 16 17  1  0  0  0
 16 29  1  0  0  0
 17 18  2  0  0  0
 17 30  1  0  0  0
 18 31  1  0  0  0
M  END
>  <Name>
3-7a

>  <Family>
K.1

>  <IC50_uM>
>50

>  <set>
2

$$$$
3-8a
  Cerius2 12180215283D 1   1.00000                          
 Structure written by MMmdl.
 34 36  0  0  0  0  0  0  0  0999 V2000
   -1.7488    1.8276    1.0722 C   0  0  0  0  0  0
   -1.7466    0.4557    1.0003 C   0  0  0  0  0  0
   -0.5455   -0.4199    0.8815 C   0  0  0  0  0  0
    0.6167    0.3891    0.4346 N   0  0  0  0  0  0
    0.7182    1.6899    1.1870 C   0  0  0  0  0  0
   -0.5039    2.6267    0.9938 C   0  0  0  0  0  0
   -3.0180    2.3176    1.2150 N   0  0  0  0  0  0
   -3.7845    1.2430    1.2425 C   0  0  0  0  0  0
   -3.0567    0.0843    1.1261 N   0  0  0  0  0  0
    1.9714    2.4520    0.7380 C   0  0  0  0  0  0
    2.5805    2.2745   -0.3136 O   0  0  0  0  0  0
    2.3132    3.3845    1.6782 O   0  0  0  0  0  0
   -0.7440   -1.6166   -0.0395 C   0  0  0  0  0  0
   -1.1838   -1.4638   -1.3671 C   0  0  0  0  0  0
   -1.3558   -2.5751   -2.1955 C   0  0  0  0  0  0
   -1.0875   -3.8539   -1.7127 C   0  0  0  0  0  0
   -0.6453   -4.0235   -0.4026 C   0  0  0  0  0  0
   -0.4727   -2.9137    0.4279 C   0  0  0  0  0  0
    3.4724    4.1590    1.3533 C   0  0  0  0  0  0
   -0.3148   -0.7913    1.8893 H   0  0  0  0  0  0
    0.4707    0.6231   -0.5511 H   0  0  0  0  0  0
    0.8510    1.4377    2.2477 H   0  0  0  0  0  0
   -0.5060    3.4074    1.7628 H   0  0  0  0  0  0
   -0.4590    3.1252    0.0177 H   0  0  0  0  0  0
   -4.8629    1.2233    1.3459 H   0  0  0  0  0  0
   -3.4325   -0.8575    1.1271 H   0  0  0  0  0  0
   -1.3992   -0.4723   -1.7640 H   0  0  0  0  0  0
   -1.6995   -2.4409   -3.2198 H   0  0  0  0  0  0
   -1.2214   -4.7196   -2.3590 H   0  0  0  0  0  0
   -0.4323   -5.0224   -0.0254 H   0  0  0  0  0  0
   -0.1220   -3.0691    1.4479 H   0  0  0  0  0  0
    3.6514    4.8600    2.1731 H   0  0  0  0  0  0
    3.3029    4.7312    0.4360 H   0  0  0  0  0  0
    4.3480    3.5106    1.2517 H   0  0  0  0  0  0
  1  2  2  0  0  0
  1  6  1  0  0  0
  1  7  1  0  0  0
  2  3  1  0  0  0
  2  9  1  0  0  0
  3  4  1  0  0  0
  3 13  1  0  0  0
  3 20  1  0  0  0
  4  5  1  0  0  0
  4 21  1  0  0  0
  5  6  1  0  0  0
  5 10  1  0  0  0
  5 22  1  0  0  0
  6 23  1  0  0  0
  6 24  1  0  0  0
  7  8  2  0  0  0
  8  9  1  0  0  0
  8 25  1  0  0  0
  9 26  1  0  0  0
 10 11  2  0  0  0
 10 12  1  0  0  0
 12 19  1  0  0  0
 13 14  2  0  0  0
 13 18  1  0  0  0
 14 15  1  0  0  0
 14 27  1  0  0  0
 15 16  2  0  0  0
 15 28  1  0  0  0
 16 17  1  0  0  0
 16 29  1  0  0  0
 17 18  2  0  0  0
 17 30  1  0  0  0
 18 31  1  0  0  0
 19 32  1  0  0  0
 19 33  1  0  0  0
 19 34  1  0  0  0
M  END
>  <Name>
3-8a

>  <Family>
K.1

>  <IC50_uM>
>50

>  <set>
1

$$$$
3-6a
  Cerius2 12180215283D 1   1.00000                          
 Structure written by MMmdl.
 20 21  0  0  0  0  0  0  0  0999 V2000
   -1.3237    0.9990    1.3356 C   0  0  0  0  0  0
   -1.3491   -0.3135    0.8831 C   0  0  0  0  0  0
   -0.2083   -0.9890    0.4860 C   0  0  0  0  0  0
    0.9770   -0.3319    0.5426 N   0  0  0  0  0  0
    1.0042    0.9629    0.9772 C   0  0  0  0  0  0
   -0.1098    1.6808    1.3976 C   0  0  0  0  0  0
   -2.5905    1.4249    1.6681 N   0  0  0  0  0  0
   -3.3738    0.3951    1.4229 C   0  0  0  0  0  0
   -2.6701   -0.6784    0.9472 N   0  0  0  0  0  0
    2.3443    1.6326    1.0528 C   0  0  0  0  0  0
    2.5822    2.4884    1.9042 O   0  0  0  0  0  0
    3.3215    1.2414    0.1886 O   0  0  0  0  0  0
    2.9956    0.7455   -1.1237 C   0  0  0  0  0  0
   -0.2074   -2.0142    0.1333 H   0  0  0  0  0  0
   -0.0466    2.7024    1.7487 H   0  0  0  0  0  0
   -4.4472    0.3522    1.5635 H   0  0  0  0  0  0
   -3.0624   -1.5764    0.6922 H   0  0  0  0  0  0
    3.7821    1.0819   -1.8054 H   0  0  0  0  0  0
    2.0430    1.1417   -1.4875 H   0  0  0  0  0  0
    2.9983   -0.3474   -1.1130 H   0  0  0  0  0  0
  1  2  2  0  0  0
  1  6  1  0  0  0
  1  7  1  0  0  0
  2  3  1  0  0  0
  2  9  1  0  0  0
  3  4  2  0  0  0
  3 14  1  0  0  0
  4  5  1  0  0  0
  5  6  2  0  0  0
  5 10  1  0  0  0
  6 15  1  0  0  0
  7  8  2  0  0  0
  8  9  1  0  0  0
  8 16  1  0  0  0
  9 17  1  0  0  0
 10 11  2  0  0  0
 10 12  1  0  0  0
 12 13  1  0  0  0
 13 18  1  0  0  0
 13 19  1  0  0  0
 13 20  1  0  0  0
M  END
>  <Name>
3-6a

>  <Family>
K.2

>  <IC50_uM>
>50

>  <set>
1

$$$$
3-6b
  Cerius2 12180215283D 1   1.00000                          
 Structure written by MMmdl.
 30 32  0  0  0  0  0  0  0  0999 V2000
   -1.4488    3.0863    1.0748 C   0  0  0  0  0  0
   -1.4344    1.6980    1.0043 C   0  0  0  0  0  0
   -0.2515    0.9595    0.9934 C   0  0  0  0  0  0
    0.9213    1.6549    1.0311 N   0  0  0  0  0  0
    0.9039    3.0159    1.0964 C   0  0  0  0  0  0
   -0.2479    3.7892    1.1347 C   0  0  0  0  0  0
   -2.7390    3.5680    1.0734 N   0  0  0  0  0  0
   -3.5026    2.5002    0.9879 C   0  0  0  0  0  0
   -2.7632    1.3509    0.9362 N   0  0  0  0  0  0
    2.2265    3.7168    1.1920 C   0  0  0  0  0  0
    2.3372    4.7855    1.7919 O   0  0  0  0  0  0
    3.3259    3.1287    0.6449 O   0  0  0  0  0  0
    3.2162    2.2622   -0.4997 C   0  0  0  0  0  0
   -0.1795   -0.5013    0.9294 C   0  0  0  0  0  0
   -0.9621   -1.3193    1.7630 C   0  0  0  0  0  0
   -0.8813   -2.7136    1.6914 C   0  0  0  0  0  0
   -0.0109   -3.3171    0.7879 C   0  0  0  0  0  0
    0.7821   -2.5283   -0.0404 C   0  0  0  0  0  0
    0.6998   -1.1346    0.0332 C   0  0  0  0  0  0
   -0.2231    4.8693    1.1982 H   0  0  0  0  0  0
   -4.5854    2.4811    0.9559 H   0  0  0  0  0  0
   -3.1387    0.4142    0.8565 H   0  0  0  0  0  0
    4.1039    2.4227   -1.1183 H   0  0  0  0  0  0
    2.3366    2.4923   -1.1079 H   0  0  0  0  0  0
    3.2157    1.2207   -0.1691 H   0  0  0  0  0  0
   -1.6368   -0.8778    2.4959 H   0  0  0  0  0  0
   -1.4966   -3.3273    2.3473 H   0  0  0  0  0  0
    0.0524   -4.4024    0.7326 H   0  0  0  0  0  0
    1.4669   -2.9953   -0.7461 H   0  0  0  0  0  0
    1.3280   -0.5377   -0.6274 H   0  0  0  0  0  0
  1  2  2  0  0  0
  1  6  1  0  0  0
  1  7  1  0  0  0
  2  3  1  0  0  0
  2  9  1  0  0  0
  3  4  2  0  0  0
  3 14  1  0  0  0
  4  5  1  0  0  0
  5  6  2  0  0  0
  5 10  1  0  0  0
  6 20  1  0  0  0
  7  8  2  0  0  0
  8  9  1  0  0  0
  8 21  1  0  0  0
  9 22  1  0  0  0
 10 11  2  0  0  0
 10 12  1  0  0  0
 12 13  1  0  0  0
 13 23  1  0  0  0
 13 24  1  0  0  0
 13 25  1  0  0  0
 14 15  2  0  0  0
 14 19  1  0  0  0
 15 16  1  0  0  0
 15 26  1  0  0  0
 16 17  2  0  0  0
 16 27  1  0  0  0
 17 18  1  0  0  0
 17 28  1  0  0  0
 18 19  2  0  0  0
 18 29  1  0  0  0
 19 30  1  0  0  0
M  END
>  <Name>
3-6b

>  <Family>
K.2

>  <IC50_uM>
10.000000

>  <set>
2

$$$$
3-12a
  Cerius2 12180215283D 1   1.00000                          
 Structure written by MMmdl.
 44 48  0  0  0  0  0  0  0  0999 V2000
    0.7185    1.2109    2.0495 C   0  0  0  0  0  0
   -0.6210    1.0348    2.4727 C   0  0  0  0  0  0
   -0.8923   -0.3448    2.4416 C   0  0  0  0  0  0
    0.2655   -1.0003    2.0047 N   0  0  0  0  0  0
    1.2218   -0.0369    1.7797 C   0  0  0  0  0  0
   -1.6376    1.9267    2.8712 C   0  0  0  0  0  0
   -2.8924    1.4303    3.2353 C   0  0  0  0  0  0
   -3.1461    0.0641    3.2046 C   0  0  0  0  0  0
   -2.1574   -0.8424    2.8090 C   0  0  0  0  0  0
    2.5979   -0.3480    1.3095 C   0  0  0  0  0  0
    3.2004    0.8273    0.6543 N   0  0  0  0  0  0
    3.0017    2.0730    1.4398 C   0  0  0  0  0  0
    1.5383    2.4382    1.8311 C   0  0  0  0  0  0
    0.4706   -2.3795    1.7974 C   0  0  0  0  0  0
    2.5836   -1.6786    0.5483 C   0  0  0  0  0  0
    1.8871   -2.7453    1.3975 C   0  0  0  0  0  0
   -0.4265   -3.1929    2.0048 O   0  0  0  0  0  0
    3.0800    0.9822   -0.7994 C   0  0  0  0  0  0
    1.8271    1.6243   -1.3584 C   0  0  0  0  0  0
    1.8353    2.9833   -1.7189 C   0  0  0  0  0  0
    0.6938    3.5926   -2.2442 C   0  0  0  0  0  0
   -0.4715    2.8517   -2.4226 C   0  0  0  0  0  0
   -0.4932    1.5014   -2.0817 C   0  0  0  0  0  0
    0.6495    0.8906   -1.5587 C   0  0  0  0  0  0
   -1.4511    2.9984    2.8968 H   0  0  0  0  0  0
   -3.6759    2.1208    3.5441 H   0  0  0  0  0  0
   -4.1294   -0.3078    3.4907 H   0  0  0  0  0  0
   -2.3782   -1.9070    2.7896 H   0  0  0  0  0  0
    3.2004   -0.5208    2.2140 H   0  0  0  0  0  0
    3.4781    2.9281    0.9445 H   0  0  0  0  0  0
    3.5672    1.9456    2.3738 H   0  0  0  0  0  0
    1.5496    3.0488    2.7412 H   0  0  0  0  0  0
    1.0752    3.0400    1.0432 H   0  0  0  0  0  0
    3.6071   -1.9963    0.3184 H   0  0  0  0  0  0
    2.0447   -1.5975   -0.4010 H   0  0  0  0  0  0
    1.8446   -3.6814    0.8294 H   0  0  0  0  0  0
    2.4563   -2.9368    2.3147 H   0  0  0  0  0  0
    3.2523    0.0310   -1.3166 H   0  0  0  0  0  0
    3.9370    1.5896   -1.1236 H   0  0  0  0  0  0
    2.7367    3.5812   -1.5868 H   0  0  0  0  0  0
    0.7152    4.6472   -2.5133 H   0  0  0  0  0  0
   -1.3624    3.3255   -2.8301 H   0  0  0  0  0  0
   -1.4020    0.9193   -2.2240 H   0  0  0  0  0  0
    0.6045   -0.1659   -1.3094 H   0  0  0  0  0  0
  1  2  1  0  0  0
  1  5  2  0  0  0
  1 13  1  0  0  0
  2  3  2  0  0  0
  2  6  1  0  0  0
  3  4  1  0  0  0
  3  9  1  0  0  0
  4  5  1  0  0  0
  4 14  1  0  0  0
  5 10  1  0  0  0
  6  7  2  0  0  0
  6 25  1  0  0  0
  7  8  1  0  0  0
  7 26  1  0  0  0
  8  9  2  0  0  0
  8 27  1  0  0  0
  9 28  1  0  0  0
 10 11  1  0  0  0
 10 15  1  0  0  0
 10 29  1  0  0  0
 11 12  1  0  0  0
 11 18  1  0  0  0
 12 13  1  0  0  0
 12 30  1  0  0  0
 12 31  1  0  0  0
 13 32  1  0  0  0
 13 33  1  0  0  0
 14 16  1  0  0  0
 14 17  2  0  0  0
 15 16  1  0  0  0
 15 34  1  0  0  0
 15 35  1  0  0  0
 16 36  1  0  0  0
 16 37  1  0  0  0
 18 19  1  0  0  0
 18 38  1  0  0  0
 18 39  1  0  0  0
 19 20  2  0  0  0
 19 24  1  0  0  0
 20 21  1  0  0  0
 20 40  1  0  0  0
 21 22  2  0  0  0
 21 41  1  0  0  0
 22 23  1  0  0  0
 22 42  1  0  0  0
 23 24  2  0  0  0
 23 43  1  0  0  0
 24 44  1  0  0  0
M  END
>  <Name>
3-12a

>  <Family>
L.1

>  <IC50_uM>
11.200000

>  <set>
1

$$$$
3-12b
  Cerius2 12180215283D 1   1.00000                          
 Structure written by MMmdl.
 50 54  0  0  0  0  0  0  0  0999 V2000
   -0.8113    1.1243    1.9022 C   0  0  0  0  0  0
   -2.1071    1.3465    2.4265 C   0  0  0  0  0  0
   -2.7393    0.0942    2.5253 C   0  0  0  0  0  0
   -1.8424   -0.8782    2.0657 N   0  0  0  0  0  0
   -0.6847   -0.2284    1.7009 C   0  0  0  0  0  0
   -2.8091    2.5045    2.8187 C   0  0  0  0  0  0
   -4.1146    2.3928    3.3050 C   0  0  0  0  0  0
   -4.7265    1.1486    3.4019 C   0  0  0  0  0  0
   -4.0547   -0.0156    3.0156 C   0  0  0  0  0  0
    0.5102   -0.9354    1.1631 C   0  0  0  0  0  0
    1.3543   -0.0053    0.3843 N   0  0  0  0  0  0
    1.5767    1.2771    1.1498 C   0  0  0  0  0  0
    0.2887    2.0670    1.5351 C   0  0  0  0  0  0
   -2.0356   -2.2704    1.9540 C   0  0  0  0  0  0
    0.0690   -2.2499    0.5085 C   0  0  0  0  0  0
   -0.8119   -3.0339    1.4849 C   0  0  0  0  0  0
   -3.0966   -2.7925    2.2870 O   0  0  0  0  0  0
    1.1240    0.1068   -1.0632 C   0  0  0  0  0  0
    0.0363    1.0299   -1.5711 C   0  0  0  0  0  0
    0.3723    2.2762   -2.1280 C   0  0  0  0  0  0
   -0.6153    3.1367   -2.6137 C   0  0  0  0  0  0
   -1.9543    2.7608   -2.5615 C   0  0  0  0  0  0
   -2.3041    1.5210   -2.0337 C   0  0  0  0  0  0
   -1.3156    0.6593   -1.5507 C   0  0  0  0  0  0
    2.6249    2.1989    0.5159 C   0  0  0  0  0  0
    2.4988    3.4084    0.3498 O   0  0  0  0  0  0
    3.7612    1.5021    0.2061 O   0  0  0  0  0  0
    4.8035    2.2889   -0.3790 C   0  0  0  0  0  0
   -2.3411    3.4841    2.7450 H   0  0  0  0  0  0
   -4.6548    3.2882    3.6085 H   0  0  0  0  0  0
   -5.7450    1.0774    3.7825 H   0  0  0  0  0  0
   -4.5537   -0.9783    3.0972 H   0  0  0  0  0  0
    1.1170   -1.2227    2.0352 H   0  0  0  0  0  0
    2.0433    0.9794    2.1024 H   0  0  0  0  0  0
    0.5083    2.7249    2.3851 H   0  0  0  0  0  0
   -0.0466    2.7113    0.7161 H   0  0  0  0  0  0
    0.9442   -2.8496    0.2333 H   0  0  0  0  0  0
   -0.5097   -2.0770   -0.4044 H   0  0  0  0  0  0
   -1.1563   -3.9520    0.9957 H   0  0  0  0  0  0
   -0.2366   -3.3240    2.3719 H   0  0  0  0  0  0
    0.9749   -0.8824   -1.5121 H   0  0  0  0  0  0
    2.0703    0.4235   -1.5217 H   0  0  0  0  0  0
    1.4129    2.5916   -2.1922 H   0  0  0  0  0  0
   -0.3366    4.1010   -3.0350 H   0  0  0  0  0  0
   -2.7248    3.4305   -2.9384 H   0  0  0  0  0  0
   -3.3497    1.2200   -1.9990 H   0  0  0  0  0  0
   -1.6219   -0.3060   -1.1578 H   0  0  0  0  0  0
    5.6437    1.6255   -0.6013 H   0  0  0  0  0  0
    5.1413    3.0561    0.3243 H   0  0  0  0  0  0
    4.4603    2.7416   -1.3143 H   0  0  0  0  0  0
  1  2  1  0  0  0
  1  5  2  0  0  0
  1 13  1  0  0  0
  2  3  2  0  0  0
  2  6  1  0  0  0
  3  4  1  0  0  0
  3  9  1  0  0  0
  4  5  1  0  0  0
  4 14  1  0  0  0
  5 10  1  0  0  0
  6  7  2  0  0  0
  6 29  1  0  0  0
  7  8  1  0  0  0
  7 30  1  0  0  0
  8  9  2  0  0  0
  8 31  1  0  0  0
  9 32  1  0  0  0
 10 11  1  0  0  0
 10 15  1  0  0  0
 10 33  1  0  0  0
 11 12  1  0  0  0
 11 18  1  0  0  0
 12 13  1  0  0  0
 12 25  1  0  0  0
 12 34  1  0  0  0
 13 35  1  0  0  0
 13 36  1  0  0  0
 14 16  1  0  0  0
 14 17  2  0  0  0
 15 16  1  0  0  0
 15 37  1  0  0  0
 15 38  1  0  0  0
 16 39  1  0  0  0
 16 40  1  0  0  0
 18 19  1  0  0  0
 18 41  1  0  0  0
 18 42  1  0  0  0
 19 20  2  0  0  0
 19 24  1  0  0  0
 20 21  1  0  0  0
 20 43  1  0  0  0
 21 22  2  0  0  0
 21 44  1  0  0  0
 22 23  1  0  0  0
 22 45  1  0  0  0
 23 24  2  0  0  0
 23 46  1  0  0  0
 24 47  1  0  0  0
 25 26  2  0  0  0
 25 27  1  0  0  0
 27 28  1  0  0  0
 28 48  1  0  0  0
 28 49  1  0  0  0
 28 50  1  0  0  0
M  END
>  <Name>
3-12b

>  <Family>
L.1

>  <IC50_uM>
>50

>  <set>
1

$$$$
3-13a
  Cerius2 12180215283D 1   1.00000                          
 Structure written by MMmdl.
 25 28  0  0  0  0  0  0  0  0999 V2000
    0.9628    1.4110    0.2660 C   0  0  0  0  0  0
   -0.4393    1.3310    0.5270 C   0  0  0  0  0  0
   -0.7709   -0.0247    0.7073 C   0  0  0  0  0  0
    0.4018   -0.7579    0.5601 N   0  0  0  0  0  0
    1.4303    0.1155    0.2965 C   0  0  0  0  0  0
   -1.4616    2.2988    0.6261 C   0  0  0  0  0  0
   -2.7731    1.8979    0.8991 C   0  0  0  0  0  0
   -3.0796    0.5526    1.0740 C   0  0  0  0  0  0
   -2.0889   -0.4296    0.9818 C   0  0  0  0  0  0
    2.7474   -0.2284    0.0886 C   0  0  0  0  0  0
    3.6578    0.7290   -0.1613 N   0  0  0  0  0  0
    3.2183    2.0170   -0.1961 C   0  0  0  0  0  0
    1.8979    2.4246    0.0067 C   0  0  0  0  0  0
    0.6382   -2.1433    0.6403 C   0  0  0  0  0  0
    3.0499   -1.6470    0.1597 C   0  0  0  0  0  0
    2.0703   -2.5373    0.4161 C   0  0  0  0  0  0
   -0.2629   -2.9408    0.8741 O   0  0  0  0  0  0
   -1.2354    3.3548    0.4914 H   0  0  0  0  0  0
   -3.5600    2.6471    0.9750 H   0  0  0  0  0  0
   -4.1070    0.2579    1.2861 H   0  0  0  0  0  0
   -2.3450   -1.4774    1.1212 H   0  0  0  0  0  0
    3.9863    2.7617   -0.4013 H   0  0  0  0  0  0
    1.6223    3.4727   -0.0365 H   0  0  0  0  0  0
    4.0763   -1.9570    0.0015 H   0  0  0  0  0  0
    2.2771   -3.5998    0.4729 H   0  0  0  0  0  0
  1  2  1  0  0  0
  1  5  2  0  0  0
  1 13  1  0  0  0
  2  3  2  0  0  0
  2  6  1  0  0  0
  3  4  1  0  0  0
  3  9  1  0  0  0
  4  5  1  0  0  0
  4 14  1  0  0  0
  5 10  1  0  0  0
  6  7  2  0  0  0
  6 18  1  0  0  0
  7  8  1  0  0  0
  7 19  1  0  0  0
  8  9  2  0  0  0
  8 20  1  0  0  0
  9 21  1  0  0  0
 10 11  2  0  0  0
 10 15  1  0  0  0
 11 12  1  0  0  0
 12 13  2  0  0  0
 12 22  1  0  0  0
 13 23  1  0  0  0
 14 16  1  0  0  0
 14 17  2  0  0  0
 15 16  2  0  0  0
 15 24  1  0  0  0
 16 25  1  0  0  0
M  END
>  <Name>
3-13a

>  <Family>
L.2

>  <IC50_uM>
10.000000

>  <set>
1

$$$$
3-13b
  Cerius2 12180215283D 1   1.00000                          
 Structure written by MMmdl.
 31 34  0  0  0  0  0  0  0  0999 V2000
    0.4075    1.3140    1.6231 C   0  0  0  0  0  0
   -0.9469    1.5671    1.9995 C   0  0  0  0  0  0
   -1.5564    0.3319    2.2857 C   0  0  0  0  0  0
   -0.5970   -0.6558    2.0912 N   0  0  0  0  0  0
    0.5743   -0.0523    1.6940 C   0  0  0  0  0  0
   -1.7118    2.7466    2.1216 C   0  0  0  0  0  0
   -3.0495    2.6680    2.5211 C   0  0  0  0  0  0
   -3.6333    1.4368    2.7992 C   0  0  0  0  0  0
   -2.9013    0.2510    2.6873 C   0  0  0  0  0  0
    1.7564   -0.6996    1.4071 C   0  0  0  0  0  0
    2.8326    0.0066    1.0291 N   0  0  0  0  0  0
    2.6830    1.3627    0.9429 C   0  0  0  0  0  0
    1.5160    2.0800    1.2326 C   0  0  0  0  0  0
   -0.6724   -2.0540    2.2381 C   0  0  0  0  0  0
    1.7358   -2.1452    1.5424 C   0  0  0  0  0  0
    0.6078   -2.7748    1.9281 C   0  0  0  0  0  0
   -1.7051   -2.6126    2.5904 O   0  0  0  0  0  0
    3.9047    2.1138    0.5437 C   0  0  0  0  0  0
    4.8704    2.2071    1.2979 O   0  0  0  0  0  0
    3.9012    2.7152   -0.6774 O   0  0  0  0  0  0
    2.9532    2.3287   -1.6918 C   0  0  0  0  0  0
   -1.2678    3.7168    1.9069 H   0  0  0  0  0  0
   -3.6376    3.5799    2.6147 H   0  0  0  0  0  0
   -4.6771    1.3939    3.1094 H   0  0  0  0  0  0
   -3.3727   -0.7038    2.9087 H   0  0  0  0  0  0
    1.4749    3.1608    1.1602 H   0  0  0  0  0  0
    2.6471   -2.6901    1.3247 H   0  0  0  0  0  0
    0.5745   -3.8531    2.0341 H   0  0  0  0  0  0
    3.3617    2.6371   -2.6583 H   0  0  0  0  0  0
    2.0075    2.8534   -1.5339 H   0  0  0  0  0  0
    2.8103    1.2445   -1.7137 H   0  0  0  0  0  0
  1  2  1  0  0  0
  1  5  2  0  0  0
  1 13  1  0  0  0
  2  3  2  0  0  0
  2  6  1  0  0  0
  3  4  1  0  0  0
  3  9  1  0  0  0
  4  5  1  0  0  0
  4 14  1  0  0  0
  5 10  1  0  0  0
  6  7  2  0  0  0
  6 22  1  0  0  0
  7  8  1  0  0  0
  7 23  1  0  0  0
  8  9  2  0  0  0
  8 24  1  0  0  0
  9 25  1  0  0  0
 10 11  2  0  0  0
 10 15  1  0  0  0
 11 12  1  0  0  0
 12 13  2  0  0  0
 12 18  1  0  0  0
 13 26  1  0  0  0
 14 16  1  0  0  0
 14 17  2  0  0  0
 15 16  2  0  0  0
 15 27  1  0  0  0
 16 28  1  0  0  0
 18 19  2  0  0  0
 18 20  1  0  0  0
 20 21  1  0  0  0
 21 29  1  0  0  0
 21 30  1  0  0  0
 21 31  1  0  0  0
M  END
>  <Name>
3-13b

>  <Family>
L.2

>  <IC50_uM>
0.101000

>  <set>
2

$$$$
5-32
  Cerius2 12180215283D 1   1.00000                          
 Structure written by MMmdl.
 34 37  0  0  0  0  0  0  0  0999 V2000
   -3.6412    0.7381    0.0812 C   0  0  0  0  0  0
   -3.7641   -0.6337    0.2680 C   0  0  0  0  0  0
   -2.6335   -1.4453    0.4040 C   0  0  0  0  0  0
   -1.3658   -0.8387    0.3531 C   0  0  0  0  0  0
   -1.2213    0.5362    0.1633 C   0  0  0  0  0  0
   -2.3780    1.3337    0.0250 C   0  0  0  0  0  0
   -0.0906   -1.3699    0.4413 N   0  0  0  0  0  0
    0.8653   -0.3745    0.3549 C   0  0  0  0  0  0
    0.1773    0.8238    0.1433 C   0  0  0  0  0  0
    2.2588   -0.4048    0.4284 C   0  0  0  0  0  0
    2.9550    0.7426    0.2410 N   0  0  0  0  0  0
    2.2901    1.9015    0.0062 C   0  0  0  0  0  0
    0.9087    2.0087   -0.0311 C   0  0  0  0  0  0
    0.2103   -2.7917    0.4718 C   0  0  0  0  0  0
    1.2471   -3.1675    1.4943 C   0  0  0  0  0  0
    2.6518   -2.7648    1.2552 C   0  0  0  0  0  0
    3.0479   -1.5839    0.7632 C   0  0  0  0  0  0
    0.9914   -3.8690    2.4787 O   0  0  0  0  0  0
    3.1100    3.1465   -0.1576 C   0  0  0  0  0  0
    2.6777    4.2455    0.1874 O   0  0  0  0  0  0
    4.3741    3.0371   -0.6530 O   0  0  0  0  0  0
    4.7203    1.9896   -1.5788 C   0  0  0  0  0  0
   -4.5331    1.3539   -0.0246 H   0  0  0  0  0  0
   -4.7550   -1.0853    0.3074 H   0  0  0  0  0  0
   -2.7541   -2.5163    0.5465 H   0  0  0  0  0  0
   -2.2933    2.4080   -0.1257 H   0  0  0  0  0  0
    0.4158    2.9604   -0.1970 H   0  0  0  0  0  0
    0.5454   -3.0829   -0.5299 H   0  0  0  0  0  0
   -0.7014   -3.3524    0.6941 H   0  0  0  0  0  0
    3.3910   -3.5066    1.5423 H   0  0  0  0  0  0
    4.1216   -1.4297    0.6586 H   0  0  0  0  0  0
    5.4533    2.4006   -2.2789 H   0  0  0  0  0  0
    3.8558    1.6508   -2.1574 H   0  0  0  0  0  0
    5.1907    1.1641   -1.0385 H   0  0  0  0  0  0
  1  2  2  0  0  0
  1  6  1  0  0  0
  1 23  1  0  0  0
  2  3  1  0  0  0
  2 24  1  0  0  0
  3  4  2  0  0  0
  3 25  1  0  0  0
  4  5  1  0  0  0
  4  7  1  0  0  0
  5  6  2  0  0  0
  5  9  1  0  0  0
  6 26  1  0  0  0
  7  8  1  0  0  0
  7 14  1  0  0  0
  8  9  2  0  0  0
  8 10  1  0  0  0
  9 13  1  0  0  0
 10 11  2  0  0  0
 10 17  1  0  0  0
 11 12  1  0  0  0
 12 13  2  0  0  0
 12 19  1  0  0  0
 13 27  1  0  0  0
 14 15  1  0  0  0
 14 28  1  0  0  0
 14 29  1  0  0  0
 15 16  1  0  0  0
 15 18  2  0  0  0
 16 17  2  0  0  0
 16 30  1  0  0  0
 17 31  1  0  0  0
 19 20  2  0  0  0
 19 21  1  0  0  0
 21 22  1  0  0  0
 22 32  1  0  0  0
 22 33  1  0  0  0
 22 34  1  0  0  0
M  END
>  <Name>
5-32

>  <Family>
L.3

>  <IC50_uM>
0.100000

>  <set>
1

$$$$
beta-CMA
  Cerius2 12180215283D 1   1.00000                          
 Structure written by MMmdl.
 28 30  0  0  0  0  0  0  0  0999 V2000
    0.4935   -0.6147    1.0750 C   0  0  0  0  0  0
   -0.8328   -0.9352    1.5060 C   0  0  0  0  0  0
   -0.7327   -1.9855    2.4181 C   0  0  0  0  0  0
    0.6040   -2.2959    2.5380 N   0  0  0  0  0  0
    1.3661   -1.4800    1.7323 C   0  0  0  0  0  0
   -2.1127   -0.4253    1.2033 C   0  0  0  0  0  0
   -3.2389   -0.9821    1.8210 C   0  0  0  0  0  0
   -3.1057   -2.0307    2.7280 C   0  0  0  0  0  0
   -1.8485   -2.5536    3.0447 C   0  0  0  0  0  0
    2.7412   -1.4468    1.5356 C   0  0  0  0  0  0
    3.2590   -0.5367    0.6765 N   0  0  0  0  0  0
    2.4130    0.3232    0.0439 C   0  0  0  0  0  0
    1.0300    0.3273    0.1848 C   0  0  0  0  0  0
    3.0654    1.2818   -0.9006 C   0  0  0  0  0  0
    3.7775    0.8619   -1.8151 O   0  0  0  0  0  0
    2.8751    2.6362   -0.7353 N   0  0  0  0  0  0
    2.2068    3.3057    0.3617 C   0  0  0  0  0  0
    0.9736   -3.0258    3.1350 H   0  0  0  0  0  0
   -2.2300    0.3937    0.4969 H   0  0  0  0  0  0
   -4.2282   -0.5900    1.5887 H   0  0  0  0  0  0
   -3.9941   -2.4510    3.1987 H   0  0  0  0  0  0
   -1.7471   -3.3724    3.7530 H   0  0  0  0  0  0
    3.4306   -2.1182    2.0367 H   0  0  0  0  0  0
    0.4003    1.0133   -0.3692 H   0  0  0  0  0  0
    3.3110    3.2278   -1.4378 H   0  0  0  0  0  0
    1.1372    3.3542    0.1447 H   0  0  0  0  0  0
    2.6062    4.3201    0.4370 H   0  0  0  0  0  0
    2.3792    2.7738    1.3003 H   0  0  0  0  0  0
  1  2  1  0  0  0
  1  5  2  0  0  0
  1 13  1  0  0  0
  2  3  2  0  0  0
  2  6  1  0  0  0
  3  4  1  0  0  0
  3  9  1  0  0  0
  4  5  1  0  0  0
  4 18  1  0  0  0
  5 10  1  0  0  0
  6  7  2  0  0  0
  6 19  1  0  0  0
  7  8  1  0  0  0
  7 20  1  0  0  0
  8  9  2  0  0  0
  8 21  1  0  0  0
  9 22  1  0  0  0
 10 11  2  0  0  0
 10 23  1  0  0  0
 11 12  1  0  0  0
 12 13  2  0  0  0
 12 14  1  0  0  0
 13 24  1  0  0  0
 14 15  2  0  0  0
 14 16  1  0  0  0
 16 17  1  0  0  0
 16 25  1  0  0  0
 17 26  1  0  0  0
 17 27  1  0  0  0
 17 28  1  0  0  0
M  END
>  <Name>
beta-CMA

>  <Family>
M.1

>  <IC50_uM>
0.250000

>  <set>
2

$$$$
DMCM
  Cerius2 12180215283D 1   1.00000                          
 Structure written by MMmdl.
 41 43  0  0  0  0  0  0  0  0999 V2000
    1.0745   -0.4228   -0.1771 C   0  0  0  0  0  0
   -0.2141   -0.9165    0.2632 C   0  0  0  0  0  0
   -0.1137   -2.3018    0.3843 C   0  0  0  0  0  0
    1.1718   -2.6508    0.0537 N   0  0  0  0  0  0
    1.9081   -1.5366   -0.2740 C   0  0  0  0  0  0
   -1.4580   -0.3192    0.5923 C   0  0  0  0  0  0
   -2.5292   -1.1091    1.0356 C   0  0  0  0  0  0
   -2.3904   -2.4985    1.0855 C   0  0  0  0  0  0
   -1.1769   -3.1191    0.7852 C   0  0  0  0  0  0
    3.2413   -1.4572   -0.6378 C   0  0  0  0  0  0
    3.7704   -0.2464   -0.8963 N   0  0  0  0  0  0
    2.9820    0.8697   -0.8174 C   0  0  0  0  0  0
    1.6099    0.8605   -0.4852 C   0  0  0  0  0  0
    0.6855    2.7394    0.9167 C   0  0  0  0  0  0
    0.7713    2.1150   -0.4693 C   0  0  0  0  0  0
   -3.7492   -0.6024    1.4080 O   0  0  0  0  0  0
   -3.7229    0.7210    1.9417 C   0  0  0  0  0  0
   -3.4310   -3.2751    1.5379 O   0  0  0  0  0  0
   -4.0913   -3.9003    0.4305 C   0  0  0  0  0  0
    3.7268    2.1554   -1.1031 C   0  0  0  0  0  0
    3.4228    3.2730   -0.7103 O   0  0  0  0  0  0
    4.8115    1.8798   -1.8811 O   0  0  0  0  0  0
    5.6316    3.0091   -2.2006 C   0  0  0  0  0  0
    1.5323   -3.5963    0.0674 H   0  0  0  0  0  0
   -1.5716    0.7564    0.5079 H   0  0  0  0  0  0
   -1.0595   -4.1944    0.8751 H   0  0  0  0  0  0
    3.8930   -2.3210   -0.7109 H   0  0  0  0  0  0
    0.0615    3.6384    0.8848 H   0  0  0  0  0  0
    1.6747    3.0233    1.2898 H   0  0  0  0  0  0
    0.2461    2.0508    1.6453 H   0  0  0  0  0  0
   -0.2339    1.8739   -0.8300 H   0  0  0  0  0  0
    1.1370    2.8453   -1.1990 H   0  0  0  0  0  0
   -4.6544    0.8725    2.4965 H   0  0  0  0  0  0
   -3.6836    1.4576    1.1324 H   0  0  0  0  0  0
   -2.8948    0.8613    2.6464 H   0  0  0  0  0  0
   -4.9071   -4.5068    0.8321 H   0  0  0  0  0  0
   -3.4161   -4.5651   -0.1187 H   0  0  0  0  0  0
   -4.5221   -3.1493   -0.2399 H   0  0  0  0  0  0
    6.5496    2.6371   -2.6646 H   0  0  0  0  0  0
    5.9072    3.5616   -1.2964 H   0  0  0  0  0  0
    5.1123    3.6565   -2.9142 H   0  0  0  0  0  0
  1  2  1  0  0  0
  1  5  2  0  0  0
  1 13  1  0  0  0
  2  3  2  0  0  0
  2  6  1  0  0  0
  3  4  1  0  0  0
  3  9  1  0  0  0
  4  5  1  0  0  0
  4 24  1  0  0  0
  5 10  1  0  0  0
  6  7  2  0  0  0
  6 25  1  0  0  0
  7  8  1  0  0  0
  7 16  1  0  0  0
  8  9  2  0  0  0
  8 18  1  0  0  0
  9 26  1  0  0  0
 10 11  2  0  0  0
 10 27  1  0  0  0
 11 12  1  0  0  0
 12 13  2  0  0  0
 12 20  1  0  0  0
 13 15  1  0  0  0
 14 15  1  0  0  0
 14 28  1  0  0  0
 14 29  1  0  0  0
 14 30  1  0  0  0
 15 31  1  0  0  0
 15 32  1  0  0  0
 16 17  1  0  0  0
 17 33  1  0  0  0
 17 34  1  0  0  0
 17 35  1  0  0  0
 18 19  1  0  0  0
 19 36  1  0  0  0
 19 37  1  0  0  0
 19 38  1  0  0  0
 20 21  2  0  0  0
 20 22  1  0  0  0
 22 23  1  0  0  0
 23 39  1  0  0  0
 23 40  1  0  0  0
 23 41  1  0  0  0
M  END
>  <Name>
DMCM

>  <Family>
M.1

>  <IC50_uM>
0.009400

>  <set>
2

$$$$
8-2_betaCCM
  Cerius2 12180215283D 1   1.00000                          
 Structure written by MMmdl.
 27 29  0  0  0  0  0  0  0  0999 V2000
    0.4701   -0.5543    1.0250 C   0  0  0  0  0  0
   -0.8526   -0.9189    1.4323 C   0  0  0  0  0  0
   -0.7908   -2.2180    1.9358 C   0  0  0  0  0  0
    0.5197   -2.6308    1.8393 N   0  0  0  0  0  0
    1.3014   -1.6394    1.2904 C   0  0  0  0  0  0
   -2.0999   -0.2602    1.4185 C   0  0  0  0  0  0
   -3.2330   -0.9222    1.9063 C   0  0  0  0  0  0
   -3.1384   -2.2201    2.4028 C   0  0  0  0  0  0
   -1.9140   -2.8943    2.4273 C   0  0  0  0  0  0
    2.6610   -1.6213    1.0130 C   0  0  0  0  0  0
    3.2021   -0.5073    0.4635 N   0  0  0  0  0  0
    2.4027    0.5671    0.1964 C   0  0  0  0  0  0
    1.0349    0.5986    0.4555 C   0  0  0  0  0  0
    3.1159    1.7432   -0.4115 C   0  0  0  0  0  0
    4.3152    1.7665   -0.6632 O   0  0  0  0  0  0
    2.2542    2.7709   -0.6417 O   0  0  0  0  0  0
    2.8538    3.9350   -1.2210 C   0  0  0  0  0  0
    0.8599   -3.5387    2.1322 H   0  0  0  0  0  0
   -2.1871    0.7535    1.0334 H   0  0  0  0  0  0
   -4.1971   -0.4156    1.8966 H   0  0  0  0  0  0
   -4.0314   -2.7190    2.7782 H   0  0  0  0  0  0
   -1.8426   -3.9075    2.8154 H   0  0  0  0  0  0
    3.3219   -2.4580    1.2136 H   0  0  0  0  0  0
    0.4219    1.4642    0.2339 H   0  0  0  0  0  0
    3.2828    3.6959   -2.1989 H   0  0  0  0  0  0
    3.6161    4.3443   -0.5510 H   0  0  0  0  0  0
    2.0709    4.6858   -1.3580 H   0  0  0  0  0  0
  1  2  1  0  0  0
  1  5  2  0  0  0
  1 13  1  0  0  0
  2  3  2  0  0  0
  2  6  1  0  0  0
  3  4  1  0  0  0
  3  9  1  0  0  0
  4  5  1  0  0  0
  4 18  1  0  0  0
  5 10  1  0  0  0
  6  7  2  0  0  0
  6 19  1  0  0  0
  7  8  1  0  0  0
  7 20  1  0  0  0
  8  9  2  0  0  0
  8 21  1  0  0  0
  9 22  1  0  0  0
 10 11  2  0  0  0
 10 23  1  0  0  0
 11 12  1  0  0  0
 12 13  2  0  0  0
 12 14  1  0  0  0
 13 24  1  0  0  0
 14 15  2  0  0  0
 14 16  1  0  0  0
 16 17  1  0  0  0
 17 25  1  0  0  0
 17 26  1  0  0  0
 17 27  1  0  0  0
M  END
>  <Name>
8-2_betaCCM

>  <Family>
M.1

>  <IC50_uM>
0.005000

>  <set>
1

$$$$
8-6
  Cerius2 12180215283D 1   1.00000                          
 Structure written by MMmdl.
 34 36  0  0  0  0  0  0  0  0999 V2000
   -0.0036   -0.4575    1.9644 C   0  0  0  0  0  0
   -1.0303   -0.6771    2.9362 C   0  0  0  0  0  0
   -0.6179   -1.7349    3.7465 C   0  0  0  0  0  0
    0.6140   -2.1455    3.2864 N   0  0  0  0  0  0
    1.0059   -1.3859    2.2079 C   0  0  0  0  0  0
   -2.2762   -0.0711    3.2014 C   0  0  0  0  0  0
   -3.0591   -0.5429    4.2617 C   0  0  0  0  0  0
   -2.6193   -1.6015    5.0530 C   0  0  0  0  0  0
   -1.3887   -2.2190    4.8106 C   0  0  0  0  0  0
    2.1593   -1.4455    1.4370 C   0  0  0  0  0  0
    2.3092   -0.5703    0.4119 N   0  0  0  0  0  0
    1.3364    0.3340    0.1702 C   0  0  0  0  0  0
    0.1631    0.4424    0.9012 C   0  0  0  0  0  0
    1.4733    1.2315   -0.8709 O   0  0  0  0  0  0
    2.7087    1.1703   -1.6001 C   0  0  0  0  0  0
    2.4108    1.6960   -3.0043 C   0  0  0  0  0  0
    3.8041    1.9966   -0.9029 C   0  0  0  0  0  0
    3.4304    3.4504   -0.6409 C   0  0  0  0  0  0
    1.1552   -2.9019    3.6874 H   0  0  0  0  0  0
   -2.6307    0.7564    2.5906 H   0  0  0  0  0  0
   -4.0214   -0.0764    4.4684 H   0  0  0  0  0  0
   -3.2427   -1.9548    5.8738 H   0  0  0  0  0  0
   -1.0476   -3.0453    5.4297 H   0  0  0  0  0  0
    2.9562   -2.1609    1.6102 H   0  0  0  0  0  0
   -0.5850    1.1888    0.6595 H   0  0  0  0  0  0
    3.0500    0.1344   -1.7239 H   0  0  0  0  0  0
    3.3176    1.7403   -3.6150 H   0  0  0  0  0  0
    1.9499    2.6888   -2.9759 H   0  0  0  0  0  0
    1.6897    1.0393   -3.5041 H   0  0  0  0  0  0
    4.7235    1.9630   -1.4992 H   0  0  0  0  0  0
    4.0390    1.5382    0.0650 H   0  0  0  0  0  0
    4.2369    3.9496   -0.0938 H   0  0  0  0  0  0
    2.5205    3.5273   -0.0380 H   0  0  0  0  0  0
    3.2764    3.9996   -1.5742 H   0  0  0  0  0  0
  1  2  1  0  0  0
  1  5  2  0  0  0
  1 13  1  0  0  0
  2  3  2  0  0  0
  2  6  1  0  0  0
  3  4  1  0  0  0
  3  9  1  0  0  0
  4  5  1  0  0  0
  4 19  1  0  0  0
  5 10  1  0  0  0
  6  7  2  0  0  0
  6 20  1  0  0  0
  7  8  1  0  0  0
  7 21  1  0  0  0
  8  9  2  0  0  0
  8 22  1  0  0  0
  9 23  1  0  0  0
 10 11  2  0  0  0
 10 24  1  0  0  0
 11 12  1  0  0  0
 12 13  2  0  0  0
 12 14  1  0  0  0
 13 25  1  0  0  0
 14 15  1  0  0  0
 15 16  1  0  0  0
 15 17  1  0  0  0
 15 26  1  0  0  0
 16 27  1  0  0  0
 16 28  1  0  0  0
 16 29  1  0  0  0
 17 18  1  0  0  0
 17 30  1  0  0  0
 17 31  1  0  0  0
 18 32  1  0  0  0
 18 33  1  0  0  0
 18 34  1  0  0  0
M  END
>  <Name>
8-6

>  <Family>
M.1

>  <IC50_uM>
0.471000

>  <set>
1

$$$$
8-7
  Cerius2 12180215283D 1   1.00000                          
 Structure written by MMmdl.
 34 36  0  0  0  0  0  0  0  0999 V2000
    0.0822   -0.4336    2.6987 C   0  0  0  0  0  0
   -0.9784   -0.5856    3.6467 C   0  0  0  0  0  0
   -0.9193   -1.8917    4.1328 C   0  0  0  0  0  0
    0.1381   -2.5133    3.5054 N   0  0  0  0  0  0
    0.7592   -1.6494    2.6325 C   0  0  0  0  0  0
   -1.9864    0.2708    4.1370 C   0  0  0  0  0  0
   -2.8930   -0.2084    5.0900 C   0  0  0  0  0  0
   -2.8077   -1.5184    5.5555 C   0  0  0  0  0  0
   -1.8180   -2.3868    5.0855 C   0  0  0  0  0  0
    1.8531   -1.8450    1.7997 C   0  0  0  0  0  0
    2.2780   -0.8176    1.0228 N   0  0  0  0  0  0
    1.6254    0.3638    1.0813 C   0  0  0  0  0  0
    0.5304    0.6223    1.8909 C   0  0  0  0  0  0
    2.0519    1.4166    0.2942 O   0  0  0  0  0  0
    3.1689    1.0964   -0.5439 C   0  0  0  0  0  0
    3.5304    2.3339   -1.3799 C   0  0  0  0  0  0
    2.3826    2.7346   -2.3096 C   0  0  0  0  0  0
    4.8017    2.0798   -2.1876 C   0  0  0  0  0  0
    0.4183   -3.4733    3.6654 H   0  0  0  0  0  0
   -2.0634    1.2960    3.7811 H   0  0  0  0  0  0
   -3.6721    0.4512    5.4699 H   0  0  0  0  0  0
   -3.5226   -1.8734    6.2974 H   0  0  0  0  0  0
   -1.7536   -3.4091    5.4503 H   0  0  0  0  0  0
    2.3930   -2.7837    1.7349 H   0  0  0  0  0  0
    0.0481    1.5930    1.8954 H   0  0  0  0  0  0
    2.9162    0.2613   -1.2104 H   0  0  0  0  0  0
    4.0281    0.8203    0.0808 H   0  0  0  0  0  0
    3.7094    3.1749   -0.6978 H   0  0  0  0  0  0
    2.6521    3.6170   -2.8998 H   0  0  0  0  0  0
    1.4801    2.9808   -1.7409 H   0  0  0  0  0  0
    2.1349    1.9255   -3.0052 H   0  0  0  0  0  0
    5.0814    2.9684   -2.7632 H   0  0  0  0  0  0
    4.6677    1.2496   -2.8895 H   0  0  0  0  0  0
    5.6393    1.8331   -1.5268 H   0  0  0  0  0  0
  1  2  1  0  0  0
  1  5  2  0  0  0
  1 13  1  0  0  0
  2  3  2  0  0  0
  2  6  1  0  0  0
  3  4  1  0  0  0
  3  9  1  0  0  0
  4  5  1  0  0  0
  4 19  1  0  0  0
  5 10  1  0  0  0
  6  7  2  0  0  0
  6 20  1  0  0  0
  7  8  1  0  0  0
  7 21  1  0  0  0
  8  9  2  0  0  0
  8 22  1  0  0  0
  9 23  1  0  0  0
 10 11  2  0  0  0
 10 24  1  0  0  0
 11 12  1  0  0  0
 12 13  2  0  0  0
 12 14  1  0  0  0
 13 25  1  0  0  0
 14 15  1  0  0  0
 15 16  1  0  0  0
 15 26  1  0  0  0
 15 27  1  0  0  0
 16 17  1  0  0  0
 16 18  1  0  0  0
 16 28  1  0  0  0
 17 29  1  0  0  0
 17 30  1  0  0  0
 17 31  1  0  0  0
 18 32  1  0  0  0
 18 33  1  0  0  0
 18 34  1  0  0  0
M  END
>  <Name>
8-7

>  <Family>
M.1

>  <IC50_uM>
0.093000

>  <set>
1

$$$$
8-8
  Cerius2 12180215283D 1   1.00000                          
 Structure written by MMmdl.
 37 39  0  0  0  0  0  0  0  0999 V2000
   -0.1396   -0.0810    3.5284 C   0  0  0  0  0  0
   -1.0087   -0.1626    4.6618 C   0  0  0  0  0  0
   -0.8418   -1.4279    5.2248 C   0  0  0  0  0  0
    0.0964   -2.0922    4.4656 N   0  0  0  0  0  0
    0.5335   -1.2969    3.4308 C   0  0  0  0  0  0
   -1.9260    0.7259    5.2607 C   0  0  0  0  0  0
   -2.6399    0.3177    6.3937 C   0  0  0  0  0  0
   -2.4514   -0.9530    6.9322 C   0  0  0  0  0  0
   -1.5474   -1.8515    6.3577 C   0  0  0  0  0  0
    1.4599   -1.5534    2.4285 C   0  0  0  0  0  0
    1.7179   -0.5887    1.5107 N   0  0  0  0  0  0
    1.0681    0.5924    1.5990 C   0  0  0  0  0  0
    0.1371    0.9108    2.5754 C   0  0  0  0  0  0
    1.3249    1.5818    0.6688 O   0  0  0  0  0  0
    2.2540    1.1902   -0.3502 C   0  0  0  0  0  0
    2.4208    2.3774   -1.2991 C   0  0  0  0  0  0
    3.4735    2.1543   -2.3971 C   0  0  0  0  0  0
    3.6644    3.4427   -3.2006 C   0  0  0  0  0  0
    3.0999    1.0094   -3.3391 C   0  0  0  0  0  0
    0.4175   -3.0360    4.6445 H   0  0  0  0  0  0
   -2.0823    1.7211    4.8497 H   0  0  0  0  0  0
   -3.3497    1.0016    6.8572 H   0  0  0  0  0  0
   -3.0164   -1.2528    7.8144 H   0  0  0  0  0  0
   -1.4022   -2.8430    6.7797 H   0  0  0  0  0  0
    1.9940   -2.4932    2.3366 H   0  0  0  0  0  0
   -0.3519    1.8781    2.5954 H   0  0  0  0  0  0
    1.8583    0.3259   -0.8955 H   0  0  0  0  0  0
    3.2234    0.9422    0.0993 H   0  0  0  0  0  0
    2.6938    3.2596   -0.7047 H   0  0  0  0  0  0
    1.4477    2.6188   -1.7470 H   0  0  0  0  0  0
    4.4317    1.9094   -1.9217 H   0  0  0  0  0  0
    4.4387    3.3145   -3.9644 H   0  0  0  0  0  0
    3.9740    4.2661   -2.5483 H   0  0  0  0  0  0
    2.7375    3.7387   -3.7039 H   0  0  0  0  0  0
    3.8331    0.9171   -4.1478 H   0  0  0  0  0  0
    2.1161    1.1724   -3.7922 H   0  0  0  0  0  0
    3.0788    0.0508   -2.8119 H   0  0  0  0  0  0
  1  2  1  0  0  0
  1  5  2  0  0  0
  1 13  1  0  0  0
  2  3  2  0  0  0
  2  6  1  0  0  0
  3  4  1  0  0  0
  3  9  1  0  0  0
  4  5  1  0  0  0
  4 20  1  0  0  0
  5 10  1  0  0  0
  6  7  2  0  0  0
  6 21  1  0  0  0
  7  8  1  0  0  0
  7 22  1  0  0  0
  8  9  2  0  0  0
  8 23  1  0  0  0
  9 24  1  0  0  0
 10 11  2  0  0  0
 10 25  1  0  0  0
 11 12  1  0  0  0
 12 13  2  0  0  0
 12 14  1  0  0  0
 13 26  1  0  0  0
 14 15  1  0  0  0
 15 16  1  0  0  0
 15 27  1  0  0  0
 15 28  1  0  0  0
 16 17  1  0  0  0
 16 29  1  0  0  0
 16 30  1  0  0  0
 17 18  1  0  0  0
 17 19  1  0  0  0
 17 31  1  0  0  0
 18 32  1  0  0  0
 18 33  1  0  0  0
 18 34  1  0  0  0
 19 35  1  0  0  0
 19 36  1  0  0  0
 19 37  1  0  0  0
M  END
>  <Name>
8-8

>  <Family>
M.1

>  <IC50_uM>
0.535000

>  <set>
2

$$$$
8-9
  Cerius2 12180215283D 1   1.00000                          
 Structure written by MMmdl.
 37 39  0  0  0  0  0  0  0  0999 V2000
   -0.3468   -0.5020    2.6766 C   0  0  0  0  0  0
   -1.3553   -0.5318    3.6912 C   0  0  0  0  0  0
   -1.4671   -1.8516    4.1295 C   0  0  0  0  0  0
   -0.5602   -2.5986    3.4101 N   0  0  0  0  0  0
    0.1264   -1.8031    2.5219 C   0  0  0  0  0  0
   -2.1878    0.4447    4.2766 C   0  0  0  0  0  0
   -3.0966    0.0669    5.2724 C   0  0  0  0  0  0
   -3.1837   -1.2593    5.6887 C   0  0  0  0  0  0
   -2.3689   -2.2456    5.1253 C   0  0  0  0  0  0
    1.1164   -2.1283    1.6044 C   0  0  0  0  0  0
    1.6396   -1.1468    0.8289 N   0  0  0  0  0  0
    1.1846    0.1176    0.9720 C   0  0  0  0  0  0
    0.2050    0.5066    1.8723 C   0  0  0  0  0  0
    1.7114    1.1234    0.1843 O   0  0  0  0  0  0
    2.6644    0.6613   -0.7809 C   0  0  0  0  0  0
    3.1740    1.8471   -1.6358 C   0  0  0  0  0  0
    2.0034    2.5165   -2.3760 C   0  0  0  0  0  0
    4.1863    1.3196   -2.6655 C   0  0  0  0  0  0
    3.8610    2.8942   -0.7426 C   0  0  0  0  0  0
   -0.4218   -3.5961    3.5181 H   0  0  0  0  0  0
   -2.1293    1.4840    3.9601 H   0  0  0  0  0  0
   -3.7420    0.8192    5.7241 H   0  0  0  0  0  0
   -3.8971   -1.5337    6.4652 H   0  0  0  0  0  0
   -2.4383   -3.2804    5.4521 H   0  0  0  0  0  0
    1.4978   -3.1353    1.4703 H   0  0  0  0  0  0
   -0.1186    1.5387    1.9435 H   0  0  0  0  0  0
    2.1930   -0.0820   -1.4382 H   0  0  0  0  0  0
    3.5150    0.1954   -0.2653 H   0  0  0  0  0  0
    2.3575    3.3298   -3.0198 H   0  0  0  0  0  0
    1.2755    2.9436   -1.6773 H   0  0  0  0  0  0
    1.4748    1.7962   -3.0104 H   0  0  0  0  0  0
    4.5746    2.1303   -3.2923 H   0  0  0  0  0  0
    3.7260    0.5781   -3.3279 H   0  0  0  0  0  0
    5.0402    0.8421   -2.1721 H   0  0  0  0  0  0
    4.2669    3.7179   -1.3408 H   0  0  0  0  0  0
    4.6909    2.4502   -0.1815 H   0  0  0  0  0  0
    3.1621    3.3270   -0.0183 H   0  0  0  0  0  0
  1  2  1  0  0  0
  1  5  2  0  0  0
  1 13  1  0  0  0
  2  3  2  0  0  0
  2  6  1  0  0  0
  3  4  1  0  0  0
  3  9  1  0  0  0
  4  5  1  0  0  0
  4 20  1  0  0  0
  5 10  1  0  0  0
  6  7  2  0  0  0
  6 21  1  0  0  0
  7  8  1  0  0  0
  7 22  1  0  0  0
  8  9  2  0  0  0
  8 23  1  0  0  0
  9 24  1  0  0  0
 10 11  2  0  0  0
 10 25  1  0  0  0
 11 12  1  0  0  0
 12 13  2  0  0  0
 12 14  1  0  0  0
 13 26  1  0  0  0
 14 15  1  0  0  0
 15 16  1  0  0  0
 15 27  1  0  0  0
 15 28  1  0  0  0
 16 17  1  0  0  0
 16 18  1  0  0  0
 16 19  1  0  0  0
 17 29  1  0  0  0
 17 30  1  0  0  0
 17 31  1  0  0  0
 18 32  1  0  0  0
 18 33  1  0  0  0
 18 34  1  0  0  0
 19 35  1  0  0  0
 19 36  1  0  0  0
 19 37  1  0  0  0
M  END
>  <Name>
8-9

>  <Family>
M.1

>  <IC50_uM>
0.104000

>  <set>
1

$$$$
8-10
  Cerius2 12180215283D 1   1.00000                          
 Structure written by MMmdl.
 35 38  0  0  0  0  0  0  0  0999 V2000
   -0.6028   -1.7550    1.7021 C   0  0  0  0  0  0
   -1.7504   -2.1672    2.4496 C   0  0  0  0  0  0
   -1.6203   -3.5346    2.6931 C   0  0  0  0  0  0
   -0.4391   -3.9420    2.1127 N   0  0  0  0  0  0
    0.1903   -2.8825    1.5007 C   0  0  0  0  0  0
   -2.8935   -1.5011    2.9395 C   0  0  0  0  0  0
   -3.8593   -2.2237    3.6501 C   0  0  0  0  0  0
   -3.6982   -3.5878    3.8808 C   0  0  0  0  0  0
   -2.5742   -4.2706    3.4067 C   0  0  0  0  0  0
    1.3835   -2.8331    0.7925 C   0  0  0  0  0  0
    1.7933   -1.6466    0.2796 N   0  0  0  0  0  0
    1.0302   -0.5486    0.4736 C   0  0  0  0  0  0
   -0.1662   -0.5309    1.1741 C   0  0  0  0  0  0
    1.4459    0.6639   -0.0379 O   0  0  0  0  0  0
    2.6138    0.5626   -0.8556 C   0  0  0  0  0  0
    2.9105    1.9404   -1.4000 C   0  0  0  0  0  0
    2.1139    2.4828   -2.4195 C   0  0  0  0  0  0
    2.3664    3.7656   -2.9090 C   0  0  0  0  0  0
    3.4137    4.5196   -2.3835 C   0  0  0  0  0  0
    4.2108    3.9910   -1.3696 C   0  0  0  0  0  0
    3.9605    2.7081   -0.8773 C   0  0  0  0  0  0
   -0.0868   -4.8912    2.1292 H   0  0  0  0  0  0
   -3.0309   -0.4358    2.7659 H   0  0  0  0  0  0
   -4.7452   -1.7123    4.0247 H   0  0  0  0  0  0
   -4.4599   -4.1323    4.4376 H   0  0  0  0  0  0
   -2.4518   -5.3359    3.5865 H   0  0  0  0  0  0
    2.0125   -3.7003    0.6223 H   0  0  0  0  0  0
   -0.7342    0.3840    1.2995 H   0  0  0  0  0  0
    2.4459   -0.1221   -1.6977 H   0  0  0  0  0  0
    3.4671    0.2031   -0.2658 H   0  0  0  0  0  0
    1.2861    1.9067   -2.8335 H   0  0  0  0  0  0
    1.7402    4.1793   -3.6977 H   0  0  0  0  0  0
    3.6070    5.5216   -2.7622 H   0  0  0  0  0  0
    5.0268    4.5821   -0.9562 H   0  0  0  0  0  0
    4.5899    2.3146   -0.0796 H   0  0  0  0  0  0
  1  2  1  0  0  0
  1  5  2  0  0  0
  1 13  1  0  0  0
  2  3  2  0  0  0
  2  6  1  0  0  0
  3  4  1  0  0  0
  3  9  1  0  0  0
  4  5  1  0  0  0
  4 22  1  0  0  0
  5 10  1  0  0  0
  6  7  2  0  0  0
  6 23  1  0  0  0
  7  8  1  0  0  0
  7 24  1  0  0  0
  8  9  2  0  0  0
  8 25  1  0  0  0
  9 26  1  0  0  0
 10 11  2  0  0  0
 10 27  1  0  0  0
 11 12  1  0  0  0
 12 13  2  0  0  0
 12 14  1  0  0  0
 13 28  1  0  0  0
 14 15  1  0  0  0
 15 16  1  0  0  0
 15 29  1  0  0  0
 15 30  1  0  0  0
 16 17  2  0  0  0
 16 21  1  0  0  0
 17 18  1  0  0  0
 17 31  1  0  0  0
 18 19  2  0  0  0
 18 32  1  0  0  0
 19 20  1  0  0  0
 19 33  1  0  0  0
 20 21  2  0  0  0
 20 34  1  0  0  0
 21 35  1  0  0  0
M  END
>  <Name>
8-10

>  <Family>
M.1

>  <IC50_uM>
>1

>  <set>
1

$$$$
8-12
  Cerius2 12180215283D 1   1.00000                          
 Structure written by MMmdl.
 35 37  0  0  0  0  0  0  0  0999 V2000
    0.2902   -0.5641    2.1368 C   0  0  0  0  0  0
   -0.9128   -0.9055    2.8329 C   0  0  0  0  0  0
   -0.8948   -2.2837    3.0459 C   0  0  0  0  0  0
    0.2732   -2.7666    2.4989 N   0  0  0  0  0  0
    1.0077   -1.7438    1.9425 C   0  0  0  0  0  0
   -2.0183   -0.1657    3.3029 C   0  0  0  0  0  0
   -3.0582   -0.8290    3.9654 C   0  0  0  0  0  0
   -3.0098   -2.2067    4.1638 C   0  0  0  0  0  0
   -1.9256   -2.9618    3.7075 C   0  0  0  0  0  0
    2.2372   -1.7743    1.2952 C   0  0  0  0  0  0
    2.7620   -0.6161    0.8302 N   0  0  0  0  0  0
    2.0589    0.5326    1.0133 C   0  0  0  0  0  0
    0.8344    0.6373    1.6585 C   0  0  0  0  0  0
    2.7067    1.7612    0.4930 C   0  0  0  0  0  0
    3.4706    2.3773    1.2425 O   0  0  0  0  0  0
    2.3489    2.2463   -0.9273 C   0  0  0  0  0  0
    1.8137    1.1332   -1.8418 C   0  0  0  0  0  0
    3.6203    2.8284   -1.5705 C   0  0  0  0  0  0
    1.2926    3.3542   -0.8039 C   0  0  0  0  0  0
    0.5523   -3.7403    2.5068 H   0  0  0  0  0  0
   -2.0683    0.9110    3.1548 H   0  0  0  0  0  0
   -3.9130   -0.2603    4.3285 H   0  0  0  0  0  0
   -3.8279   -2.7055    4.6822 H   0  0  0  0  0  0
   -1.8894   -4.0372    3.8636 H   0  0  0  0  0  0
    2.8064   -2.6851    1.1424 H   0  0  0  0  0  0
    0.3311    1.5882    1.7883 H   0  0  0  0  0  0
    1.6300    1.5095   -2.8547 H   0  0  0  0  0  0
    0.8670    0.7232   -1.4734 H   0  0  0  0  0  0
    2.5272    0.3052   -1.9202 H   0  0  0  0  0  0
    3.4249    3.1914   -2.5858 H   0  0  0  0  0  0
    4.4113    2.0718   -1.6280 H   0  0  0  0  0  0
    4.0159    3.6696   -0.9898 H   0  0  0  0  0  0
    1.0627    3.7959   -1.7798 H   0  0  0  0  0  0
    1.6361    4.1586   -0.1435 H   0  0  0  0  0  0
    0.3577    2.9671   -0.3839 H   0  0  0  0  0  0
  1  2  1  0  0  0
  1  5  2  0  0  0
  1 13  1  0  0  0
  2  3  2  0  0  0
  2  6  1  0  0  0
  3  4  1  0  0  0
  3  9  1  0  0  0
  4  5  1  0  0  0
  4 20  1  0  0  0
  5 10  1  0  0  0
  6  7  2  0  0  0
  6 21  1  0  0  0
  7  8  1  0  0  0
  7 22  1  0  0  0
  8  9  2  0  0  0
  8 23  1  0  0  0
  9 24  1  0  0  0
 10 11  2  0  0  0
 10 25  1  0  0  0
 11 12  1  0  0  0
 12 13  2  0  0  0
 12 14  1  0  0  0
 13 26  1  0  0  0
 14 15  2  0  0  0
 14 16  1  0  0  0
 16 17  1  0  0  0
 16 18  1  0  0  0
 16 19  1  0  0  0
 17 27  1  0  0  0
 17 28  1  0  0  0
 17 29  1  0  0  0
 18 30  1  0  0  0
 18 31  1  0  0  0
 18 32  1  0  0  0
 19 33  1  0  0  0
 19 34  1  0  0  0
 19 35  1  0  0  0
M  END
>  <Name>
8-12

>  <Family>
M.1

>  <IC50_uM>
0.358000

>  <set>
1

$$$$
8-14_betaCCE
  Cerius2 12180215283D 1   1.00000                          
 Structure written by MMmdl.
 30 32  0  0  0  0  0  0  0  0999 V2000
    0.4068   -1.1122    1.5949 C   0  0  0  0  0  0
   -0.9094   -1.5297    1.9710 C   0  0  0  0  0  0
   -0.7916   -2.7746    2.5886 C   0  0  0  0  0  0
    0.5458   -3.1043    2.5898 N   0  0  0  0  0  0
    1.2904   -2.1120    1.9931 C   0  0  0  0  0  0
   -2.1935   -0.9605    1.8418 C   0  0  0  0  0  0
   -3.3062   -1.6542    2.3324 C   0  0  0  0  0  0
   -3.1554   -2.8963    2.9443 C   0  0  0  0  0  0
   -1.8937   -3.4817    3.0845 C   0  0  0  0  0  0
    2.6588   -2.0250    1.7789 C   0  0  0  0  0  0
    3.1559   -0.9274    1.1594 N   0  0  0  0  0  0
    2.3046    0.0632    0.7613 C   0  0  0  0  0  0
    0.9259    0.0238    0.9528 C   0  0  0  0  0  0
    2.9719    1.2290    0.0857 C   0  0  0  0  0  0
    4.1797    1.3184   -0.1015 O   0  0  0  0  0  0
    2.0566    2.1636   -0.2872 O   0  0  0  0  0  0
    2.6021    3.3183   -0.9438 C   0  0  0  0  0  0
    1.4564    4.2473   -1.2939 C   0  0  0  0  0  0
    0.9272   -3.9591    2.9767 H   0  0  0  0  0  0
   -2.3246    0.0090    1.3659 H   0  0  0  0  0  0
   -4.2987   -1.2166    2.2337 H   0  0  0  0  0  0
   -4.0334   -3.4211    3.3200 H   0  0  0  0  0  0
   -1.7785   -4.4516    3.5624 H   0  0  0  0  0  0
    3.3602   -2.7949    2.0830 H   0  0  0  0  0  0
    0.2715    0.8238    0.6277 H   0  0  0  0  0  0
    3.1235    3.0102   -1.8568 H   0  0  0  0  0  0
    3.3016    3.8269   -0.2713 H   0  0  0  0  0  0
    1.8228    5.1467   -1.7965 H   0  0  0  0  0  0
    0.9107    4.5433   -0.3918 H   0  0  0  0  0  0
    0.7382    3.7434   -1.9491 H   0  0  0  0  0  0
  1  2  1  0  0  0
  1  5  2  0  0  0
  1 13  1  0  0  0
  2  3  2  0  0  0
  2  6  1  0  0  0
  3  4  1  0  0  0
  3  9  1  0  0  0
  4  5  1  0  0  0
  4 19  1  0  0  0
  5 10  1  0  0  0
  6  7  2  0  0  0
  6 20  1  0  0  0
  7  8  1  0  0  0
  7 21  1  0  0  0
  8  9  2  0  0  0
  8 22  1  0  0  0
  9 23  1  0  0  0
 10 11  2  0  0  0
 10 24  1  0  0  0
 11 12  1  0  0  0
 12 13  2  0  0  0
 12 14  1  0  0  0
 13 25  1  0  0  0
 14 15  2  0  0  0
 14 16  1  0  0  0
 16 17  1  0  0  0
 17 18  1  0  0  0
 17 26  1  0  0  0
 17 27  1  0  0  0
 18 28  1  0  0  0
 18 29  1  0  0  0
 18 30  1  0  0  0
M  END
>  <Name>
8-14_betaCCE

>  <Family>
M.1

>  <IC50_uM>
0.005000

>  <set>
1

$$$$
8-19
  Cerius2 12180215283D 1   1.00000                          
 Structure written by MMmdl.
 39 41  0  0  0  0  0  0  0  0999 V2000
    0.5806   -1.3213    2.7813 C   0  0  0  0  0  0
   -0.7488   -1.5287    3.2689 C   0  0  0  0  0  0
   -0.6813   -2.5065    4.2610 C   0  0  0  0  0  0
    0.6392   -2.8816    4.3747 N   0  0  0  0  0  0
    1.4217   -2.1765    3.4883 C   0  0  0  0  0  0
   -2.0065   -0.9721    2.9557 C   0  0  0  0  0  0
   -3.1440   -1.4120    3.6430 C   0  0  0  0  0  0
   -3.0435   -2.3907    4.6291 C   0  0  0  0  0  0
   -1.8088   -2.9578    4.9578 C   0  0  0  0  0  0
    2.7900   -2.2301    3.2622 C   0  0  0  0  0  0
    3.3299   -1.4211    2.3191 N   0  0  0  0  0  0
    2.5204   -0.5761    1.6154 C   0  0  0  0  0  0
    1.1437   -0.4847    1.8042 C   0  0  0  0  0  0
    3.2317    0.2717    0.5978 C   0  0  0  0  0  0
    4.4398    0.2417    0.3958 O   0  0  0  0  0  0
    2.3520    1.0700   -0.0626 O   0  0  0  0  0  0
    2.9298    1.9254   -1.0631 C   0  0  0  0  0  0
    1.8257    2.7660   -1.7410 C   0  0  0  0  0  0
    0.7944    1.8456   -2.4154 C   0  0  0  0  0  0
    2.4678    3.6711   -2.8038 C   0  0  0  0  0  0
    1.1062    3.6394   -0.6994 C   0  0  0  0  0  0
    0.9853   -3.5796    5.0219 H   0  0  0  0  0  0
   -2.0982   -0.2072    2.1875 H   0  0  0  0  0  0
   -4.1162   -0.9836    3.4030 H   0  0  0  0  0  0
   -3.9402   -2.7203    5.1531 H   0  0  0  0  0  0
   -1.7329   -3.7216    5.7280 H   0  0  0  0  0  0
    3.4586   -2.8905    3.8044 H   0  0  0  0  0  0
    0.5230    0.1953    1.2327 H   0  0  0  0  0  0
    3.4428    1.3051   -1.8088 H   0  0  0  0  0  0
    3.6658    2.5840   -0.5850 H   0  0  0  0  0  0
    0.0266    2.4286   -2.9366 H   0  0  0  0  0  0
    0.2840    1.2079   -1.6853 H   0  0  0  0  0  0
    1.2731    1.1918   -3.1530 H   0  0  0  0  0  0
    1.7146    4.2859   -3.3093 H   0  0  0  0  0  0
    2.9823    3.0790   -3.5690 H   0  0  0  0  0  0
    3.2033    4.3480   -2.3548 H   0  0  0  0  0  0
    0.3472    4.2729   -1.1725 H   0  0  0  0  0  0
    1.8129    4.2976   -0.1817 H   0  0  0  0  0  0
    0.6005    3.0305    0.0580 H   0  0  0  0  0  0
  1  2  1  0  0  0
  1  5  2  0  0  0
  1 13  1  0  0  0
  2  3  2  0  0  0
  2  6  1  0  0  0
  3  4  1  0  0  0
  3  9  1  0  0  0
  4  5  1  0  0  0
  4 22  1  0  0  0
  5 10  1  0  0  0
  6  7  2  0  0  0
  6 23  1  0  0  0
  7  8  1  0  0  0
  7 24  1  0  0  0
  8  9  2  0  0  0
  8 25  1  0  0  0
  9 26  1  0  0  0
 10 11  2  0  0  0
 10 27  1  0  0  0
 11 12  1  0  0  0
 12 13  2  0  0  0
 12 14  1  0  0  0
 13 28  1  0  0  0
 14 15  2  0  0  0
 14 16  1  0  0  0
 16 17  1  0  0  0
 17 18  1  0  0  0
 17 29  1  0  0  0
 17 30  1  0  0  0
 18 19  1  0  0  0
 18 20  1  0  0  0
 18 21  1  0  0  0
 19 31  1  0  0  0
 19 32  1  0  0  0
 19 33  1  0  0  0
 20 34  1  0  0  0
 20 35  1  0  0  0
 20 36  1  0  0  0
 21 37  1  0  0  0
 21 38  1  0  0  0
 21 39  1  0  0  0
M  END
>  <Name>
8-19

>  <Family>
M.1

>  <IC50_uM>
0.750000

>  <set>
0

$$$$
8-20
  Cerius2 12180215283D 1   1.00000                          
 Structure written by MMmdl.
 36 38  0  0  0  0  0  0  0  0999 V2000
    0.3678   -0.9513    2.3006 C   0  0  0  0  0  0
   -0.9803   -1.1119    2.7533 C   0  0  0  0  0  0
   -0.9781   -2.1143    3.7229 C   0  0  0  0  0  0
    0.3221   -2.5488    3.8571 N   0  0  0  0  0  0
    1.1545   -1.8583    3.0055 C   0  0  0  0  0  0
   -2.2054   -0.4942    2.4255 C   0  0  0  0  0  0
   -3.3765   -0.9002    3.0764 C   0  0  0  0  0  0
   -3.3412   -1.9047    4.0407 C   0  0  0  0  0  0
   -2.1399   -2.5322    4.3833 C   0  0  0  0  0  0
    2.5239   -1.9662    2.8086 C   0  0  0  0  0  0
    3.1196   -1.1601    1.8972 N   0  0  0  0  0  0
    2.3648   -0.2643    1.1957 C   0  0  0  0  0  0
    0.9891   -0.1176    1.3567 C   0  0  0  0  0  0
    3.1378    0.5743    0.2142 C   0  0  0  0  0  0
    4.3468    0.4837    0.0472 O   0  0  0  0  0  0
    2.3046    1.4233   -0.4388 O   0  0  0  0  0  0
    2.7881    2.3536   -1.4467 C   0  0  0  0  0  0
    1.5335    3.1042   -1.9174 C   0  0  0  0  0  0
    3.3935    1.6109   -2.6421 C   0  0  0  0  0  0
    3.7677    3.3646   -0.8425 C   0  0  0  0  0  0
    0.6226   -3.2761    4.4947 H   0  0  0  0  0  0
   -2.2464    0.2915    1.6742 H   0  0  0  0  0  0
   -4.3236   -0.4247    2.8250 H   0  0  0  0  0  0
   -4.2631   -2.2072    4.5365 H   0  0  0  0  0  0
   -2.1147   -3.3162    5.1363 H   0  0  0  0  0  0
    3.1509   -2.6673    3.3494 H   0  0  0  0  0  0
    0.4109    0.6013    0.7884 H   0  0  0  0  0  0
    1.7680    3.8457   -2.6884 H   0  0  0  0  0  0
    1.0490    3.6178   -1.0787 H   0  0  0  0  0  0
    0.7910    2.4065   -2.3221 H   0  0  0  0  0  0
    3.6162    2.2965   -3.4667 H   0  0  0  0  0  0
    2.7085    0.8372   -3.0067 H   0  0  0  0  0  0
    4.3257    1.1036   -2.3755 H   0  0  0  0  0  0
    4.0148    4.1571   -1.5571 H   0  0  0  0  0  0
    4.7062    2.8901   -0.5401 H   0  0  0  0  0  0
    3.3453    3.8255    0.0575 H   0  0  0  0  0  0
  1  2  1  0  0  0
  1  5  2  0  0  0
  1 13  1  0  0  0
  2  3  2  0  0  0
  2  6  1  0  0  0
  3  4  1  0  0  0
  3  9  1  0  0  0
  4  5  1  0  0  0
  4 21  1  0  0  0
  5 10  1  0  0  0
  6  7  2  0  0  0
  6 22  1  0  0  0
  7  8  1  0  0  0
  7 23  1  0  0  0
  8  9  2  0  0  0
  8 24  1  0  0  0
  9 25  1  0  0  0
 10 11  2  0  0  0
 10 26  1  0  0  0
 11 12  1  0  0  0
 12 13  2  0  0  0
 12 14  1  0  0  0
 13 27  1  0  0  0
 14 15  2  0  0  0
 14 16  1  0  0  0
 16 17  1  0  0  0
 17 18  1  0  0  0
 17 19  1  0  0  0
 17 20  1  0  0  0
 18 28  1  0  0  0
 18 29  1  0  0  0
 18 30  1  0  0  0
 19 31  1  0  0  0
 19 32  1  0  0  0
 19 33  1  0  0  0
 20 34  1  0  0  0
 20 35  1  0  0  0
 20 36  1  0  0  0
M  END
>  <Name>
8-20

>  <Family>
M.1

>  <IC50_uM>
0.010000

>  <set>
1

$$$$
2-15
  Cerius2 12180215283D 1   1.00000                          
 Structure written by MMmdl.
 34 36  0  0  0  0  0  0  0  0999 V2000
   -4.1073   -1.2107   -0.4956 C   0  0  0  0  0  0
   -3.8200   -2.5269   -0.1552 C   0  0  0  0  0  0
   -2.5263   -2.8980    0.2226 C   0  0  0  0  0  0
   -1.5457   -1.8984    0.2434 C   0  0  0  0  0  0
   -1.8111   -0.5721   -0.0930 C   0  0  0  0  0  0
   -3.1244   -0.2187   -0.4727 C   0  0  0  0  0  0
   -0.2107   -1.9759    0.5698 N   0  0  0  0  0  0
    0.3962   -0.7423    0.4586 C   0  0  0  0  0  0
   -0.5854    0.1555    0.0409 C   0  0  0  0  0  0
    1.7229   -0.3616    0.6945 C   0  0  0  0  0  0
    2.0483    0.9462    0.4874 N   0  0  0  0  0  0
    1.1007    1.8275    0.0684 C   0  0  0  0  0  0
   -0.2286    1.4970   -0.1576 C   0  0  0  0  0  0
   -5.3913   -0.9148   -0.8560 O   0  0  0  0  0  0
    3.5133   -1.9274   -0.0697 C   0  0  0  0  0  0
    2.8200   -1.2952    1.1268 C   0  0  0  0  0  0
    1.5220    3.2558   -0.1130 C   0  0  0  0  0  0
    0.7331    4.1821    0.0706 O   0  0  0  0  0  0
    2.8171    3.5206   -0.4426 O   0  0  0  0  0  0
    3.5976    2.5801   -1.2048 C   0  0  0  0  0  0
   -4.6052   -3.2804   -0.1813 H   0  0  0  0  0  0
   -2.2962   -3.9265    0.4895 H   0  0  0  0  0  0
   -3.3548    0.8089   -0.7399 H   0  0  0  0  0  0
    0.2582   -2.8264    0.8559 H   0  0  0  0  0  0
   -0.9532    2.2369   -0.4787 H   0  0  0  0  0  0
   -5.4413    0.0421   -1.0670 H   0  0  0  0  0  0
    4.3142   -2.5943    0.2648 H   0  0  0  0  0  0
    3.9551   -1.1644   -0.7198 H   0  0  0  0  0  0
    2.8113   -2.5148   -0.6713 H   0  0  0  0  0  0
    2.4119   -2.0762    1.7780 H   0  0  0  0  0  0
    3.5525   -0.7377    1.7222 H   0  0  0  0  0  0
    4.2687    3.1570   -1.8476 H   0  0  0  0  0  0
    2.9724    1.9541   -1.8482 H   0  0  0  0  0  0
    4.2092    1.9777   -0.5282 H   0  0  0  0  0  0
  1  2  2  0  0  0
  1  6  1  0  0  0
  1 14  1  0  0  0
  2  3  1  0  0  0
  2 21  1  0  0  0
  3  4  2  0  0  0
  3 22  1  0  0  0
  4  5  1  0  0  0
  4  7  1  0  0  0
  5  6  2  0  0  0
  5  9  1  0  0  0
  6 23  1  0  0  0
  7  8  1  0  0  0
  7 24  1  0  0  0
  8  9  2  0  0  0
  8 10  1  0  0  0
  9 13  1  0  0  0
 10 11  2  0  0  0
 10 16  1  0  0  0
 11 12  1  0  0  0
 12 13  2  0  0  0
 12 17  1  0  0  0
 13 25  1  0  0  0
 14 26  1  0  0  0
 15 16  1  0  0  0
 15 27  1  0  0  0
 15 28  1  0  0  0
 15 29  1  0  0  0
 16 30  1  0  0  0
 16 31  1  0  0  0
 17 18  2  0  0  0
 17 19  1  0  0  0
 19 20  1  0  0  0
 20 32  1  0  0  0
 20 33  1  0  0  0
 20 34  1  0  0  0
M  END
>  <Name>
2-15

>  <Family>
M.1

>  <IC50_uM>
5.780000

>  <set>
1

$$$$
2-12
  Cerius2 12180215283D 1   1.00000                          
 Structure written by MMmdl.
 33 35  0  0  0  0  0  0  0  0999 V2000
   -3.5645   -0.9141   -0.9174 C   0  0  0  0  0  0
   -3.3906   -2.2658   -0.6299 C   0  0  0  0  0  0
   -2.1374   -2.7697   -0.2698 C   0  0  0  0  0  0
   -1.0683   -1.8675   -0.2097 C   0  0  0  0  0  0
   -1.2094   -0.5105   -0.4914 C   0  0  0  0  0  0
   -2.4842   -0.0260   -0.8521 C   0  0  0  0  0  0
    0.2530   -2.0807    0.1118 N   0  0  0  0  0  0
    0.9726   -0.9053    0.0462 C   0  0  0  0  0  0
    0.0770    0.0958   -0.3308 C   0  0  0  0  0  0
    2.3302   -0.6604    0.2947 C   0  0  0  0  0  0
    2.7734    0.6218    0.1592 N   0  0  0  0  0  0
    1.9049    1.5957   -0.2251 C   0  0  0  0  0  0
    0.5524    1.4069   -0.4699 C   0  0  0  0  0  0
    3.3241   -1.8851    2.2363 C   0  0  0  0  0  0
    3.3234   -1.7047    0.7264 C   0  0  0  0  0  0
    2.4814    2.9666   -0.3266 C   0  0  0  0  0  0
    2.9588    3.5351    0.6530 O   0  0  0  0  0  0
    2.4286    3.5825   -1.5399 O   0  0  0  0  0  0
    2.3206    2.8127   -2.7538 C   0  0  0  0  0  0
   -4.5497   -0.5425   -1.1958 H   0  0  0  0  0  0
   -4.2433   -2.9418   -0.6859 H   0  0  0  0  0  0
   -2.0039   -3.8253   -0.0455 H   0  0  0  0  0  0
   -2.6330    1.0275   -1.0791 H   0  0  0  0  0  0
    0.6408   -2.9816    0.3629 H   0  0  0  0  0  0
   -0.0994    2.2270   -0.7482 H   0  0  0  0  0  0
    4.0625   -2.6389    2.5274 H   0  0  0  0  0  0
    2.3439   -2.2127    2.5986 H   0  0  0  0  0  0
    3.5742   -0.9486    2.7465 H   0  0  0  0  0  0
    4.3249   -1.4082    0.3931 H   0  0  0  0  0  0
    3.0972   -2.6582    0.2361 H   0  0  0  0  0  0
    2.7700    3.4021   -3.5580 H   0  0  0  0  0  0
    1.2668    2.6497   -2.9932 H   0  0  0  0  0  0
    2.8640    1.8661   -2.6820 H   0  0  0  0  0  0
  1  2  2  0  0  0
  1  6  1  0  0  0
  1 20  1  0  0  0
  2  3  1  0  0  0
  2 21  1  0  0  0
  3  4  2  0  0  0
  3 22  1  0  0  0
  4  5  1  0  0  0
  4  7  1  0  0  0
  5  6  2  0  0  0
  5  9  1  0  0  0
  6 23  1  0  0  0
  7  8  1  0  0  0
  7 24  1  0  0  0
  8  9  2  0  0  0
  8 10  1  0  0  0
  9 13  1  0  0  0
 10 11  2  0  0  0
 10 15  1  0  0  0
 11 12  1  0  0  0
 12 13  2  0  0  0
 12 16  1  0  0  0
 13 25  1  0  0  0
 14 15  1  0  0  0
 14 26  1  0  0  0
 14 27  1  0  0  0
 14 28  1  0  0  0
 15 29  1  0  0  0
 15 30  1  0  0  0
 16 17  2  0  0  0
 16 18  1  0  0  0
 18 19  1  0  0  0
 19 31  1  0  0  0
 19 32  1  0  0  0
 19 33  1  0  0  0
M  END
>  <Name>
2-12

>  <Family>
M.1

>  <IC50_uM>
7.540000

>  <set>
2

$$$$
2-12a
  Cerius2 12180215283D 1   1.00000                          
 Structure written by MMmdl.
 37 40  0  0  0  0  0  0  0  0999 V2000
   -4.3680   -1.1538   -2.2891 C   0  0  0  0  0  0
   -4.1897   -2.5149   -2.0536 C   0  0  0  0  0  0
   -3.0157   -2.9962   -1.4668 C   0  0  0  0  0  0
   -2.0313   -2.0612   -1.1249 C   0  0  0  0  0  0
   -2.1793   -0.6942   -1.3464 C   0  0  0  0  0  0
   -3.3720   -0.2332   -1.9420 C   0  0  0  0  0  0
   -0.7957   -2.2472   -0.5486 N   0  0  0  0  0  0
   -0.1448   -1.0432   -0.3712 C   0  0  0  0  0  0
   -0.9863   -0.0544   -0.8816 C   0  0  0  0  0  0
    1.1121   -0.7515    0.1718 C   0  0  0  0  0  0
    1.5219    0.5476    0.1693 N   0  0  0  0  0  0
    0.7082    1.5221   -0.3233 C   0  0  0  0  0  0
   -0.5534    1.2804   -0.8535 C   0  0  0  0  0  0
    2.0311   -1.7477    0.7294 C   0  0  0  0  0  0
    1.2813    2.9101   -0.2530 C   0  0  0  0  0  0
    2.3883    3.1768    0.2000 O   0  0  0  0  0  0
    0.4084    3.8240   -0.7577 O   0  0  0  0  0  0
    0.8764    5.1768   -0.7284 C   0  0  0  0  0  0
    1.6044   -2.7154    1.6561 C   0  0  0  0  0  0
    2.4947   -3.6578    2.1802 C   0  0  0  0  0  0
    3.8319   -3.6462    1.7928 C   0  0  0  0  0  0
    4.2811   -2.6897    0.8868 C   0  0  0  0  0  0
    3.3894   -1.7482    0.3644 C   0  0  0  0  0  0
   -5.2902   -0.8003   -2.7483 H   0  0  0  0  0  0
   -4.9758   -3.2165   -2.3312 H   0  0  0  0  0  0
   -2.8777   -4.0594   -1.2854 H   0  0  0  0  0  0
   -3.5229    0.8273   -2.1323 H   0  0  0  0  0  0
   -0.4163   -3.1503   -0.2932 H   0  0  0  0  0  0
   -1.1818    2.0742   -1.2400 H   0  0  0  0  0  0
    1.7805    5.2802   -1.3363 H   0  0  0  0  0  0
    1.0621    5.4935    0.3025 H   0  0  0  0  0  0
    0.0959    5.8137   -1.1535 H   0  0  0  0  0  0
    0.5693   -2.7360    1.9961 H   0  0  0  0  0  0
    2.1419   -4.3980    2.8965 H   0  0  0  0  0  0
    4.5251   -4.3792    2.2015 H   0  0  0  0  0  0
    5.3270   -2.6731    0.5850 H   0  0  0  0  0  0
    3.7628   -1.0073   -0.3428 H   0  0  0  0  0  0
  1  2  2  0  0  0
  1  6  1  0  0  0
  1 24  1  0  0  0
  2  3  1  0  0  0
  2 25  1  0  0  0
  3  4  2  0  0  0
  3 26  1  0  0  0
  4  5  1  0  0  0
  4  7  1  0  0  0
  5  6  2  0  0  0
  5  9  1  0  0  0
  6 27  1  0  0  0
  7  8  1  0  0  0
  7 28  1  0  0  0
  8  9  2  0  0  0
  8 10  1  0  0  0
  9 13  1  0  0  0
 10 11  2  0  0  0
 10 14  1  0  0  0
 11 12  1  0  0  0
 12 13  2  0  0  0
 12 15  1  0  0  0
 13 29  1  0  0  0
 14 19  2  0  0  0
 14 23  1  0  0  0
 15 16  2  0  0  0
 15 17  1  0  0  0
 17 18  1  0  0  0
 18 30  1  0  0  0
 18 31  1  0  0  0
 18 32  1  0  0  0
 19 20  1  0  0  0
 19 33  1  0  0  0
 20 21  2  0  0  0
 20 34  1  0  0  0
 21 22  1  0  0  0
 21 35  1  0  0  0
 22 23  2  0  0  0
 22 36  1  0  0  0
 23 37  1  0  0  0
M  END
>  <Name>
2-12a

>  <Family>
M.1

>  <IC50_uM>
3.890000

>  <set>
2

$$$$
2-44
  Cerius2 12180215283D 1   1.00000                          
 Structure written by MMmdl.
 23 25  0  0  0  0  0  0  0  0999 V2000
   -3.5832   -0.0334   -1.1359 C   0  0  0  0  0  0
   -3.5285   -1.3951   -0.8481 C   0  0  0  0  0  0
   -2.3480   -1.9875   -0.3903 C   0  0  0  0  0  0
   -1.2270   -1.1634   -0.2326 C   0  0  0  0  0  0
   -1.2494    0.2027   -0.5120 C   0  0  0  0  0  0
   -2.4529    0.7764   -0.9727 C   0  0  0  0  0  0
    0.0454   -1.4718    0.1950 N   0  0  0  0  0  0
    0.8433   -0.3494    0.2003 C   0  0  0  0  0  0
    0.0575    0.7170   -0.2389 C   0  0  0  0  0  0
    2.1752   -0.1716    0.5479 C   0  0  0  0  0  0
    2.7431    1.0533    0.4665 N   0  0  0  0  0  0
    1.9819    2.0883    0.0407 C   0  0  0  0  0  0
    0.6466    1.9888   -0.3235 C   0  0  0  0  0  0
    2.9897   -1.2486    0.9976 C   0  0  0  0  0  0
    3.6758   -2.1590    1.3770 C   0  0  0  0  0  0
   -4.5134    0.4076   -1.4915 H   0  0  0  0  0  0
   -4.4186   -2.0093   -0.9814 H   0  0  0  0  0  0
   -2.3078   -3.0508   -0.1663 H   0  0  0  0  0  0
   -2.5080    1.8387   -1.2009 H   0  0  0  0  0  0
    0.3515   -2.3977    0.4680 H   0  0  0  0  0  0
    2.4877    3.0512   -0.0062 H   0  0  0  0  0  0
    0.0928    2.8601   -0.6570 H   0  0  0  0  0  0
    4.2859   -2.9664    1.7140 H   0  0  0  0  0  0
  1  2  2  0  0  0
  1  6  1  0  0  0
  1 16  1  0  0  0
  2  3  1  0  0  0
  2 17  1  0  0  0
  3  4  2  0  0  0
  3 18  1  0  0  0
  4  5  1  0  0  0
  4  7  1  0  0  0
  5  6  2  0  0  0
  5  9  1  0  0  0
  6 19  1  0  0  0
  7  8  1  0  0  0
  7 20  1  0  0  0
  8  9  2  0  0  0
  8 10  1  0  0  0
  9 13  1  0  0  0
 10 11  2  0  0  0
 10 14  1  0  0  0
 11 12  1  0  0  0
 12 13  2  0  0  0
 12 21  1  0  0  0
 13 22  1  0  0  0
 14 15  3  0  0  0
 15 23  1  0  0  0
M  END
>  <Name>
2-44

>  <Family>
M.1

>  <IC50_uM>
250.000000

>  <set>
2

$$$$
2-42
  Cerius2 12180215283D 1   1.00000                          
 Structure written by MMmdl.
 24 26  0  0  0  0  0  0  0  0999 V2000
   -3.3936   -0.0266   -1.3179 C   0  0  0  0  0  0
   -3.3410   -1.3813   -0.9983 C   0  0  0  0  0  0
   -2.1593   -1.9661   -0.5334 C   0  0  0  0  0  0
   -1.0354   -1.1414   -0.4019 C   0  0  0  0  0  0
   -1.0552    0.2170   -0.7134 C   0  0  0  0  0  0
   -2.2600    0.7834   -1.1805 C   0  0  0  0  0  0
    0.2386   -1.4420    0.0253 N   0  0  0  0  0  0
    1.0425   -0.3219   -0.0003 C   0  0  0  0  0  0
    0.2555    0.7334   -0.4601 C   0  0  0  0  0  0
    2.3902   -0.1663    0.3449 C   0  0  0  0  0  0
    2.9354    1.0783    0.2186 N   0  0  0  0  0  0
    2.1755    2.1064   -0.2278 C   0  0  0  0  0  0
    0.8412    2.0015   -0.5808 C   0  0  0  0  0  0
    3.2644   -1.2747    0.8424 C   0  0  0  0  0  0
   -4.3247    0.4085   -1.6784 H   0  0  0  0  0  0
   -4.2335   -1.9960   -1.1118 H   0  0  0  0  0  0
   -2.1205   -3.0238   -0.2844 H   0  0  0  0  0  0
   -2.3133    1.8402   -1.4333 H   0  0  0  0  0  0
    0.5414   -2.3627    0.3181 H   0  0  0  0  0  0
    2.6846    3.0658   -0.3003 H   0  0  0  0  0  0
    0.2859    2.8644   -0.9321 H   0  0  0  0  0  0
    4.2785   -0.9133    1.0394 H   0  0  0  0  0  0
    3.3226   -2.0726    0.0959 H   0  0  0  0  0  0
    2.8588   -1.6853    1.7720 H   0  0  0  0  0  0
  1  2  2  0  0  0
  1  6  1  0  0  0
  1 15  1  0  0  0
  2  3  1  0  0  0
  2 16  1  0  0  0
  3  4  2  0  0  0
  3 17  1  0  0  0
  4  5  1  0  0  0
  4  7  1  0  0  0
  5  6  2  0  0  0
  5  9  1  0  0  0
  6 18  1  0  0  0
  7  8  1  0  0  0
  7 19  1  0  0  0
  8  9  2  0  0  0
  8 10  1  0  0  0
  9 13  1  0  0  0
 10 11  2  0  0  0
 10 14  1  0  0  0
 11 12  1  0  0  0
 12 13  2  0  0  0
 12 20  1  0  0  0
 13 21  1  0  0  0
 14 22  1  0  0  0
 14 23  1  0  0  0
 14 24  1  0  0  0
M  END
>  <Name>
2-42

>  <Family>
M.1

>  <IC50_uM>
12.400000

>  <set>
1

$$$$
2-4
  Cerius2 12180215283D 1   1.00000                          
 Structure written by MMmdl.
 24 26  0  0  0  0  0  0  0  0999 V2000
   -3.4043   -0.8108   -0.6504 C   0  0  0  0  0  0
   -3.3281   -2.1617   -0.3198 C   0  0  0  0  0  0
   -2.1265   -2.7307    0.1123 C   0  0  0  0  0  0
   -1.0069   -1.8945    0.1997 C   0  0  0  0  0  0
   -1.0506   -0.5386   -0.1240 C   0  0  0  0  0  0
   -2.2750    0.0115   -0.5573 C   0  0  0  0  0  0
    0.2834   -2.1798    0.5885 N   0  0  0  0  0  0
    1.0701   -1.0517    0.5249 C   0  0  0  0  0  0
    0.2620   -0.0070    0.0818 C   0  0  0  0  0  0
    2.4159   -0.8802    0.8218 C   0  0  0  0  0  0
    2.9677    0.3484    0.6762 N   0  0  0  0  0  0
    2.1867    1.3798    0.2429 C   0  0  0  0  0  0
    0.8361    1.2648   -0.0682 C   0  0  0  0  0  0
    2.8369    2.7228    0.0953 C   0  0  0  0  0  0
    2.2891    3.7489   -0.2787 O   0  0  0  0  0  0
    4.1474    2.7045    0.4272 O   0  0  0  0  0  0
   -4.3508   -0.3882   -0.9849 H   0  0  0  0  0  0
   -4.2178   -2.7859   -0.3987 H   0  0  0  0  0  0
   -2.0695   -3.7856    0.3698 H   0  0  0  0  0  0
   -2.3476    1.0651   -0.8185 H   0  0  0  0  0  0
    0.6074   -3.0939    0.8804 H   0  0  0  0  0  0
    3.0570   -1.6842    1.1676 H   0  0  0  0  0  0
    0.2549    2.1140   -0.4096 H   0  0  0  0  0  0
    4.4754    3.6260    0.2962 H   0  0  0  0  0  0
  1  2  2  0  0  0
  1  6  1  0  0  0
  1 17  1  0  0  0
  2  3  1  0  0  0
  2 18  1  0  0  0
  3  4  2  0  0  0
  3 19  1  0  0  0
  4  5  1  0  0  0
  4  7  1  0  0  0
  5  6  2  0  0  0
  5  9  1  0  0  0
  6 20  1  0  0  0
  7  8  1  0  0  0
  7 21  1  0  0  0
  8  9  2  0  0  0
  8 10  1  0  0  0
  9 13  1  0  0  0
 10 11  2  0  0  0
 10 22  1  0  0  0
 11 12  1  0  0  0
 12 13  2  0  0  0
 12 14  1  0  0  0
 13 23  1  0  0  0
 14 15  2  0  0  0
 14 16  1  0  0  0
 16 24  1  0  0  0
M  END
>  <Name>
2-4

>  <Family>
M.1

>  <IC50_uM>
24.000000

>  <set>
1

$$$$
2-27
  Cerius2 12180215283D 1   1.00000                          
 Structure written by MMmdl.
 26 28  0  0  0  0  0  0  0  0999 V2000
   -3.6549   -0.7876   -0.6438 C   0  0  0  0  0  0
   -3.5832   -2.1372   -0.3069 C   0  0  0  0  0  0
   -2.3826   -2.7090    0.1245 C   0  0  0  0  0  0
   -1.2594   -1.8768    0.2049 C   0  0  0  0  0  0
   -1.2987   -0.5222   -0.1251 C   0  0  0  0  0  0
   -2.5222    0.0306   -0.5578 C   0  0  0  0  0  0
    0.0308   -2.1653    0.5915 N   0  0  0  0  0  0
    0.8214   -1.0405    0.5207 C   0  0  0  0  0  0
    0.0164    0.0053    0.0746 C   0  0  0  0  0  0
    2.1683   -0.8717    0.8133 C   0  0  0  0  0  0
    2.7235    0.3549    0.6601 N   0  0  0  0  0  0
    1.9469    1.3836    0.2249 C   0  0  0  0  0  0
    0.5956    1.2739   -0.0827 C   0  0  0  0  0  0
    2.6254    2.7090    0.0784 C   0  0  0  0  0  0
    2.0122    3.7067   -0.3097 O   0  0  0  0  0  0
    4.0903    2.7734    0.4254 C   0  0  0  0  0  0
   -4.6007   -0.3628   -0.9776 H   0  0  0  0  0  0
   -4.4756   -2.7582   -0.3802 H   0  0  0  0  0  0
   -2.3290   -3.7628    0.3868 H   0  0  0  0  0  0
   -2.5911    1.0833   -0.8238 H   0  0  0  0  0  0
    0.3521   -3.0792    0.8869 H   0  0  0  0  0  0
    2.8079   -1.6759    1.1615 H   0  0  0  0  0  0
    0.0166    2.1233   -0.4267 H   0  0  0  0  0  0
    4.4525    3.7948    0.2729 H   0  0  0  0  0  0
    4.6620    2.1072   -0.2261 H   0  0  0  0  0  0
    4.2413    2.5105    1.4757 H   0  0  0  0  0  0
  1  2  2  0  0  0
  1  6  1  0  0  0
  1 17  1  0  0  0
  2  3  1  0  0  0
  2 18  1  0  0  0
  3  4  2  0  0  0
  3 19  1  0  0  0
  4  5  1  0  0  0
  4  7  1  0  0  0
  5  6  2  0  0  0
  5  9  1  0  0  0
  6 20  1  0  0  0
  7  8  1  0  0  0
  7 21  1  0  0  0
  8  9  2  0  0  0
  8 10  1  0  0  0
  9 13  1  0  0  0
 10 11  2  0  0  0
 10 22  1  0  0  0
 11 12  1  0  0  0
 12 13  2  0  0  0
 12 14  1  0  0  0
 13 23  1  0  0  0
 14 15  2  0  0  0
 14 16  1  0  0  0
 16 24  1  0  0  0
 16 25  1  0  0  0
 16 26  1  0  0  0
M  END
>  <Name>
2-27

>  <Family>
M.1

>  <IC50_uM>
0.058000

>  <set>
2

$$$$
2-25
  Cerius2 12180215283D 1   1.00000                          
 Structure written by MMmdl.
 23 25  0  0  0  0  0  0  0  0999 V2000
   -3.0643   -0.5454   -0.7061 C   0  0  0  0  0  0
   -3.0061   -1.8987   -0.3816 C   0  0  0  0  0  0
   -1.8198   -2.4790    0.0767 C   0  0  0  0  0  0
   -0.6966   -1.6515    0.1968 C   0  0  0  0  0  0
   -0.7224   -0.2935   -0.1199 C   0  0  0  0  0  0
   -1.9318    0.2680   -0.5803 C   0  0  0  0  0  0
    0.5815   -1.9486    0.6159 N   0  0  0  0  0  0
    1.3779   -0.8262    0.5786 C   0  0  0  0  0  0
    0.5886    0.2275    0.1214 C   0  0  0  0  0  0
    2.7177   -0.6667    0.9104 C   0  0  0  0  0  0
    3.2823    0.5585    0.7859 N   0  0  0  0  0  0
    2.5162    1.5914    0.3396 C   0  0  0  0  0  0
    1.1747    1.4965   -0.0072 C   0  0  0  0  0  0
    3.1913    2.9103    0.2239 C   0  0  0  0  0  0
    4.3748    3.0955    0.5068 O   0  0  0  0  0  0
   -3.9991   -0.1139   -1.0613 H   0  0  0  0  0  0
   -3.8981   -2.5158   -0.4861 H   0  0  0  0  0  0
   -1.7768   -3.5357    0.3294 H   0  0  0  0  0  0
   -1.9902    1.3236   -0.8370 H   0  0  0  0  0  0
    0.8914   -2.8667    0.9105 H   0  0  0  0  0  0
    3.3436   -1.4778    1.2674 H   0  0  0  0  0  0
    0.6081    2.3512   -0.3579 H   0  0  0  0  0  0
    2.5600    3.7391   -0.1389 H   0  0  0  0  0  0
  1  2  2  0  0  0
  1  6  1  0  0  0
  1 16  1  0  0  0
  2  3  1  0  0  0
  2 17  1  0  0  0
  3  4  2  0  0  0
  3 18  1  0  0  0
  4  5  1  0  0  0
  4  7  1  0  0  0
  5  6  2  0  0  0
  5  9  1  0  0  0
  6 19  1  0  0  0
  7  8  1  0  0  0
  7 20  1  0  0  0
  8  9  2  0  0  0
  8 10  1  0  0  0
  9 13  1  0  0  0
 10 11  2  0  0  0
 10 21  1  0  0  0
 11 12  1  0  0  0
 12 13  2  0  0  0
 12 14  1  0  0  0
 13 22  1  0  0  0
 14 15  2  0  0  0
 14 23  1  0  0  0
M  END
>  <Name>
2-25

>  <Family>
M.1

>  <IC50_uM>
0.062300

>  <set>
1

$$$$
2-9
  Cerius2 12180215283D 1   1.00000                          
 Structure written by MMmdl.
 28 30  0  0  0  0  0  0  0  0999 V2000
   -3.0315   -1.3549   -0.9139 C   0  0  0  0  0  0
   -2.9705   -2.7421   -0.9650 C   0  0  0  0  0  0
   -1.7682   -3.4114   -0.7188 C   0  0  0  0  0  0
   -0.6422   -2.6333   -0.4222 C   0  0  0  0  0  0
   -0.6803   -1.2398   -0.3652 C   0  0  0  0  0  0
   -1.9051   -0.5841   -0.6173 C   0  0  0  0  0  0
    0.6503   -3.0181   -0.1419 N   0  0  0  0  0  0
    1.4437   -1.9181    0.0932 C   0  0  0  0  0  0
    0.6390   -0.7896   -0.0390 C   0  0  0  0  0  0
    2.7928   -1.8381    0.4084 C   0  0  0  0  0  0
    3.3500   -0.6174    0.5952 N   0  0  0  0  0  0
    2.5767    0.5011    0.4701 C   0  0  0  0  0  0
    1.2204    0.4740    0.1555 C   0  0  0  0  0  0
   -4.2371   -0.7636   -1.1647 O   0  0  0  0  0  0
    3.3057    1.7961    0.7007 C   0  0  0  0  0  0
    4.4969    1.8762    0.9774 O   0  0  0  0  0  0
    2.4678    2.8592    0.5615 O   0  0  0  0  0  0
    3.0832    4.1357    0.7663 C   0  0  0  0  0  0
   -3.8639   -3.3187   -1.1985 H   0  0  0  0  0  0
   -1.7154   -4.4967   -0.7575 H   0  0  0  0  0  0
   -1.9587    0.5003   -0.5786 H   0  0  0  0  0  0
    0.9713   -3.9783   -0.1133 H   0  0  0  0  0  0
    3.4330   -2.7075    0.5147 H   0  0  0  0  0  0
    0.6286    1.3768    0.0617 H   0  0  0  0  0  0
   -4.1263    0.2088   -1.0938 H   0  0  0  0  0  0
    3.8777    4.2978    0.0314 H   0  0  0  0  0  0
    3.4744    4.2108    1.7856 H   0  0  0  0  0  0
    2.3189    4.9054    0.6287 H   0  0  0  0  0  0
  1  2  2  0  0  0
  1  6  1  0  0  0
  1 14  1  0  0  0
  2  3  1  0  0  0
  2 19  1  0  0  0
  3  4  2  0  0  0
  3 20  1  0  0  0
  4  5  1  0  0  0
  4  7  1  0  0  0
  5  6  2  0  0  0
  5  9  1  0  0  0
  6 21  1  0  0  0
  7  8  1  0  0  0
  7 22  1  0  0  0
  8  9  2  0  0  0
  8 10  1  0  0  0
  9 13  1  0  0  0
 10 11  2  0  0  0
 10 23  1  0  0  0
 11 12  1  0  0  0
 12 13  2  0  0  0
 12 15  1  0  0  0
 13 24  1  0  0  0
 14 25  1  0  0  0
 15 16  2  0  0  0
 15 17  1  0  0  0
 17 18  1  0  0  0
 18 26  1  0  0  0
 18 27  1  0  0  0
 18 28  1  0  0  0
M  END
>  <Name>
2-9

>  <Family>
M.1

>  <IC50_uM>
0.002660

>  <set>
1

$$$$
2-5c
  Cerius2 12180215283D 1   1.00000                          
 Structure written by MMmdl.
 33 35  0  0  0  0  0  0  0  0999 V2000
   -3.2004   -2.6867   -0.0842 C   0  0  0  0  0  0
   -3.2069   -3.9994    0.3817 C   0  0  0  0  0  0
   -2.0533   -4.5789    0.9179 C   0  0  0  0  0  0
   -0.8956   -3.7929    0.9686 C   0  0  0  0  0  0
   -0.8566   -2.4763    0.5105 C   0  0  0  0  0  0
   -2.0341   -1.9145   -0.0260 C   0  0  0  0  0  0
    0.3629   -4.0991    1.4373 N   0  0  0  0  0  0
    1.2086   -3.0223    1.2949 C   0  0  0  0  0  0
    0.4736   -1.9904    0.7171 C   0  0  0  0  0  0
    2.5486   -2.8857    1.6290 C   0  0  0  0  0  0
    3.1670   -1.7052    1.3848 N   0  0  0  0  0  0
    2.4625   -0.6818    0.8184 C   0  0  0  0  0  0
    1.1183   -0.7683    0.4654 C   0  0  0  0  0  0
    3.2549    0.5766    0.5961 C   0  0  0  0  0  0
    4.4363    0.7091    0.8933 O   0  0  0  0  0  0
    2.4851    1.5408    0.0232 O   0  0  0  0  0  0
    2.1591    3.7382   -0.8729 C   0  0  0  0  0  0
    3.1582    2.7853   -0.2290 C   0  0  0  0  0  0
    2.7816    5.0887   -1.1770 C   0  0  0  0  0  0
   -4.1107   -2.2551   -0.4981 H   0  0  0  0  0  0
   -4.1244   -4.5847    0.3280 H   0  0  0  0  0  0
   -2.0608   -5.6038    1.2810 H   0  0  0  0  0  0
   -2.0421   -0.8904   -0.3932 H   0  0  0  0  0  0
    0.6280   -4.9934    1.8319 H   0  0  0  0  0  0
    3.1349   -3.6796    2.0796 H   0  0  0  0  0  0
    0.5813    0.0592    0.0171 H   0  0  0  0  0  0
    1.2947    3.8670   -0.2106 H   0  0  0  0  0  0
    1.7679    3.2921   -1.7952 H   0  0  0  0  0  0
    4.0046    2.6109   -0.9035 H   0  0  0  0  0  0
    3.5216    3.2000    0.7184 H   0  0  0  0  0  0
    2.0433    5.7516   -1.6389 H   0  0  0  0  0  0
    3.6246    4.9855   -1.8676 H   0  0  0  0  0  0
    3.1436    5.5686   -0.2621 H   0  0  0  0  0  0
  1  2  2  0  0  0
  1  6  1  0  0  0
  1 20  1  0  0  0
  2  3  1  0  0  0
  2 21  1  0  0  0
  3  4  2  0  0  0
  3 22  1  0  0  0
  4  5  1  0  0  0
  4  7  1  0  0  0
  5  6  2  0  0  0
  5  9  1  0  0  0
  6 23  1  0  0  0
  7  8  1  0  0  0
  7 24  1  0  0  0
  8  9  2  0  0  0
  8 10  1  0  0  0
  9 13  1  0  0  0
 10 11  2  0  0  0
 10 25  1  0  0  0
 11 12  1  0  0  0
 12 13  2  0  0  0
 12 14  1  0  0  0
 13 26  1  0  0  0
 14 15  2  0  0  0
 14 16  1  0  0  0
 16 18  1  0  0  0
 17 18  1  0  0  0
 17 19  1  0  0  0
 17 27  1  0  0  0
 17 28  1  0  0  0
 18 29  1  0  0  0
 18 30  1  0  0  0
 19 31  1  0  0  0
 19 32  1  0  0  0
 19 33  1  0  0  0
M  END
>  <Name>
2-5c

>  <Family>
M.1

>  <IC50_uM>
0.001000

>  <set>
2

$$$$
2-5a
  Cerius2 12180215293D 1   1.00000                          
 Structure written by MMmdl.
 30 32  0  0  0  0  0  0  0  0999 V2000
   -3.2501   -1.3175   -0.5629 C   0  0  0  0  0  0
   -3.2303   -2.6639   -0.2142 C   0  0  0  0  0  0
   -2.0540   -3.2737    0.2318 C   0  0  0  0  0  0
   -0.8922   -2.4882    0.3194 C   0  0  0  0  0  0
   -0.8868   -1.1367   -0.0294 C   0  0  0  0  0  0
   -2.0877   -0.5445   -0.4760 C   0  0  0  0  0  0
    0.3911   -2.8076    0.7229 N   0  0  0  0  0  0
    1.2221   -1.7087    0.6219 C   0  0  0  0  0  0
    0.4430   -0.6474    0.1610 C   0  0  0  0  0  0
    2.5791   -1.5539    0.8910 C   0  0  0  0  0  0
    3.1579   -0.3428    0.7079 N   0  0  0  0  0  0
    2.4052    0.7027    0.2625 C   0  0  0  0  0  0
    1.0485    0.6067   -0.0261 C   0  0  0  0  0  0
    3.1576    1.9942    0.0984 C   0  0  0  0  0  0
    4.3520    2.1306    0.3370 O   0  0  0  0  0  0
    2.3369    2.9836   -0.3480 O   0  0  0  0  0  0
    2.9755    4.2518   -0.5324 C   0  0  0  0  0  0
    0.7957   -4.1243    1.1756 C   0  0  0  0  0  0
   -4.1762   -0.8604   -0.9083 H   0  0  0  0  0  0
   -4.1436   -3.2533   -0.2892 H   0  0  0  0  0  0
   -2.0516   -4.3276    0.5001 H   0  0  0  0  0  0
   -2.1149    0.5069   -0.7549 H   0  0  0  0  0  0
    3.2168   -2.3572    1.2446 H   0  0  0  0  0  0
    0.4711    1.4514   -0.3828 H   0  0  0  0  0  0
    2.2234    4.9600   -0.8905 H   0  0  0  0  0  0
    3.7671    4.1739   -1.2840 H   0  0  0  0  0  0
    3.3756    4.6185    0.4178 H   0  0  0  0  0  0
    1.7125   -4.0523    1.7639 H   0  0  0  0  0  0
    0.9573   -4.7494    0.2939 H   0  0  0  0  0  0
    0.0074   -4.5423    1.8067 H   0  0  0  0  0  0
  1  2  2  0  0  0
  1  6  1  0  0  0
  1 19  1  0  0  0
  2  3  1  0  0  0
  2 20  1  0  0  0
  3  4  2  0  0  0
  3 21  1  0  0  0
  4  5  1  0  0  0
  4  7  1  0  0  0
  5  6  2  0  0  0
  5  9  1  0  0  0
  6 22  1  0  0  0
  7  8  1  0  0  0
  7 18  1  0  0  0
  8  9  2  0  0  0
  8 10  1  0  0  0
  9 13  1  0  0  0
 10 11  2  0  0  0
 10 23  1  0  0  0
 11 12  1  0  0  0
 12 13  2  0  0  0
 12 14  1  0  0  0
 13 24  1  0  0  0
 14 15  2  0  0  0
 14 16  1  0  0  0
 16 17  1  0  0  0
 17 25  1  0  0  0
 17 26  1  0  0  0
 17 27  1  0  0  0
 18 28  1  0  0  0
 18 29  1  0  0  0
 18 30  1  0  0  0
M  END
>  <Name>
2-5a

>  <Family>
M.1

>  <IC50_uM>
>50

>  <set>
2

$$$$
2-24
  Cerius2 12180215293D 1   1.00000                          
 Structure written by MMmdl.
 25 27  0  0  0  0  0  0  0  0999 V2000
   -3.2102   -1.1640   -0.7060 C   0  0  0  0  0  0
   -3.1613   -2.5097   -0.3498 C   0  0  0  0  0  0
   -1.9781   -3.0880    0.1193 C   0  0  0  0  0  0
   -0.8485   -2.2664    0.2172 C   0  0  0  0  0  0
   -0.8649   -0.9158   -0.1313 C   0  0  0  0  0  0
   -2.0714   -0.3564   -0.6019 C   0  0  0  0  0  0
    0.4287   -2.5627    0.6402 N   0  0  0  0  0  0
    1.2322   -1.4471    0.5745 C   0  0  0  0  0  0
    0.4507   -0.3998    0.0945 C   0  0  0  0  0  0
    2.5714   -1.2845    0.8990 C   0  0  0  0  0  0
    3.1412   -0.0627    0.7416 N   0  0  0  0  0  0
    2.3996    0.9772    0.2710 C   0  0  0  0  0  0
    1.0505    0.8595   -0.0633 C   0  0  0  0  0  0
    3.0886    2.3153    0.1184 C   0  0  0  0  0  0
    2.5881    3.2446    1.0837 O   0  0  0  0  0  0
   -4.1427   -0.7340   -1.0691 H   0  0  0  0  0  0
   -4.0581   -3.1224   -0.4377 H   0  0  0  0  0  0
   -1.9424   -4.1387    0.3968 H   0  0  0  0  0  0
   -2.1222    0.6934   -0.8831 H   0  0  0  0  0  0
    0.7331   -3.4755    0.9560 H   0  0  0  0  0  0
    3.1960   -2.0878    1.2753 H   0  0  0  0  0  0
    0.4872    1.7122   -0.4296 H   0  0  0  0  0  0
    2.9177    2.7153   -0.8866 H   0  0  0  0  0  0
    4.1670    2.2049    0.2727 H   0  0  0  0  0  0
    3.0975    4.0672    0.9249 H   0  0  0  0  0  0
  1  2  2  0  0  0
  1  6  1  0  0  0
  1 16  1  0  0  0
  2  3  1  0  0  0
  2 17  1  0  0  0
  3  4  2  0  0  0
  3 18  1  0  0  0
  4  5  1  0  0  0
  4  7  1  0  0  0
  5  6  2  0  0  0
  5  9  1  0  0  0
  6 19  1  0  0  0
  7  8  1  0  0  0
  7 20  1  0  0  0
  8  9  2  0  0  0
  8 10  1  0  0  0
  9 13  1  0  0  0
 10 11  2  0  0  0
 10 21  1  0  0  0
 11 12  1  0  0  0
 12 13  2  0  0  0
 12 14  1  0  0  0
 13 22  1  0  0  0
 14 15  1  0  0  0
 14 23  1  0  0  0
 14 24  1  0  0  0
 15 25  1  0  0  0
M  END
>  <Name>
2-24

>  <Family>
M.1

>  <IC50_uM>
1.470000

>  <set>
1

$$$$
2-26
  Cerius2 12180215293D 1   1.00000                          
 Structure written by MMmdl.
 28 30  0  0  0  0  0  0  0  0999 V2000
   -3.2927   -1.1991   -0.2946 C   0  0  0  0  0  0
   -3.2202   -2.5541    0.0199 C   0  0  0  0  0  0
   -2.0154   -3.1359    0.4254 C   0  0  0  0  0  0
   -0.8887   -2.3082    0.5029 C   0  0  0  0  0  0
   -0.9283   -0.9483    0.1946 C   0  0  0  0  0  0
   -2.1563   -0.3855   -0.2120 C   0  0  0  0  0  0
    0.4062   -2.6059    0.8669 N   0  0  0  0  0  0
    1.1985   -1.4824    0.8018 C   0  0  0  0  0  0
    0.3915   -0.4284    0.3838 C   0  0  0  0  0  0
    2.5483   -1.3183    1.0762 C   0  0  0  0  0  0
    3.1025   -0.0879    0.9314 N   0  0  0  0  0  0
    2.3367    0.9633    0.5261 C   0  0  0  0  0  0
    0.9762    0.8396    0.2386 C   0  0  0  0  0  0
    3.0341    2.3065    0.3708 C   0  0  0  0  0  0
    2.2753    3.3409    1.0132 O   0  0  0  0  0  0
    3.2481    2.6677   -1.0950 C   0  0  0  0  0  0
   -4.2418   -0.7666   -0.6082 H   0  0  0  0  0  0
   -4.1154   -3.1714   -0.0505 H   0  0  0  0  0  0
   -1.9612   -4.1939    0.6704 H   0  0  0  0  0  0
   -2.2256    0.6714   -0.4603 H   0  0  0  0  0  0
    0.7294   -3.5249    1.1437 H   0  0  0  0  0  0
    3.1937   -2.1269    1.4026 H   0  0  0  0  0  0
    0.3911    1.6954   -0.0835 H   0  0  0  0  0  0
    4.0042    2.2576    0.8795 H   0  0  0  0  0  0
    2.8178    4.1524    0.9297 H   0  0  0  0  0  0
    3.7860    3.6183   -1.1789 H   0  0  0  0  0  0
    2.2936    2.8025   -1.6162 H   0  0  0  0  0  0
    3.8213    1.8955   -1.6180 H   0  0  0  0  0  0
  1  2  2  0  0  0
  1  6  1  0  0  0
  1 17  1  0  0  0
  2  3  1  0  0  0
  2 18  1  0  0  0
  3  4  2  0  0  0
  3 19  1  0  0  0
  4  5  1  0  0  0
  4  7  1  0  0  0
  5  6  2  0  0  0
  5  9  1  0  0  0
  6 20  1  0  0  0
  7  8  1  0  0  0
  7 21  1  0  0  0
  8  9  2  0  0  0
  8 10  1  0  0  0
  9 13  1  0  0  0
 10 11  2  0  0  0
 10 22  1  0  0  0
 11 12  1  0  0  0
 12 13  2  0  0  0
 12 14  1  0  0  0
 13 23  1  0  0  0
 14 15  1  0  0  0
 14 16  1  0  0  0
 14 24  1  0  0  0
 15 25  1  0  0  0
 16 26  1  0  0  0
 16 27  1  0  0  0
 16 28  1  0  0  0
M  END
>  <Name>
2-26

>  <Family>
M.1

>  <IC50_uM>
3.160000

>  <set>
1

$$$$
5-6
  Cerius2 12180215293D 1   1.00000                          
 Structure written by MMmdl.
 31 33  0  0  0  0  0  0  0  0999 V2000
   -3.2911   -2.3746   -1.9879 C   0  0  0  0  0  0
   -3.1293   -3.6492   -1.4499 C   0  0  0  0  0  0
   -2.0391   -3.9512   -0.6286 C   0  0  0  0  0  0
   -1.1199   -2.9276   -0.3674 C   0  0  0  0  0  0
   -1.2540   -1.6414   -0.8905 C   0  0  0  0  0  0
   -2.3625   -1.3625   -1.7172 C   0  0  0  0  0  0
    0.0276   -2.9405    0.3950 N   0  0  0  0  0  0
    0.6321   -1.7043    0.3814 C   0  0  0  0  0  0
   -0.1465   -0.8694   -0.4168 C   0  0  0  0  0  0
    1.7922   -1.2632    1.0041 C   0  0  0  0  0  0
    2.1804    0.0246    0.8313 N   0  0  0  0  0  0
    1.4304    0.8413    0.0610 C   0  0  0  0  0  0
    0.2669    0.4601   -0.5898 C   0  0  0  0  0  0
    1.8166    2.1542   -0.1291 O   0  0  0  0  0  0
    2.9706    2.5825    0.6094 C   0  0  0  0  0  0
    2.8103    4.0843    0.8349 C   0  0  0  0  0  0
    4.2355    2.3087   -0.1996 C   0  0  0  0  0  0
   -4.1481   -2.1611   -2.6254 H   0  0  0  0  0  0
   -3.8629   -4.4239   -1.6717 H   0  0  0  0  0  0
   -1.9148   -4.9470   -0.2097 H   0  0  0  0  0  0
   -2.5002   -0.3708   -2.1428 H   0  0  0  0  0  0
    0.3757   -3.7484    0.8970 H   0  0  0  0  0  0
    2.4122   -1.8975    1.6285 H   0  0  0  0  0  0
   -0.2943    1.1599   -1.1987 H   0  0  0  0  0  0
    3.0272    2.1084    1.5970 H   0  0  0  0  0  0
    3.6577    4.4960    1.3916 H   0  0  0  0  0  0
    1.8923    4.2884    1.3969 H   0  0  0  0  0  0
    2.7216    4.6193   -0.1173 H   0  0  0  0  0  0
    5.1239    2.6875    0.3151 H   0  0  0  0  0  0
    4.1766    2.7759   -1.1889 H   0  0  0  0  0  0
    4.3692    1.2354   -0.3684 H   0  0  0  0  0  0
  1  2  2  0  0  0
  1  6  1  0  0  0
  1 18  1  0  0  0
  2  3  1  0  0  0
  2 19  1  0  0  0
  3  4  2  0  0  0
  3 20  1  0  0  0
  4  5  1  0  0  0
  4  7  1  0  0  0
  5  6  2  0  0  0
  5  9  1  0  0  0
  6 21  1  0  0  0
  7  8  1  0  0  0
  7 22  1  0  0  0
  8  9  2  0  0  0
  8 10  1  0  0  0
  9 13  1  0  0  0
 10 11  2  0  0  0
 10 23  1  0  0  0
 11 12  1  0  0  0
 12 13  2  0  0  0
 12 14  1  0  0  0
 13 24  1  0  0  0
 14 15  1  0  0  0
 15 16  1  0  0  0
 15 17  1  0  0  0
 15 25  1  0  0  0
 16 26  1  0  0  0
 16 27  1  0  0  0
 16 28  1  0  0  0
 17 29  1  0  0  0
 17 30  1  0  0  0
 17 31  1  0  0  0
M  END
>  <Name>
5-6

>  <Family>
M.1

>  <IC50_uM>
0.500000

>  <set>
1

$$$$
5-7
  Cerius2 12180215293D 1   1.00000                          
 Structure written by MMmdl.
 34 36  0  0  0  0  0  0  0  0999 V2000
   -3.4796   -3.9933   -1.3872 C   0  0  0  0  0  0
   -3.1123   -5.2339   -0.8712 C   0  0  0  0  0  0
   -1.9091   -5.3982   -0.1786 C   0  0  0  0  0  0
   -1.0903   -4.2729   -0.0239 C   0  0  0  0  0  0
   -1.4297   -3.0176   -0.5287 C   0  0  0  0  0  0
   -2.6492   -2.8781   -1.2237 C   0  0  0  0  0  0
    0.1298   -4.1446    0.6029 N   0  0  0  0  0  0
    0.5846   -2.8484    0.5172 C   0  0  0  0  0  0
   -0.3709   -2.1184   -0.1863 C   0  0  0  0  0  0
    1.7515   -2.2710    1.0005 C   0  0  0  0  0  0
    1.9697   -0.9505    0.7809 N   0  0  0  0  0  0
    1.0472   -0.2365    0.0995 C   0  0  0  0  0  0
   -0.1348   -0.7533   -0.4079 C   0  0  0  0  0  0
    1.2615    1.1097   -0.1290 O   0  0  0  0  0  0
    3.9633    5.1841    0.3026 C   0  0  0  0  0  0
    3.8733    3.7030    0.6327 C   0  0  0  0  0  0
    2.5879    3.0860    0.0884 C   0  0  0  0  0  0
    2.4927    1.5977    0.4164 C   0  0  0  0  0  0
   -4.4217   -3.8880   -1.9236 H   0  0  0  0  0  0
   -3.7718   -6.0903   -1.0086 H   0  0  0  0  0  0
   -1.6246   -6.3676    0.2234 H   0  0  0  0  0  0
   -2.9473   -1.9145   -1.6314 H   0  0  0  0  0  0
    0.6226   -4.9004    1.0629 H   0  0  0  0  0  0
    2.5067   -2.8229    1.5499 H   0  0  0  0  0  0
   -0.8380   -0.1296   -0.9478 H   0  0  0  0  0  0
    4.8908    5.6058    0.7022 H   0  0  0  0  0  0
    3.1240    5.7350    0.7389 H   0  0  0  0  0  0
    3.9553    5.3460   -0.7800 H   0  0  0  0  0  0
    3.9169    3.5736    1.7204 H   0  0  0  0  0  0
    4.7426    3.1866    0.2093 H   0  0  0  0  0  0
    2.5320    3.2218   -0.9990 H   0  0  0  0  0  0
    1.7133    3.6048    0.5007 H   0  0  0  0  0  0
    3.3411    1.0687   -0.0354 H   0  0  0  0  0  0
    2.5031    1.4618    1.5050 H   0  0  0  0  0  0
  1  2  2  0  0  0
  1  6  1  0  0  0
  1 19  1  0  0  0
  2  3  1  0  0  0
  2 20  1  0  0  0
  3  4  2  0  0  0
  3 21  1  0  0  0
  4  5  1  0  0  0
  4  7  1  0  0  0
  5  6  2  0  0  0
  5  9  1  0  0  0
  6 22  1  0  0  0
  7  8  1  0  0  0
  7 23  1  0  0  0
  8  9  2  0  0  0
  8 10  1  0  0  0
  9 13  1  0  0  0
 10 11  2  0  0  0
 10 24  1  0  0  0
 11 12  1  0  0  0
 12 13  2  0  0  0
 12 14  1  0  0  0
 13 25  1  0  0  0
 14 18  1  0  0  0
 15 16  1  0  0  0
 15 26  1  0  0  0
 15 27  1  0  0  0
 15 28  1  0  0  0
 16 17  1  0  0  0
 16 29  1  0  0  0
 16 30  1  0  0  0
 17 18  1  0  0  0
 17 31  1  0  0  0
 17 32  1  0  0  0
 18 33  1  0  0  0
 18 34  1  0  0  0
M  END
>  <Name>
5-7

>  <Family>
M.1

>  <IC50_uM>
0.098000

>  <set>
1

$$$$
5-11
  Cerius2 12180215293D 1   1.00000                          
 Structure written by MMmdl.
 32 34  0  0  0  0  0  0  0  0999 V2000
   -3.3248   -2.5517   -0.0311 C   0  0  0  0  0  0
   -3.2158   -3.8648    0.4206 C   0  0  0  0  0  0
   -2.0029   -4.3604    0.9080 C   0  0  0  0  0  0
   -0.9061   -3.4901    0.9248 C   0  0  0  0  0  0
   -0.9828   -2.1706    0.4797 C   0  0  0  0  0  0
   -2.2181   -1.6946   -0.0074 C   0  0  0  0  0  0
    0.3884   -3.7044    1.3439 N   0  0  0  0  0  0
    1.1449   -2.5659    1.1823 C   0  0  0  0  0  0
    0.3143   -1.5876    0.6429 C   0  0  0  0  0  0
    2.4816   -2.3301    1.4681 C   0  0  0  0  0  0
    2.9982   -1.1036    1.2132 N   0  0  0  0  0  0
    2.2002   -0.1313    0.6842 C   0  0  0  0  0  0
    0.8556   -0.3174    0.3805 C   0  0  0  0  0  0
    2.8942    1.1850    0.4482 C   0  0  0  0  0  0
    4.0888    1.3124    0.7361 O   0  0  0  0  0  0
    2.0835    2.3286   -0.1464 C   0  0  0  0  0  0
    2.9158    3.5971   -0.3343 C   0  0  0  0  0  0
    2.0877    4.7242   -0.9301 C   0  0  0  0  0  0
   -4.2796   -2.1863   -0.4067 H   0  0  0  0  0  0
   -4.0884   -4.5169    0.3943 H   0  0  0  0  0  0
   -1.9202   -5.3858    1.2600 H   0  0  0  0  0  0
   -2.3164   -0.6711   -0.3630 H   0  0  0  0  0  0
    0.7343   -4.5794    1.7189 H   0  0  0  0  0  0
    3.1436   -3.0798    1.8884 H   0  0  0  0  0  0
    0.2328    0.4623   -0.0387 H   0  0  0  0  0  0
    1.2462    2.5466    0.5261 H   0  0  0  0  0  0
    1.6944    2.0088   -1.1197 H   0  0  0  0  0  0
    3.7699    3.3902   -0.9902 H   0  0  0  0  0  0
    3.3268    3.9207    0.6294 H   0  0  0  0  0  0
    2.7024    5.6210   -1.0551 H   0  0  0  0  0  0
    1.2448    4.9780   -0.2794 H   0  0  0  0  0  0
    1.6922    4.4438   -1.9116 H   0  0  0  0  0  0
  1  2  2  0  0  0
  1  6  1  0  0  0
  1 19  1  0  0  0
  2  3  1  0  0  0
  2 20  1  0  0  0
  3  4  2  0  0  0
  3 21  1  0  0  0
  4  5  1  0  0  0
  4  7  1  0  0  0
  5  6  2  0  0  0
  5  9  1  0  0  0
  6 22  1  0  0  0
  7  8  1  0  0  0
  7 23  1  0  0  0
  8  9  2  0  0  0
  8 10  1  0  0  0
  9 13  1  0  0  0
 10 11  2  0  0  0
 10 24  1  0  0  0
 11 12  1  0  0  0
 12 13  2  0  0  0
 12 14  1  0  0  0
 13 25  1  0  0  0
 14 15  2  0  0  0
 14 16  1  0  0  0
 16 17  1  0  0  0
 16 26  1  0  0  0
 16 27  1  0  0  0
 17 18  1  0  0  0
 17 28  1  0  0  0
 17 29  1  0  0  0
 18 30  1  0  0  0
 18 31  1  0  0  0
 18 32  1  0  0  0
M  END
>  <Name>
5-11

>  <Family>
M.1

>  <IC50_uM>
0.002800

>  <set>
1

$$$$
5-12
  Cerius2 12180215293D 1   1.00000                          
 Structure written by MMmdl.
 33 35  0  0  0  0  0  0  0  0999 V2000
   -3.2846   -2.7641   -1.2505 C   0  0  0  0  0  0
   -3.2245   -4.0255   -0.6628 C   0  0  0  0  0  0
   -2.0629   -4.4671   -0.0224 C   0  0  0  0  0  0
   -0.9664   -3.5966    0.0057 C   0  0  0  0  0  0
   -0.9948   -2.3278   -0.5733 C   0  0  0  0  0  0
   -2.1790   -1.9060   -1.2135 C   0  0  0  0  0  0
    0.2844   -3.7647    0.5580 N   0  0  0  0  0  0
    1.0592   -2.6458    0.3528 C   0  0  0  0  0  0
    0.2861   -1.7287   -0.3536 C   0  0  0  0  0  0
    2.3662   -2.3761    0.7323 C   0  0  0  0  0  0
    2.9106   -1.1770    0.4038 N   0  0  0  0  0  0
    2.1769   -0.2676   -0.2889 C   0  0  0  0  0  0
    0.8606   -0.4922   -0.6880 C   0  0  0  0  0  0
    2.8078    4.5343    1.0977 C   0  0  0  0  0  0
    3.1690    3.4555    0.0894 C   0  0  0  0  0  0
    2.4750    2.1324    0.4119 C   0  0  0  0  0  0
    2.8427    1.0506   -0.6064 C   0  0  0  0  0  0
   -4.1999   -2.4403   -1.7441 H   0  0  0  0  0  0
   -4.0953   -4.6793   -0.7019 H   0  0  0  0  0  0
   -2.0182   -5.4522    0.4357 H   0  0  0  0  0  0
   -2.2382   -0.9231   -1.6761 H   0  0  0  0  0  0
    0.5902   -4.5967    1.0478 H   0  0  0  0  0  0
    2.9843   -3.0766    1.2837 H   0  0  0  0  0  0
    0.3004    0.2593   -1.2355 H   0  0  0  0  0  0
    3.3145    5.4717    0.8476 H   0  0  0  0  0  0
    3.1107    4.2436    2.1086 H   0  0  0  0  0  0
    1.7293    4.7218    1.1023 H   0  0  0  0  0  0
    4.2562    3.3150    0.0871 H   0  0  0  0  0  0
    2.8828    3.7909   -0.9142 H   0  0  0  0  0  0
    1.3880    2.2821    0.4230 H   0  0  0  0  0  0
    2.7581    1.8037    1.4200 H   0  0  0  0  0  0
    2.5634    1.3649   -1.6196 H   0  0  0  0  0  0
    3.9302    0.9046   -0.6157 H   0  0  0  0  0  0
  1  2  2  0  0  0
  1  6  1  0  0  0
  1 18  1  0  0  0
  2  3  1  0  0  0
  2 19  1  0  0  0
  3  4  2  0  0  0
  3 20  1  0  0  0
  4  5  1  0  0  0
  4  7  1  0  0  0
  5  6  2  0  0  0
  5  9  1  0  0  0
  6 21  1  0  0  0
  7  8  1  0  0  0
  7 22  1  0  0  0
  8  9  2  0  0  0
  8 10  1  0  0  0
  9 13  1  0  0  0
 10 11  2  0  0  0
 10 23  1  0  0  0
 11 12  1  0  0  0
 12 13  2  0  0  0
 12 17  1  0  0  0
 13 24  1  0  0  0
 14 15  1  0  0  0
 14 25  1  0  0  0
 14 26  1  0  0  0
 14 27  1  0  0  0
 15 16  1  0  0  0
 15 28  1  0  0  0
 15 29  1  0  0  0
 16 17  1  0  0  0
 16 30  1  0  0  0
 16 31  1  0  0  0
 17 32  1  0  0  0
 17 33  1  0  0  0
M  END
>  <Name>
5-12

>  <Family>
M.1

>  <IC50_uM>
0.245000

>  <set>
2

$$$$
3-16
  Cerius2 12180215293D 1   1.00000                          
 Structure written by MMmdl.
 25 27  0  0  0  0  0  0  0  0999 V2000
    0.6755    0.3645    1.4570 C   0  0  0  0  0  0
   -0.6773    0.1219    1.8570 C   0  0  0  0  0  0
   -0.6998   -1.0964    2.5354 C   0  0  0  0  0  0
    0.5903   -1.5787    2.5502 N   0  0  0  0  0  0
    1.4404   -0.7092    1.9050 C   0  0  0  0  0  0
   -1.8879    0.8294    1.7027 C   0  0  0  0  0  0
   -3.0695    0.2947    2.2299 C   0  0  0  0  0  0
   -3.0589   -0.9249    2.9025 C   0  0  0  0  0  0
   -1.8724   -1.6453    3.0687 C   0  0  0  0  0  0
    2.8087   -0.7884    1.6897 C   0  0  0  0  0  0
    3.4244    0.2134    1.0170 N   0  0  0  0  0  0
    2.6893    1.2700    0.5622 C   0  0  0  0  0  0
    1.3180    1.4011    0.7590 C   0  0  0  0  0  0
    3.4906    2.3199   -0.1683 C   0  0  0  0  0  0
    4.7193    2.3645   -0.0939 O   0  0  0  0  0  0
    2.8228    3.2290   -0.9469 N   0  0  0  0  0  0
    0.8734   -2.4513    2.9794 H   0  0  0  0  0  0
   -1.9096    1.7829    1.1792 H   0  0  0  0  0  0
   -4.0054    0.8394    2.1119 H   0  0  0  0  0  0
   -3.9887   -1.3249    3.3060 H   0  0  0  0  0  0
   -1.8665   -2.5972    3.5943 H   0  0  0  0  0  0
    3.4200   -1.6157    2.0344 H   0  0  0  0  0  0
    0.7564    2.2595    0.4151 H   0  0  0  0  0  0
    3.3425    3.9403   -1.4494 H   0  0  0  0  0  0
    1.8229    3.2245   -1.1092 H   0  0  0  0  0  0
  1  2  1  0  0  0
  1  5  2  0  0  0
  1 13  1  0  0  0
  2  3  2  0  0  0
  2  6  1  0  0  0
  3  4  1  0  0  0
  3  9  1  0  0  0
  4  5  1  0  0  0
  4 17  1  0  0  0
  5 10  1  0  0  0
  6  7  2  0  0  0
  6 18  1  0  0  0
  7  8  1  0  0  0
  7 19  1  0  0  0
  8  9  2  0  0  0
  8 20  1  0  0  0
  9 21  1  0  0  0
 10 11  2  0  0  0
 10 22  1  0  0  0
 11 12  1  0  0  0
 12 13  2  0  0  0
 12 14  1  0  0  0
 13 23  1  0  0  0
 14 15  2  0  0  0
 14 16  1  0  0  0
 16 24  1  0  0  0
 16 25  1  0  0  0
M  END
>  <Name>
3-16

>  <Family>
M.1

>  <IC50_uM>
0.068000

>  <set>
1

$$$$
3-17
  Cerius2 12180215293D 1   1.00000                          
 Structure written by MMmdl.
 30 32  0  0  0  0  0  0  0  0999 V2000
   -0.7869    0.1094    1.7396 C   0  0  0  0  0  0
   -2.1217   -0.0718    2.2231 C   0  0  0  0  0  0
   -2.1585   -1.2923    2.8974 C   0  0  0  0  0  0
   -0.8946   -1.8355    2.8265 N   0  0  0  0  0  0
   -0.0474   -1.0026    2.1318 C   0  0  0  0  0  0
   -3.3049    0.6929    2.1495 C   0  0  0  0  0  0
   -4.4743    0.2111    2.7500 C   0  0  0  0  0  0
   -4.4783   -1.0119    3.4167 C   0  0  0  0  0  0
   -3.3192   -1.7885    3.5037 C   0  0  0  0  0  0
    1.2980   -1.1434    1.8249 C   0  0  0  0  0  0
    1.9153   -0.1631    1.1181 N   0  0  0  0  0  0
    1.2148    0.9329    0.7150 C   0  0  0  0  0  0
   -0.1373    1.1158    1.0070 C   0  0  0  0  0  0
    1.9403    2.0212   -0.0587 C   0  0  0  0  0  0
    3.2542    1.5865   -0.4474 O   0  0  0  0  0  0
    3.9750    2.5234   -1.1177 C   0  0  0  0  0  0
    3.5840    3.6515   -1.3972 O   0  0  0  0  0  0
    5.3261    1.9816   -1.4713 C   0  0  0  0  0  0
   -0.6267   -2.7242    3.2316 H   0  0  0  0  0  0
   -3.3146    1.6496    1.6317 H   0  0  0  0  0  0
   -5.3888    0.8001    2.6944 H   0  0  0  0  0  0
   -5.3981   -1.3703    3.8781 H   0  0  0  0  0  0
   -3.3246   -2.7428    4.0249 H   0  0  0  0  0  0
    1.8918   -2.0010    2.1227 H   0  0  0  0  0  0
   -0.6695    2.0044    0.6811 H   0  0  0  0  0  0
    2.0237    2.9065    0.5827 H   0  0  0  0  0  0
    1.3647    2.2593   -0.9611 H   0  0  0  0  0  0
    5.8937    2.7462   -2.0094 H   0  0  0  0  0  0
    5.2173    1.1081   -2.1188 H   0  0  0  0  0  0
    5.8704    1.7206   -0.5603 H   0  0  0  0  0  0
  1  2  1  0  0  0
  1  5  2  0  0  0
  1 13  1  0  0  0
  2  3  2  0  0  0
  2  6  1  0  0  0
  3  4  1  0  0  0
  3  9  1  0  0  0
  4  5  1  0  0  0
  4 19  1  0  0  0
  5 10  1  0  0  0
  6  7  2  0  0  0
  6 20  1  0  0  0
  7  8  1  0  0  0
  7 21  1  0  0  0
  8  9  2  0  0  0
  8 22  1  0  0  0
  9 23  1  0  0  0
 10 11  2  0  0  0
 10 24  1  0  0  0
 11 12  1  0  0  0
 12 13  2  0  0  0
 12 14  1  0  0  0
 13 25  1  0  0  0
 14 15  1  0  0  0
 14 26  1  0  0  0
 14 27  1  0  0  0
 15 16  1  0  0  0
 16 17  2  0  0  0
 16 18  1  0  0  0
 18 28  1  0  0  0
 18 29  1  0  0  0
 18 30  1  0  0  0
M  END
>  <Name>
3-17

>  <Family>
M.1

>  <IC50_uM>
0.750000

>  <set>
1

$$$$
6-5
  Cerius2 12180215293D 1   1.00000                          
 Structure written by MMmdl.
 21 23  0  0  0  0  0  0  0  0999 V2000
    1.1594    0.6586    0.9308 C   0  0  0  0  0  0
   -0.2565    0.6766    1.1365 C   0  0  0  0  0  0
   -0.6520   -0.6279    1.4316 C   0  0  0  0  0  0
    0.4795   -1.4132    1.4071 N   0  0  0  0  0  0
    1.5890   -0.6560    1.1061 C   0  0  0  0  0  0
   -1.2404    1.6867    1.0985 C   0  0  0  0  0  0
   -2.5763    1.3562    1.3558 C   0  0  0  0  0  0
   -2.9395    0.0435    1.6476 C   0  0  0  0  0  0
   -1.9834   -0.9754    1.6912 C   0  0  0  0  0  0
    2.9220   -1.0280    0.9772 C   0  0  0  0  0  0
    3.8405   -0.0809    0.6699 N   0  0  0  0  0  0
    3.4199    1.1936    0.5005 C   0  0  0  0  0  0
    2.1135    1.6363    0.6126 C   0  0  0  0  0  0
    4.6836    2.2929    0.1147 Cl  0  0  0  0  0  0
    0.4920   -2.4100    1.5863 H   0  0  0  0  0  0
   -0.9695    2.7157    0.8718 H   0  0  0  0  0  0
   -3.3376    2.1345    1.3271 H   0  0  0  0  0  0
   -3.9843   -0.1944    1.8450 H   0  0  0  0  0  0
   -2.2693   -1.9995    1.9193 H   0  0  0  0  0  0
    3.2714   -2.0464    1.1107 H   0  0  0  0  0  0
    1.8461    2.6751    0.4634 H   0  0  0  0  0  0
  1  2  1  0  0  0
  1  5  2  0  0  0
  1 13  1  0  0  0
  2  3  2  0  0  0
  2  6  1  0  0  0
  3  4  1  0  0  0
  3  9  1  0  0  0
  4  5  1  0  0  0
  4 15  1  0  0  0
  5 10  1  0  0  0
  6  7  2  0  0  0
  6 16  1  0  0  0
  7  8  1  0  0  0
  7 17  1  0  0  0
  8  9  2  0  0  0
  8 18  1  0  0  0
  9 19  1  0  0  0
 10 11  2  0  0  0
 10 20  1  0  0  0
 11 12  1  0  0  0
 12 13  2  0  0  0
 12 14  1  0  0  0
 13 21  1  0  0  0
M  END
>  <Name>
6-5

>  <Family>
M.1

>  <IC50_uM>
0.045000

>  <set>
2

$$$$
6-6
  Cerius2 12180215293D 1   1.00000                          
 Structure written by MMmdl.
 23 25  0  0  0  0  0  0  0  0999 V2000
    0.7095    0.4958    0.9282 C   0  0  0  0  0  0
   -0.6640    0.2509    1.2486 C   0  0  0  0  0  0
   -0.7542   -1.0559    1.7270 C   0  0  0  0  0  0
    0.5157   -1.5885    1.6994 N   0  0  0  0  0  0
    1.4183   -0.6664    1.2192 C   0  0  0  0  0  0
   -1.8415    1.0240    1.1751 C   0  0  0  0  0  0
   -3.0589    0.4641    1.5807 C   0  0  0  0  0  0
   -3.1159   -0.8445    2.0543 C   0  0  0  0  0  0
   -1.9632   -1.6312    2.1368 C   0  0  0  0  0  0
    2.7873   -0.7732    1.0239 C   0  0  0  0  0  0
    3.4634    0.2925    0.5317 N   0  0  0  0  0  0
    2.7894    1.4532    0.2355 C   0  0  0  0  0  0
    1.4127    1.6004    0.4174 C   0  0  0  0  0  0
    3.5209    2.6347   -0.3068 N   0  3  0  0  0  0
    2.8888    3.6782   -0.5709 O   0  0  0  0  0  0
    4.7531    2.5193   -0.4730 O   0  5  0  0  0  0
    0.7515   -2.5289    1.9924 H   0  0  0  0  0  0
   -1.8105    2.0474    0.8070 H   0  0  0  0  0  0
   -3.9694    1.0593    1.5247 H   0  0  0  0  0  0
   -4.0727   -1.2629    2.3654 H   0  0  0  0  0  0
   -2.0101   -2.6527    2.5067 H   0  0  0  0  0  0
    3.3533   -1.6718    1.2456 H   0  0  0  0  0  0
    0.8892    2.5198    0.1810 H   0  0  0  0  0  0
  1  2  1  0  0  0
  1  5  2  0  0  0
  1 13  1  0  0  0
  2  3  2  0  0  0
  2  6  1  0  0  0
  3  4  1  0  0  0
  3  9  1  0  0  0
  4  5  1  0  0  0
  4 17  1  0  0  0
  5 10  1  0  0  0
  6  7  2  0  0  0
  6 18  1  0  0  0
  7  8  1  0  0  0
  7 19  1  0  0  0
  8  9  2  0  0  0
  8 20  1  0  0  0
  9 21  1  0  0  0
 10 11  2  0  0  0
 10 22  1  0  0  0
 11 12  1  0  0  0
 12 13  2  0  0  0
 12 14  1  0  0  0
 13 23  1  0  0  0
 14 15  2  0  0  0
 14 16  1  0  0  0
M  CHG  2  14   1  16  -1
M  END
>  <Name>
6-6

>  <Family>
M.1

>  <IC50_uM>
0.125000

>  <set>
1

$$$$
6-7
  Cerius2 12180215293D 1   1.00000                          
 Structure written by MMmdl.
 23 25  0  0  0  0  0  0  0  0999 V2000
    0.0363    0.3188    0.6219 C   0  0  0  0  0  0
   -1.3178    0.0326    0.9834 C   0  0  0  0  0  0
   -1.3617   -1.2915    1.4194 C   0  0  0  0  0  0
   -0.0835   -1.7910    1.3245 N   0  0  0  0  0  0
    0.7804   -0.8364    0.8440 C   0  0  0  0  0  0
   -2.5131    0.7808    0.9802 C   0  0  0  0  0  0
   -3.7017    0.1802    1.4109 C   0  0  0  0  0  0
   -3.7124   -1.1446    1.8410 C   0  0  0  0  0  0
   -2.5412   -1.9077    1.8537 C   0  0  0  0  0  0
    2.1415   -0.8968    0.5865 C   0  0  0  0  0  0
    2.7694    0.2013    0.1080 N   0  0  0  0  0  0
    2.0680    1.3401   -0.1042 C   0  0  0  0  0  0
    0.7009    1.4492    0.1238 C   0  0  0  0  0  0
    2.7455    2.4513   -0.6305 N   0  0  0  0  0  0
    3.8628    2.5352   -0.2802 C   0  0  0  0  0  0
    5.3884    2.7488    0.1647 S   0  0  0  0  0  0
    0.1789   -2.7336    1.5740 H   0  0  0  0  0  0
   -2.5160    1.8144    0.6468 H   0  0  0  0  0  0
   -4.6247    0.7551    1.4090 H   0  0  0  0  0  0
   -4.6465   -1.5932    2.1721 H   0  0  0  0  0  0
   -2.5553   -2.9397    2.1894 H   0  0  0  0  0  0
    2.7466   -1.7813    0.7443 H   0  0  0  0  0  0
    0.1758    2.3748   -0.0778 H   0  0  0  0  0  0
  1  2  1  0  0  0
  1  5  2  0  0  0
  1 13  1  0  0  0
  2  3  2  0  0  0
  2  6  1  0  0  0
  3  4  1  0  0  0
  3  9  1  0  0  0
  4  5  1  0  0  0
  4 17  1  0  0  0
  5 10  1  0  0  0
  6  7  2  0  0  0
  6 18  1  0  0  0
  7  8  1  0  0  0
  7 19  1  0  0  0
  8  9  2  0  0  0
  8 20  1  0  0  0
  9 21  1  0  0  0
 10 11  2  0  0  0
 10 22  1  0  0  0
 11 12  1  0  0  0
 12 13  2  0  0  0
 12 14  1  0  0  0
 13 23  1  0  0  0
 14 15  2  0  0  0
 15 16  2  0  0  0
M  END
>  <Name>
6-7

>  <Family>
M.1

>  <IC50_uM>
0.008000

>  <set>
2

$$$$
6-11
  Cerius2 12180215293D 1   1.00000                          
 Structure written by MMmdl.
 21 23  0  0  0  0  0  0  0  0999 V2000
    1.0184    0.6987    0.7067 C   0  0  0  0  0  0
   -0.3740    0.4185    0.8819 C   0  0  0  0  0  0
   -0.4965   -0.9485    1.1308 C   0  0  0  0  0  0
    0.7732   -1.4827    1.1083 N   0  0  0  0  0  0
    1.7068   -0.5040    0.8533 C   0  0  0  0  0  0
   -1.5447    1.2051    0.8515 C   0  0  0  0  0  0
   -2.7875    0.5986    1.0699 C   0  0  0  0  0  0
   -2.8764   -0.7695    1.3158 C   0  0  0  0  0  0
   -1.7314   -1.5708    1.3512 C   0  0  0  0  0  0
    3.0892   -0.5875    0.7422 C   0  0  0  0  0  0
    3.7956    0.5417    0.4817 N   0  0  0  0  0  0
    3.1329    1.7148    0.3379 C   0  0  0  0  0  0
    1.7577    1.8604    0.4375 C   0  0  0  0  0  0
    0.9887   -2.4608    1.2589 H   0  0  0  0  0  0
   -1.4880    2.2746    0.6603 H   0  0  0  0  0  0
   -3.6925    1.2042    1.0468 H   0  0  0  0  0  0
   -3.8527   -1.2236    1.4835 H   0  0  0  0  0  0
   -1.8034   -2.6386    1.5434 H   0  0  0  0  0  0
    3.6413   -1.5148    0.8533 H   0  0  0  0  0  0
    3.7581    2.5816    0.1304 H   0  0  0  0  0  0
    1.2871    2.8294    0.3117 H   0  0  0  0  0  0
  1  2  1  0  0  0
  1  5  2  0  0  0
  1 13  1  0  0  0
  2  3  2  0  0  0
  2  6  1  0  0  0
  3  4  1  0  0  0
  3  9  1  0  0  0
  4  5  1  0  0  0
  4 14  1  0  0  0
  5 10  1  0  0  0
  6  7  2  0  0  0
  6 15  1  0  0  0
  7  8  1  0  0  0
  7 16  1  0  0  0
  8  9  2  0  0  0
  8 17  1  0  0  0
  9 18  1  0  0  0
 10 11  2  0  0  0
 10 19  1  0  0  0
 11 12  1  0  0  0
 12 13  2  0  0  0
 12 20  1  0  0  0
 13 21  1  0  0  0
M  END
>  <Name>
6-11

>  <Family>
M.1

>  <IC50_uM>
1.620000

>  <set>
0

$$$$
6-2
  Cerius2 12180215293D 1   1.00000                          
 Structure written by MMmdl.
 25 27  0  0  0  0  0  0  0  0999 V2000
    0.4919    0.5232    1.3646 C   0  0  0  0  0  0
   -0.7859    0.2664    1.9546 C   0  0  0  0  0  0
   -0.7500   -1.0247    2.4814 C   0  0  0  0  0  0
    0.5026   -1.5366    2.2226 N   0  0  0  0  0  0
    1.2718   -0.6167    1.5471 C   0  0  0  0  0  0
   -1.9731    1.0162    2.0891 C   0  0  0  0  0  0
   -3.0745    0.4500    2.7420 C   0  0  0  0  0  0
   -3.0070   -0.8423    3.2576 C   0  0  0  0  0  0
   -1.8422   -1.6058    3.1372 C   0  0  0  0  0  0
    2.5800   -0.7017    1.0887 C   0  0  0  0  0  0
    3.1184    0.3612    0.4406 N   0  0  0  0  0  0
    2.3676    1.4698    0.2601 C   0  0  0  0  0  0
    1.0588    1.6168    0.6928 C   0  0  0  0  0  0
    2.9093    2.5572   -0.3996 O   0  0  0  0  0  0
    4.2562    2.3508   -0.8231 C   0  0  0  0  0  0
    0.8130   -2.4621    2.4927 H   0  0  0  0  0  0
   -2.0382    2.0265    1.6907 H   0  0  0  0  0  0
   -3.9922    1.0272    2.8470 H   0  0  0  0  0  0
   -3.8747   -1.2659    3.7627 H   0  0  0  0  0  0
   -1.7920   -2.6144    3.5405 H   0  0  0  0  0  0
    3.2024   -1.5803    1.2215 H   0  0  0  0  0  0
    0.5057    2.5325    0.5185 H   0  0  0  0  0  0
    4.5882    3.2621   -1.3299 H   0  0  0  0  0  0
    4.3230    1.5262   -1.5412 H   0  0  0  0  0  0
    4.9190    2.1845    0.0330 H   0  0  0  0  0  0
  1  2  1  0  0  0
  1  5  2  0  0  0
  1 13  1  0  0  0
  2  3  2  0  0  0
  2  6  1  0  0  0
  3  4  1  0  0  0
  3  9  1  0  0  0
  4  5  1  0  0  0
  4 16  1  0  0  0
  5 10  1  0  0  0
  6  7  2  0  0  0
  6 17  1  0  0  0
  7  8  1  0  0  0
  7 18  1  0  0  0
  8  9  2  0  0  0
  8 19  1  0  0  0
  9 20  1  0  0  0
 10 11  2  0  0  0
 10 21  1  0  0  0
 11 12  1  0  0  0
 12 13  2  0  0  0
 12 14  1  0  0  0
 13 22  1  0  0  0
 14 15  1  0  0  0
 15 23  1  0  0  0
 15 24  1  0  0  0
 15 25  1  0  0  0
M  END
>  <Name>
6-2

>  <Family>
M.1

>  <IC50_uM>
0.124000

>  <set>
1

$$$$
6-3
  Cerius2 12180215293D 1   1.00000                          
 Structure written by MMmdl.
 28 30  0  0  0  0  0  0  0  0999 V2000
    0.3069    0.0378    1.9007 C   0  0  0  0  0  0
   -0.9078   -0.1561    2.6313 C   0  0  0  0  0  0
   -0.7947   -1.3670    3.3144 C   0  0  0  0  0  0
    0.4423   -1.8924    3.0119 N   0  0  0  0  0  0
    1.1271   -1.0587    2.1574 C   0  0  0  0  0  0
   -2.0965    0.5898    2.7745 C   0  0  0  0  0  0
   -3.1224    0.0996    3.5912 C   0  0  0  0  0  0
   -2.9789   -1.1135    4.2605 C   0  0  0  0  0  0
   -1.8109   -1.8715    4.1351 C   0  0  0  0  0  0
    2.3918   -1.1861    1.5982 C   0  0  0  0  0  0
    2.8457   -0.2098    0.7733 N   0  0  0  0  0  0
    2.0557    0.8565    0.5200 C   0  0  0  0  0  0
    0.7864    1.0416    1.0458 C   0  0  0  0  0  0
    2.5103    1.8562   -0.3193 O   0  0  0  0  0  0
    3.8250    1.6216   -0.8333 C   0  0  0  0  0  0
    4.1898    2.7917   -1.7292 C   0  0  0  0  0  0
    0.7975   -2.7708    3.3698 H   0  0  0  0  0  0
   -2.2205    1.5387    2.2570 H   0  0  0  0  0  0
   -4.0410    0.6739    3.7032 H   0  0  0  0  0  0
   -3.7885   -1.4786    4.8919 H   0  0  0  0  0  0
   -1.7013   -2.8182    4.6586 H   0  0  0  0  0  0
    3.0444   -2.0320    1.7861 H   0  0  0  0  0  0
    0.1982    1.9199    0.8055 H   0  0  0  0  0  0
    3.8445    0.6980   -1.4241 H   0  0  0  0  0  0
    4.5499    1.5587   -0.0128 H   0  0  0  0  0  0
    5.1907    2.6628   -2.1506 H   0  0  0  0  0  0
    4.1608    3.7312   -1.1673 H   0  0  0  0  0  0
    3.4705    2.8883   -2.5492 H   0  0  0  0  0  0
  1  2  1  0  0  0
  1  5  2  0  0  0
  1 13  1  0  0  0
  2  3  2  0  0  0
  2  6  1  0  0  0
  3  4  1  0  0  0
  3  9  1  0  0  0
  4  5  1  0  0  0
  4 17  1  0  0  0
  5 10  1  0  0  0
  6  7  2  0  0  0
  6 18  1  0  0  0
  7  8  1  0  0  0
  7 19  1  0  0  0
  8  9  2  0  0  0
  8 20  1  0  0  0
  9 21  1  0  0  0
 10 11  2  0  0  0
 10 22  1  0  0  0
 11 12  1  0  0  0
 12 13  2  0  0  0
 12 14  1  0  0  0
 13 23  1  0  0  0
 14 15  1  0  0  0
 15 16  1  0  0  0
 15 24  1  0  0  0
 15 25  1  0  0  0
 16 26  1  0  0  0
 16 27  1  0  0  0
 16 28  1  0  0  0
M  END
>  <Name>
6-3

>  <Family>
M.1

>  <IC50_uM>
0.024000

>  <set>
2

$$$$
6-4
  Cerius2 12180215293D 1   1.00000                          
 Structure written by MMmdl.
 31 33  0  0  0  0  0  0  0  0999 V2000
    0.0456   -0.0441    2.6118 C   0  0  0  0  0  0
   -1.0242   -0.1831    3.5516 C   0  0  0  0  0  0
   -0.8235   -1.3810    4.2376 C   0  0  0  0  0  0
    0.3257   -1.9513    3.7358 N   0  0  0  0  0  0
    0.8689   -1.1593    2.7499 C   0  0  0  0  0  0
   -2.1482    0.6025    3.8822 C   0  0  0  0  0  0
   -3.0253    0.1631    4.8810 C   0  0  0  0  0  0
   -2.7974   -1.0384    5.5478 C   0  0  0  0  0  0
   -1.6907   -1.8348    5.2390 C   0  0  0  0  0  0
    2.0097   -1.3392    1.9787 C   0  0  0  0  0  0
    2.3348   -0.3972    1.0586 N   0  0  0  0  0  0
    1.5407    0.6868    0.9193 C   0  0  0  0  0  0
    0.3913    0.9241    1.6571 C   0  0  0  0  0  0
    1.8642    1.6515   -0.0163 O   0  0  0  0  0  0
    3.0569    1.3610   -0.7542 C   0  0  0  0  0  0
    3.2817    2.5031   -1.7409 C   0  0  0  0  0  0
    4.5301    2.2904   -2.5782 C   0  0  0  0  0  0
    0.7156   -2.8317    4.0497 H   0  0  0  0  0  0
   -2.3370    1.5428    3.3686 H   0  0  0  0  0  0
   -3.8939    0.7680    5.1377 H   0  0  0  0  0  0
   -3.4913   -1.3638    6.3223 H   0  0  0  0  0  0
   -1.5148   -2.7723    5.7611 H   0  0  0  0  0  0
    2.6628   -2.2004    2.0718 H   0  0  0  0  0  0
   -0.2068    1.8144    1.5002 H   0  0  0  0  0  0
    2.9397    0.4196   -1.3054 H   0  0  0  0  0  0
    3.9143    1.2919   -0.0732 H   0  0  0  0  0  0
    3.3570    3.4511   -1.1946 H   0  0  0  0  0  0
    2.4070    2.6008   -2.3951 H   0  0  0  0  0  0
    4.6661    3.1233   -3.2750 H   0  0  0  0  0  0
    4.4580    1.3673   -3.1622 H   0  0  0  0  0  0
    5.4210    2.2281   -1.9452 H   0  0  0  0  0  0
  1  2  1  0  0  0
  1  5  2  0  0  0
  1 13  1  0  0  0
  2  3  2  0  0  0
  2  6  1  0  0  0
  3  4  1  0  0  0
  3  9  1  0  0  0
  4  5  1  0  0  0
  4 18  1  0  0  0
  5 10  1  0  0  0
  6  7  2  0  0  0
  6 19  1  0  0  0
  7  8  1  0  0  0
  7 20  1  0  0  0
  8  9  2  0  0  0
  8 21  1  0  0  0
  9 22  1  0  0  0
 10 11  2  0  0  0
 10 23  1  0  0  0
 11 12  1  0  0  0
 12 13  2  0  0  0
 12 14  1  0  0  0
 13 24  1  0  0  0
 14 15  1  0  0  0
 15 16  1  0  0  0
 15 25  1  0  0  0
 15 26  1  0  0  0
 16 17  1  0  0  0
 16 27  1  0  0  0
 16 28  1  0  0  0
 17 29  1  0  0  0
 17 30  1  0  0  0
 17 31  1  0  0  0
M  END
>  <Name>
6-4

>  <Family>
M.1

>  <IC50_uM>
0.011000

>  <set>
1

$$$$
6-8
  Cerius2 12180215293D 1   1.00000                          
 Structure written by MMmdl.
 23 25  0  0  0  0  0  0  0  0999 V2000
    0.9081    0.4609    1.0418 C   0  0  0  0  0  0
   -0.4601    0.1846    1.3554 C   0  0  0  0  0  0
   -0.5270   -1.1364    1.7993 C   0  0  0  0  0  0
    0.7527   -1.6458    1.7589 N   0  0  0  0  0  0
    1.6371   -0.6947    1.3051 C   0  0  0  0  0  0
   -1.6512    0.9383    1.3019 C   0  0  0  0  0  0
   -2.8585    0.3464    1.6921 C   0  0  0  0  0  0
   -2.8922   -0.9752    2.1309 C   0  0  0  0  0  0
   -1.7258   -1.7434    2.1932 C   0  0  0  0  0  0
    3.0087   -0.7581    1.1110 C   0  0  0  0  0  0
    3.6577    0.3415    0.6468 N   0  0  0  0  0  0
    2.9698    1.4653    0.3670 C   0  0  0  0  0  0
    1.6000    1.5851    0.5622 C   0  0  0  0  0  0
    3.7070    2.5493   -0.0602 N   0  0  0  0  0  0
    1.0057   -2.5887    2.0285 H   0  0  0  0  0  0
   -1.6378    1.9714    0.9609 H   0  0  0  0  0  0
   -3.7793    0.9266    1.6515 H   0  0  0  0  0  0
   -3.8414   -1.4185    2.4306 H   0  0  0  0  0  0
   -1.7546   -2.7748    2.5363 H   0  0  0  0  0  0
    3.6007   -1.6441    1.3136 H   0  0  0  0  0  0
    1.0818    2.5142    0.3510 H   0  0  0  0  0  0
    3.2838    3.1885   -0.7263 H   0  0  0  0  0  0
    4.7003    2.3822   -0.1896 H   0  0  0  0  0  0
  1  2  1  0  0  0
  1  5  2  0  0  0
  1 13  1  0  0  0
  2  3  2  0  0  0
  2  6  1  0  0  0
  3  4  1  0  0  0
  3  9  1  0  0  0
  4  5  1  0  0  0
  4 15  1  0  0  0
  5 10  1  0  0  0
  6  7  2  0  0  0
  6 16  1  0  0  0
  7  8  1  0  0  0
  7 17  1  0  0  0
  8  9  2  0  0  0
  8 18  1  0  0  0
  9 19  1  0  0  0
 10 11  2  0  0  0
 10 20  1  0  0  0
 11 12  1  0  0  0
 12 13  2  0  0  0
 12 14  1  0  0  0
 13 21  1  0  0  0
 14 22  1  0  0  0
 14 23  1  0  0  0
M  END
>  <Name>
6-8

>  <Family>
M.1

>  <IC50_uM>
25.000000

>  <set>
1

$$$$
6-9
  Cerius2 12180215293D 1   1.00000                          
 Structure written by MMmdl.
 22 24  0  0  0  0  0  0  0  0999 V2000
    0.9994    0.4162    0.6981 C   0  0  0  0  0  0
   -0.3871    0.1464    0.9288 C   0  0  0  0  0  0
   -0.4977   -1.1993    1.2791 C   0  0  0  0  0  0
    0.7730   -1.7312    1.2630 N   0  0  0  0  0  0
    1.6956   -0.7714    0.9140 C   0  0  0  0  0  0
   -1.5612    0.9262    0.8714 C   0  0  0  0  0  0
   -2.7956    0.3345    1.1649 C   0  0  0  0  0  0
   -2.8728   -1.0124    1.5116 C   0  0  0  0  0  0
   -1.7241   -1.8065    1.5756 C   0  0  0  0  0  0
    3.0748   -0.8584    0.7737 C   0  0  0  0  0  0
    3.7686    0.2505    0.4141 N   0  0  0  0  0  0
    3.0967    1.3989    0.2051 C   0  0  0  0  0  0
    1.7265    1.5585    0.3262 C   0  0  0  0  0  0
    3.8934    2.4483   -0.1517 O   0  0  0  0  0  0
    0.9959   -2.6953    1.4785 H   0  0  0  0  0  0
   -1.5141    1.9792    0.6019 H   0  0  0  0  0  0
   -3.7033    0.9348    1.1212 H   0  0  0  0  0  0
   -3.8427   -1.4552    1.7367 H   0  0  0  0  0  0
   -1.7870   -2.8577    1.8465 H   0  0  0  0  0  0
    3.6343   -1.7733    0.9374 H   0  0  0  0  0  0
    1.2352    2.5071    0.1461 H   0  0  0  0  0  0
    3.3098    3.2238   -0.2777 H   0  0  0  0  0  0
  1  2  1  0  0  0
  1  5  2  0  0  0
  1 13  1  0  0  0
  2  3  2  0  0  0
  2  6  1  0  0  0
  3  4  1  0  0  0
  3  9  1  0  0  0
  4  5  1  0  0  0
  4 15  1  0  0  0
  5 10  1  0  0  0
  6  7  2  0  0  0
  6 16  1  0  0  0
  7  8  1  0  0  0
  7 17  1  0  0  0
  8  9  2  0  0  0
  8 18  1  0  0  0
  9 19  1  0  0  0
 10 11  2  0  0  0
 10 20  1  0  0  0
 11 12  1  0  0  0
 12 13  2  0  0  0
 12 14  1  0  0  0
 13 21  1  0  0  0
 14 22  1  0  0  0
M  END
>  <Name>
6-9

>  <Family>
M.1

>  <IC50_uM>
4.000000

>  <set>
2

$$$$
6-12
  Cerius2 12180215293D 1   1.00000                          
 Structure written by MMmdl.
 36 39  0  0  0  0  0  0  0  0999 V2000
    3.0047   -1.5615    0.7296 C   0  0  0  0  0  0
    1.5789   -1.4658    0.8037 C   0  0  0  0  0  0
    1.0941   -2.7243    1.1493 C   0  0  0  0  0  0
    2.1803   -3.5602    1.2823 N   0  0  0  0  0  0
    3.3493   -2.8775    1.0325 C   0  0  0  0  0  0
    0.6497   -0.4190    0.6075 C   0  0  0  0  0  0
   -0.7315   -0.6366    0.7564 C   0  0  0  0  0  0
   -1.1622   -1.9208    1.1047 C   0  0  0  0  0  0
   -0.2690   -2.9841    1.3074 C   0  0  0  0  0  0
    4.6676   -3.3152    1.0506 C   0  0  0  0  0  0
    5.6563   -2.4309    0.7634 N   0  0  0  0  0  0
    5.3287   -1.1497    0.4680 C   0  0  0  0  0  0
    4.0339   -0.6550    0.4339 C   0  0  0  0  0  0
   -1.5936    0.4227    0.5521 N   0  0  0  0  0  0
   -3.0392    0.3443    0.6720 C   0  0  0  0  0  0
   -3.6529    1.6950    0.3760 C   0  0  0  0  0  0
   -3.8395    2.6341    1.4018 C   0  0  0  0  0  0
   -4.3927    3.8859    1.1252 C   0  0  0  0  0  0
   -4.7577    4.2151   -0.1791 C   0  0  0  0  0  0
   -4.5668    3.2954   -1.2089 C   0  0  0  0  0  0
   -4.0138    2.0430   -0.9346 C   0  0  0  0  0  0
    2.1258   -4.5408    1.5295 H   0  0  0  0  0  0
    1.0187    0.5684    0.3368 H   0  0  0  0  0  0
   -2.2227   -2.1340    1.2303 H   0  0  0  0  0  0
   -0.6332   -3.9723    1.5776 H   0  0  0  0  0  0
    4.9540   -4.3353    1.2840 H   0  0  0  0  0  0
    6.1681   -0.4924    0.2473 H   0  0  0  0  0  0
    3.8379    0.3833    0.1896 H   0  0  0  0  0  0
   -1.2052    1.3303    0.3015 H   0  0  0  0  0  0
   -3.3264    0.0313    1.6834 H   0  0  0  0  0  0
   -3.4450   -0.3975   -0.0269 H   0  0  0  0  0  0
   -3.5514    2.3925    2.4245 H   0  0  0  0  0  0
   -4.5363    4.6063    1.9288 H   0  0  0  0  0  0
   -5.1879    5.1917   -0.3941 H   0  0  0  0  0  0
   -4.8464    3.5545   -2.2287 H   0  0  0  0  0  0
   -3.8631    1.3364   -1.7501 H   0  0  0  0  0  0
  1  2  1  0  0  0
  1  5  2  0  0  0
  1 13  1  0  0  0
  2  3  2  0  0  0
  2  6  1  0  0  0
  3  4  1  0  0  0
  3  9  1  0  0  0
  4  5  1  0  0  0
  4 22  1  0  0  0
  5 10  1  0  0  0
  6  7  2  0  0  0
  6 23  1  0  0  0
  7  8  1  0  0  0
  7 14  1  0  0  0
  8  9  2  0  0  0
  8 24  1  0  0  0
  9 25  1  0  0  0
 10 11  2  0  0  0
 10 26  1  0  0  0
 11 12  1  0  0  0
 12 13  2  0  0  0
 12 27  1  0  0  0
 13 28  1  0  0  0
 14 15  1  0  0  0
 14 29  1  0  0  0
 15 16  1  0  0  0
 15 30  1  0  0  0
 15 31  1  0  0  0
 16 17  2  0  0  0
 16 21  1  0  0  0
 17 18  1  0  0  0
 17 32  1  0  0  0
 18 19  2  0  0  0
 18 33  1  0  0  0
 19 20  1  0  0  0
 19 34  1  0  0  0
 20 21  2  0  0  0
 20 35  1  0  0  0
 21 36  1  0  0  0
M  END
>  <Name>
6-12

>  <Family>
M.1

>  <IC50_uM>
0.106000

>  <set>
1

$$$$
6-13
  Cerius2 12180215293D 1   1.00000                          
 Structure written by MMmdl.
 36 39  0  0  0  0  0  0  0  0999 V2000
   -0.9654   -1.2214    1.8041 C   0  0  0  0  0  0
   -2.3511   -1.1359    2.1499 C   0  0  0  0  0  0
   -2.6437   -2.2265    2.9694 C   0  0  0  0  0  0
   -1.4799   -2.9492    3.1172 N   0  0  0  0  0  0
   -0.4527   -2.3574    2.4196 C   0  0  0  0  0  0
   -3.3863   -0.2290    1.8403 C   0  0  0  0  0  0
   -4.6685   -0.4452    2.3590 C   0  0  0  0  0  0
   -4.9287   -1.5438    3.1748 C   0  0  0  0  0  0
   -3.9203   -2.4571    3.4964 C   0  0  0  0  0  0
    0.8747   -2.7268    2.2818 C   0  0  0  0  0  0
    1.6945   -1.9535    1.5224 N   0  0  0  0  0  0
    1.2310   -0.8426    0.9095 C   0  0  0  0  0  0
   -0.0950   -0.4393    1.0242 C   0  0  0  0  0  0
    2.1639   -0.1613    0.1788 N   0  0  0  0  0  0
    1.9213    1.0527   -0.5687 C   0  0  0  0  0  0
    3.1969    1.5021   -1.2453 C   0  0  0  0  0  0
    4.0933    2.3550   -0.5834 C   0  0  0  0  0  0
    5.2775    2.7581   -1.2035 C   0  0  0  0  0  0
    5.5818    2.3078   -2.4870 C   0  0  0  0  0  0
    4.7053    1.4510   -3.1506 C   0  0  0  0  0  0
    3.5205    1.0465   -2.5324 C   0  0  0  0  0  0
   -1.3945   -3.7977    3.6637 H   0  0  0  0  0  0
   -3.1957    0.6328    1.2043 H   0  0  0  0  0  0
   -5.4693    0.2538    2.1212 H   0  0  0  0  0  0
   -5.9332   -1.6952    3.5691 H   0  0  0  0  0  0
   -4.1259   -3.3140    4.1334 H   0  0  0  0  0  0
    1.3034   -3.6066    2.7493 H   0  0  0  0  0  0
   -0.4676    0.4518    0.5329 H   0  0  0  0  0  0
    3.0992   -0.5561    0.1722 H   0  0  0  0  0  0
    1.5636    1.8508    0.0936 H   0  0  0  0  0  0
    1.1470    0.8915   -1.3290 H   0  0  0  0  0  0
    3.8715    2.7087    0.4230 H   0  0  0  0  0  0
    5.9648    3.4227   -0.6828 H   0  0  0  0  0  0
    6.5058    2.6220   -2.9695 H   0  0  0  0  0  0
    4.9456    1.0946   -4.1509 H   0  0  0  0  0  0
    2.8480    0.3707   -3.0598 H   0  0  0  0  0  0
  1  2  1  0  0  0
  1  5  2  0  0  0
  1 13  1  0  0  0
  2  3  2  0  0  0
  2  6  1  0  0  0
  3  4  1  0  0  0
  3  9  1  0  0  0
  4  5  1  0  0  0
  4 22  1  0  0  0
  5 10  1  0  0  0
  6  7  2  0  0  0
  6 23  1  0  0  0
  7  8  1  0  0  0
  7 24  1  0  0  0
  8  9  2  0  0  0
  8 25  1  0  0  0
  9 26  1  0  0  0
 10 11  2  0  0  0
 10 27  1  0  0  0
 11 12  1  0  0  0
 12 13  2  0  0  0
 12 14  1  0  0  0
 13 28  1  0  0  0
 14 15  1  0  0  0
 14 29  1  0  0  0
 15 16  1  0  0  0
 15 30  1  0  0  0
 15 31  1  0  0  0
 16 17  2  0  0  0
 16 21  1  0  0  0
 17 18  1  0  0  0
 17 32  1  0  0  0
 18 19  2  0  0  0
 18 33  1  0  0  0
 19 20  1  0  0  0
 19 34  1  0  0  0
 20 21  2  0  0  0
 20 35  1  0  0  0
 21 36  1  0  0  0
M  END
>  <Name>
6-13

>  <Family>
M.1

>  <IC50_uM>
>1.28

>  <set>
2

$$$$
7-1a
  Cerius2 12180215293D 1   1.00000                          
 Structure written by MMmdl.
 42 45  0  0  0  0  0  0  0  0999 V2000
   -0.6027    4.1786    2.1938 C   0  0  0  0  0  0
   -0.8303    2.8117    2.0801 C   0  0  0  0  0  0
    0.3078    2.0104    1.9072 C   0  0  0  0  0  0
    1.5580    2.6265    1.8799 C   0  0  0  0  0  0
    1.7202    3.9993    2.0237 C   0  0  0  0  0  0
    0.6215    4.7747    2.1862 N   0  0  0  0  0  0
    2.4980    1.6372    1.6949 N   0  0  0  0  0  0
    1.8892    0.4075    1.5857 C   0  0  0  0  0  0
    0.5194    0.6071    1.7278 C   0  0  0  0  0  0
   -0.3338   -0.5178    1.6607 C   0  0  0  0  0  0
    0.1790   -1.8086    1.4353 C   0  0  0  0  0  0
    1.5629   -1.9481    1.2973 C   0  0  0  0  0  0
    2.4422   -0.8565    1.3719 C   0  0  0  0  0  0
   -0.7057   -2.8663    1.3842 N   0  0  0  0  0  0
   -0.3860   -4.2494    1.0679 C   0  0  0  0  0  0
   -0.4216   -4.4963   -0.4240 C   0  0  0  0  0  0
    0.7529   -4.8026   -1.1286 C   0  0  0  0  0  0
    0.7112   -5.0570   -2.5020 C   0  0  0  0  0  0
   -0.5024   -5.0038   -3.1865 C   0  0  0  0  0  0
   -1.6764   -4.6962   -2.5004 C   0  0  0  0  0  0
   -1.6373   -4.4449   -1.1273 C   0  0  0  0  0  0
   -1.7617    5.0964    2.3740 C   0  0  0  0  0  0
   -1.9148    5.7382    3.4118 O   0  0  0  0  0  0
   -2.6635    5.1784    1.3577 O   0  0  0  0  0  0
   -2.3201    4.7721    0.0171 C   0  0  0  0  0  0
   -1.8287    2.3914    2.1142 H   0  0  0  0  0  0
    2.6888    4.4893    2.0098 H   0  0  0  0  0  0
    3.4973    1.7933    1.6356 H   0  0  0  0  0  0
   -1.4064   -0.3718    1.7763 H   0  0  0  0  0  0
    2.0085   -2.9248    1.1230 H   0  0  0  0  0  0
    3.5140   -0.9975    1.2583 H   0  0  0  0  0  0
   -1.7008   -2.6607    1.4625 H   0  0  0  0  0  0
   -1.1414   -4.8953    1.5330 H   0  0  0  0  0  0
    0.5676   -4.5624    1.5079 H   0  0  0  0  0  0
    1.7102   -4.8495   -0.6105 H   0  0  0  0  0  0
    1.6288   -5.2998   -3.0360 H   0  0  0  0  0  0
   -0.5341   -5.2053   -4.2558 H   0  0  0  0  0  0
   -2.6253   -4.6547   -3.0336 H   0  0  0  0  0  0
   -2.5626   -4.2102   -0.6013 H   0  0  0  0  0  0
   -2.9293    5.3644   -0.6707 H   0  0  0  0  0  0
   -2.5712    3.7172   -0.1206 H   0  0  0  0  0  0
   -1.2684    4.9640   -0.2131 H   0  0  0  0  0  0
  1  2  2  0  0  0
  1  6  1  0  0  0
  1 22  1  0  0  0
  2  3  1  0  0  0
  2 26  1  0  0  0
  3  4  2  0  0  0
  3  9  1  0  0  0
  4  5  1  0  0  0
  4  7  1  0  0  0
  5  6  2  0  0  0
  5 27  1  0  0  0
  7  8  1  0  0  0
  7 28  1  0  0  0
  8  9  2  0  0  0
  8 13  1  0  0  0
  9 10  1  0  0  0
 10 11  2  0  0  0
 10 29  1  0  0  0
 11 12  1  0  0  0
 11 14  1  0  0  0
 12 13  2  0  0  0
 12 30  1  0  0  0
 13 31  1  0  0  0
 14 15  1  0  0  0
 14 32  1  0  0  0
 15 16  1  0  0  0
 15 33  1  0  0  0
 15 34  1  0  0  0
 16 17  2  0  0  0
 16 21  1  0  0  0
 17 18  1  0  0  0
 17 35  1  0  0  0
 18 19  2  0  0  0
 18 36  1  0  0  0
 19 20  1  0  0  0
 19 37  1  0  0  0
 20 21  2  0  0  0
 20 38  1  0  0  0
 21 39  1  0  0  0
 22 23  2  0  0  0
 22 24  1  0  0  0
 24 25  1  0  0  0
 25 40  1  0  0  0
 25 41  1  0  0  0
 25 42  1  0  0  0
M  END
>  <Name>
7-1a

>  <Family>
M.1

>  <IC50_uM>
0.010000

>  <set>
2

$$$$
7-1b
  Cerius2 12180215293D 1   1.00000                          
 Structure written by MMmdl.
 40 43  0  0  0  0  0  0  0  0999 V2000
   -0.5524    4.5158    2.0048 C   0  0  0  0  0  0
   -0.8850    3.1714    1.8391 C   0  0  0  0  0  0
    0.1695    2.2512    1.7294 C   0  0  0  0  0  0
    1.4743    2.7333    1.7865 C   0  0  0  0  0  0
    1.7601    4.0816    1.9462 C   0  0  0  0  0  0
    0.7328    4.9621    2.0539 N   0  0  0  0  0  0
    2.3175    1.6529    1.6579 N   0  0  0  0  0  0
    1.5941    0.4890    1.5225 C   0  0  0  0  0  0
    0.2456    0.8322    1.5621 C   0  0  0  0  0  0
   -0.7127   -0.2000    1.4444 C   0  0  0  0  0  0
   -0.3226   -1.5430    1.2879 C   0  0  0  0  0  0
    1.0457   -1.8284    1.2592 C   0  0  0  0  0  0
    2.0265   -0.8301    1.3712 C   0  0  0  0  0  0
   -1.3075   -2.5063    1.2007 N   0  0  0  0  0  0
   -1.1065   -3.9324    0.9960 C   0  0  0  0  0  0
   -0.9078   -4.2645   -0.4666 C   0  0  0  0  0  0
    0.2569   -4.9163   -0.8995 C   0  0  0  0  0  0
    0.4291   -5.2456   -2.2459 C   0  0  0  0  0  0
   -0.5621   -4.9326   -3.1744 C   0  0  0  0  0  0
   -1.7264   -4.2900   -2.7585 C   0  0  0  0  0  0
   -1.8997   -3.9597   -1.4128 C   0  0  0  0  0  0
   -1.6552    5.5440    2.1271 C   0  0  0  0  0  0
   -2.3146    5.7153    0.8694 O   0  0  0  0  0  0
   -1.9216    2.8516    1.7963 H   0  0  0  0  0  0
    2.7698    4.4761    1.9917 H   0  0  0  0  0  0
    3.3289    1.7053    1.6657 H   0  0  0  0  0  0
   -1.7694    0.0579    1.4785 H   0  0  0  0  0  0
    1.3958   -2.8524    1.1470 H   0  0  0  0  0  0
    3.0833   -1.0839    1.3436 H   0  0  0  0  0  0
   -2.2789   -2.1994    1.1828 H   0  0  0  0  0  0
   -2.0035   -4.4635    1.3382 H   0  0  0  0  0  0
   -0.2862   -4.3118    1.6160 H   0  0  0  0  0  0
    1.0405   -5.1741   -0.1880 H   0  0  0  0  0  0
    1.3381   -5.7496   -2.5697 H   0  0  0  0  0  0
   -0.4275   -5.1914   -4.2230 H   0  0  0  0  0  0
   -2.5023   -4.0464   -3.4821 H   0  0  0  0  0  0
   -2.8162   -3.4605   -1.1004 H   0  0  0  0  0  0
   -1.2395    6.5097    2.4337 H   0  0  0  0  0  0
   -2.3885    5.2253    2.8757 H   0  0  0  0  0  0
   -2.9921    6.4043    1.0352 H   0  0  0  0  0  0
  1  2  2  0  0  0
  1  6  1  0  0  0
  1 22  1  0  0  0
  2  3  1  0  0  0
  2 24  1  0  0  0
  3  4  2  0  0  0
  3  9  1  0  0  0
  4  5  1  0  0  0
  4  7  1  0  0  0
  5  6  2  0  0  0
  5 25  1  0  0  0
  7  8  1  0  0  0
  7 26  1  0  0  0
  8  9  2  0  0  0
  8 13  1  0  0  0
  9 10  1  0  0  0
 10 11  2  0  0  0
 10 27  1  0  0  0
 11 12  1  0  0  0
 11 14  1  0  0  0
 12 13  2  0  0  0
 12 28  1  0  0  0
 13 29  1  0  0  0
 14 15  1  0  0  0
 14 30  1  0  0  0
 15 16  1  0  0  0
 15 31  1  0  0  0
 15 32  1  0  0  0
 16 17  2  0  0  0
 16 21  1  0  0  0
 17 18  1  0  0  0
 17 33  1  0  0  0
 18 19  2  0  0  0
 18 34  1  0  0  0
 19 20  1  0  0  0
 19 35  1  0  0  0
 20 21  2  0  0  0
 20 36  1  0  0  0
 21 37  1  0  0  0
 22 23  1  0  0  0
 22 38  1  0  0  0
 22 39  1  0  0  0
 23 40  1  0  0  0
M  END
>  <Name>
7-1b

>  <Family>
M.1

>  <IC50_uM>
0.076000

>  <set>
2

$$$$
7-5
  Cerius2 12180215293D 1   1.00000                          
 Structure written by MMmdl.
 23 25  0  0  0  0  0  0  0  0999 V2000
   -2.2544    0.0268   -0.2538 C   0  0  0  0  0  0
   -2.2406   -1.3284    0.0800 C   0  0  0  0  0  0
   -1.0910   -1.9565    0.5771 C   0  0  0  0  0  0
    0.0508   -1.1689    0.7525 C   0  0  0  0  0  0
    0.0742    0.1935    0.4600 C   0  0  0  0  0  0
   -1.1028    0.7958   -0.0385 C   0  0  0  0  0  0
    1.3016   -1.5094    1.2179 N   0  0  0  0  0  0
    2.1273   -0.4082    1.2371 C   0  0  0  0  0  0
    1.3860    0.6750    0.7688 C   0  0  0  0  0  0
    3.4549   -0.2869    1.6281 C   0  0  0  0  0  0
    4.0525    0.9293    1.5517 N   0  0  0  0  0  0
    3.3379    1.9870    1.0973 C   0  0  0  0  0  0
    2.0128    1.9280    0.6937 C   0  0  0  0  0  0
   -3.4245    0.6293   -0.6833 N   0  0  0  0  0  0
   -3.1421   -1.9271   -0.0492 H   0  0  0  0  0  0
   -1.0961   -3.0158    0.8214 H   0  0  0  0  0  0
   -1.1067    1.8609   -0.2593 H   0  0  0  0  0  0
    1.5741   -2.4405    1.5086 H   0  0  0  0  0  0
    4.0468   -1.1188    1.9951 H   0  0  0  0  0  0
    3.8760    2.9328    1.0610 H   0  0  0  0  0  0
    1.4961    2.8131    0.3388 H   0  0  0  0  0  0
   -3.4093    1.5774   -1.0522 H   0  0  0  0  0  0
   -4.2203    0.0622   -0.9670 H   0  0  0  0  0  0
  1  2  2  0  0  0
  1  6  1  0  0  0
  1 14  1  0  0  0
  2  3  1  0  0  0
  2 15  1  0  0  0
  3  4  2  0  0  0
  3 16  1  0  0  0
  4  5  1  0  0  0
  4  7  1  0  0  0
  5  6  2  0  0  0
  5  9  1  0  0  0
  6 17  1  0  0  0
  7  8  1  0  0  0
  7 18  1  0  0  0
  8  9  2  0  0  0
  8 10  1  0  0  0
  9 13  1  0  0  0
 10 11  2  0  0  0
 10 19  1  0  0  0
 11 12  1  0  0  0
 12 13  2  0  0  0
 12 20  1  0  0  0
 13 21  1  0  0  0
 14 22  1  0  0  0
 14 23  1  0  0  0
M  END
>  <Name>
7-5

>  <Family>
M.1

>  <IC50_uM>
1.300000

>  <set>
0

$$$$
7-6
  Cerius2 12180215293D 1   1.00000                          
 Structure written by MMmdl.
 37 40  0  0  0  0  0  0  0  0999 V2000
   -0.2896   -0.5144    0.1479 C   0  0  0  0  0  0
   -0.0420   -1.8522    0.4721 C   0  0  0  0  0  0
    1.2565   -2.3784    0.5516 C   0  0  0  0  0  0
    2.3228   -1.5141    0.2930 C   0  0  0  0  0  0
    2.1353   -0.1740   -0.0337 C   0  0  0  0  0  0
    0.8132    0.3210   -0.1041 C   0  0  0  0  0  0
    3.6794   -1.7492    0.2968 N   0  0  0  0  0  0
    4.3727   -0.6010   -0.0175 C   0  0  0  0  0  0
    3.4299    0.4048   -0.2301 C   0  0  0  0  0  0
    5.7516   -0.3829   -0.1278 C   0  0  0  0  0  0
    6.1792    0.9044   -0.4661 C   0  0  0  0  0  0
    5.2629    1.9305   -0.6847 C   0  0  0  0  0  0
    3.8875    1.6953   -0.5704 C   0  0  0  0  0  0
   -1.5591    0.0229    0.0644 N   0  0  0  0  0  0
   -2.7855   -0.7198    0.2975 C   0  0  0  0  0  0
   -3.9797    0.1919    0.1205 C   0  0  0  0  0  0
   -4.4762    0.9351    1.2022 C   0  0  0  0  0  0
   -5.5698    1.7868    1.0350 C   0  0  0  0  0  0
   -6.1734    1.9106   -0.2152 C   0  0  0  0  0  0
   -5.6824    1.1867   -1.3005 C   0  0  0  0  0  0
   -4.5889    0.3343   -1.1355 C   0  0  0  0  0  0
   -0.8662   -2.5343    0.6754 H   0  0  0  0  0  0
    1.4186   -3.4230    0.8057 H   0  0  0  0  0  0
    0.6562    1.3673   -0.3587 H   0  0  0  0  0  0
    4.1088   -2.6430    0.5021 H   0  0  0  0  0  0
    6.4686   -1.1825    0.0423 H   0  0  0  0  0  0
    7.2458    1.1066   -0.5598 H   0  0  0  0  0  0
    5.6179    2.9261   -0.9473 H   0  0  0  0  0  0
    3.1814    2.5046   -0.7437 H   0  0  0  0  0  0
   -1.6606    1.0066   -0.1798 H   0  0  0  0  0  0
   -2.7977   -1.1367    1.3121 H   0  0  0  0  0  0
   -2.8660   -1.5610   -0.4021 H   0  0  0  0  0  0
   -4.0088    0.8534    2.1830 H   0  0  0  0  0  0
   -5.9495    2.3565    1.8815 H   0  0  0  0  0  0
   -7.0255    2.5757   -0.3450 H   0  0  0  0  0  0
   -6.1502    1.2877   -2.2784 H   0  0  0  0  0  0
   -4.2107   -0.2201   -1.9938 H   0  0  0  0  0  0
  1  2  2  0  0  0
  1  6  1  0  0  0
  1 14  1  0  0  0
  2  3  1  0  0  0
  2 22  1  0  0  0
  3  4  2  0  0  0
  3 23  1  0  0  0
  4  5  1  0  0  0
  4  7  1  0  0  0
  5  6  2  0  0  0
  5  9  1  0  0  0
  6 24  1  0  0  0
  7  8  1  0  0  0
  7 25  1  0  0  0
  8  9  2  0  0  0
  8 10  1  0  0  0
  9 13  1  0  0  0
 10 11  2  0  0  0
 10 26  1  0  0  0
 11 12  1  0  0  0
 11 27  1  0  0  0
 12 13  2  0  0  0
 12 28  1  0  0  0
 13 29  1  0  0  0
 14 15  1  0  0  0
 14 30  1  0  0  0
 15 16  1  0  0  0
 15 31  1  0  0  0
 15 32  1  0  0  0
 16 17  2  0  0  0
 16 21  1  0  0  0
 17 18  1  0  0  0
 17 33  1  0  0  0
 18 19  2  0  0  0
 18 34  1  0  0  0
 19 20  1  0  0  0
 19 35  1  0  0  0
 20 21  2  0  0  0
 20 36  1  0  0  0
 21 37  1  0  0  0
M  END
>  <Name>
7-6

>  <Family>
M.2

>  <IC50_uM>
>5

>  <set>
2

$$$$
5-13
  Cerius2 12180215293D 1   1.00000                          
 Structure written by MMmdl.
 27 29  0  0  0  0  0  0  0  0999 V2000
   -3.9337    2.3104    0.0520 C   0  0  0  0  0  0
   -4.1299    0.9605   -0.2296 C   0  0  0  0  0  0
   -3.0535    0.0655   -0.2194 C   0  0  0  0  0  0
   -1.7590    0.5403    0.0797 C   0  0  0  0  0  0
   -1.5956    1.8975    0.3572 C   0  0  0  0  0  0
   -2.6613    2.8058    0.3513 C   0  0  0  0  0  0
   -0.2582    2.1042    0.6137 N   0  0  0  0  0  0
    0.4432    0.9241    0.5101 C   0  0  0  0  0  0
   -0.4703   -0.0748    0.1764 C   0  0  0  0  0  0
    0.0013   -1.3840    0.0115 C   0  0  0  0  0  0
    1.3204   -1.6693    0.1742 N   0  0  0  0  0  0
    2.1815   -0.6621    0.5008 C   0  0  0  0  0  0
    1.8027    0.6639    0.6839 C   0  0  0  0  0  0
    3.6294   -1.0176    0.6716 C   0  0  0  0  0  0
    4.5118   -0.2193    0.9615 O   0  0  0  0  0  0
    3.8172   -2.3493    0.4586 O   0  0  0  0  0  0
    5.1715   -2.7898    0.5990 C   0  0  0  0  0  0
   -4.7839    2.9918    0.0392 H   0  0  0  0  0  0
   -5.1300    0.5958   -0.4603 H   0  0  0  0  0  0
   -3.2213   -0.9864   -0.4413 H   0  0  0  0  0  0
   -2.5105    3.8601    0.5708 H   0  0  0  0  0  0
    0.1506    3.0013    0.8463 H   0  0  0  0  0  0
   -0.6502   -2.2128   -0.2480 H   0  0  0  0  0  0
    2.5110    1.4421    0.9434 H   0  0  0  0  0  0
    5.8125   -2.2903   -0.1339 H   0  0  0  0  0  0
    5.1986   -3.8663    0.4093 H   0  0  0  0  0  0
    5.5286   -2.6061    1.6170 H   0  0  0  0  0  0
  1  2  2  0  0  0
  1  6  1  0  0  0
  1 18  1  0  0  0
  2  3  1  0  0  0
  2 19  1  0  0  0
  3  4  2  0  0  0
  3 20  1  0  0  0
  4  5  1  0  0  0
  4  9  1  0  0  0
  5  6  2  0  0  0
  5  7  1  0  0  0
  6 21  1  0  0  0
  7  8  1  0  0  0
  7 22  1  0  0  0
  8  9  2  0  0  0
  8 13  1  0  0  0
  9 10  1  0  0  0
 10 11  2  0  0  0
 10 23  1  0  0  0
 11 12  1  0  0  0
 12 13  2  0  0  0
 12 14  1  0  0  0
 13 24  1  0  0  0
 14 15  2  0  0  0
 14 16  1  0  0  0
 16 17  1  0  0  0
 17 25  1  0  0  0
 17 26  1  0  0  0
 17 27  1  0  0  0
M  END
>  <Name>
5-13

>  <Family>
M.3

>  <IC50_uM>
0.653000

>  <set>
1

$$$$
6-18
  Cerius2 12180215293D 1   1.00000                          
 Structure written by MMmdl.
 29 31  0  0  0  0  0  0  0  0999 V2000
    0.7090   -0.8930    2.4004 C   0  0  0  0  0  0
   -0.6723   -1.1023    2.7966 C   0  0  0  0  0  0
   -0.7918   -2.1076    3.7572 C   0  0  0  0  0  0
    0.7358   -2.7735    4.1615 S   0  0  0  0  0  0
    1.5787   -1.7475    3.0768 C   0  0  0  0  0  0
   -1.8612   -0.4581    2.3640 C   0  0  0  0  0  0
   -3.1047   -0.8246    2.8876 C   0  0  0  0  0  0
   -3.1924   -1.8274    3.8410 C   0  0  0  0  0  0
   -2.0429   -2.4810    4.2883 C   0  0  0  0  0  0
    2.9557   -1.7150    2.8474 C   0  0  0  0  0  0
    3.4774   -0.8419    1.9521 N   0  0  0  0  0  0
    2.6454   -0.0015    1.2830 C   0  0  0  0  0  0
    1.2677    0.0127    1.4691 C   0  0  0  0  0  0
    3.3259    0.9247    0.3139 C   0  0  0  0  0  0
    4.5354    0.9506    0.1193 O   0  0  0  0  0  0
    2.4196    1.7227   -0.3119 O   0  0  0  0  0  0
    2.9771    2.6445   -1.2615 C   0  0  0  0  0  0
    1.8408    3.4490   -1.8614 C   0  0  0  0  0  0
   -1.8132    0.3318    1.6159 H   0  0  0  0  0  0
   -4.0059   -0.3192    2.5435 H   0  0  0  0  0  0
   -4.1638   -2.1089    4.2452 H   0  0  0  0  0  0
   -2.1172   -3.2673    5.0367 H   0  0  0  0  0  0
    3.6504   -2.3708    3.3628 H   0  0  0  0  0  0
    0.6271    0.6950    0.9211 H   0  0  0  0  0  0
    3.4973    2.0897   -2.0501 H   0  0  0  0  0  0
    3.6803    3.3142   -0.7542 H   0  0  0  0  0  0
    2.2163    4.1677   -2.5950 H   0  0  0  0  0  0
    1.2982    3.9914   -1.0801 H   0  0  0  0  0  0
    1.1176    2.7884   -2.3510 H   0  0  0  0  0  0
  1  2  1  0  0  0
  1  5  2  0  0  0
  1 13  1  0  0  0
  2  3  2  0  0  0
  2  6  1  0  0  0
  3  4  1  0  0  0
  3  9  1  0  0  0
  4  5  1  0  0  0
  5 10  1  0  0  0
  6  7  2  0  0  0
  6 19  1  0  0  0
  7  8  1  0  0  0
  7 20  1  0  0  0
  8  9  2  0  0  0
  8 21  1  0  0  0
  9 22  1  0  0  0
 10 11  2  0  0  0
 10 23  1  0  0  0
 11 12  1  0  0  0
 12 13  2  0  0  0
 12 14  1  0  0  0
 13 24  1  0  0  0
 14 15  2  0  0  0
 14 16  1  0  0  0
 16 17  1  0  0  0
 17 18  1  0  0  0
 17 25  1  0  0  0
 17 26  1  0  0  0
 18 27  1  0  0  0
 18 28  1  0  0  0
 18 29  1  0  0  0
M  END
>  <Name>
6-18

>  <Family>
M.4

>  <IC50_uM>
0.980000

>  <set>
1

$$$$
5-35
  Cerius2 12180215293D 1   1.00000                          
 Structure written by MMmdl.
 30 32  0  0  0  0  0  0  0  0999 V2000
   -3.1546   -2.0289   -0.2061 C   0  0  0  0  0  0
   -3.2279   -3.3543    0.2534 C   0  0  0  0  0  0
   -2.1084   -3.9760    0.8086 C   0  0  0  0  0  0
   -0.9371   -3.2394    0.8860 C   0  0  0  0  0  0
   -0.8235   -1.9323    0.4451 C   0  0  0  0  0  0
   -1.9586   -1.3078   -0.1158 C   0  0  0  0  0  0
    1.2218   -2.4712    1.2434 C   0  0  0  0  0  0
    0.4754   -1.4722    0.6610 C   0  0  0  0  0  0
    2.5437   -2.2835    1.5652 C   0  0  0  0  0  0
    3.1754   -1.1060    1.3247 N   0  0  0  0  0  0
    2.4418   -0.0979    0.7430 C   0  0  0  0  0  0
    1.0970   -0.2332    0.3951 C   0  0  0  0  0  0
    3.2001    1.1782    0.5053 C   0  0  0  0  0  0
    4.3783    1.3434    0.7977 O   0  0  0  0  0  0
    2.4017    2.1142   -0.0742 O   0  0  0  0  0  0
    2.0191    4.2921   -0.9841 C   0  0  0  0  0  0
    3.0392    3.3732   -0.3409 C   0  0  0  0  0  0
    0.3710   -3.6518    1.4209 C   0  0  0  0  0  0
    0.6782   -4.7240    1.9003 O   0  0  0  0  0  0
   -4.0378   -1.5586   -0.6368 H   0  0  0  0  0  0
   -4.1674   -3.9000    0.1751 H   0  0  0  0  0  0
   -2.1543   -4.9997    1.1668 H   0  0  0  0  0  0
   -1.9113   -0.2822   -0.4740 H   0  0  0  0  0  0
    3.1367   -3.0680    2.0244 H   0  0  0  0  0  0
    0.5373    0.5745   -0.0626 H   0  0  0  0  0  0
    2.4588    5.2683   -1.2066 H   0  0  0  0  0  0
    1.1576    4.4341   -0.3233 H   0  0  0  0  0  0
    1.6387    3.8551   -1.9133 H   0  0  0  0  0  0
    3.8840    3.2205   -1.0216 H   0  0  0  0  0  0
    3.3947    3.8110    0.5983 H   0  0  0  0  0  0
  1  2  2  0  0  0
  1  6  1  0  0  0
  1 20  1  0  0  0
  2  3  1  0  0  0
  2 21  1  0  0  0
  3  4  2  0  0  0
  3 22  1  0  0  0
  4  5  1  0  0  0
  4 18  1  0  0  0
  5  6  2  0  0  0
  5  8  1  0  0  0
  6 23  1  0  0  0
  7  8  2  0  0  0
  7  9  1  0  0  0
  7 18  1  0  0  0
  8 12  1  0  0  0
  9 10  2  0  0  0
  9 24  1  0  0  0
 10 11  1  0  0  0
 11 12  2  0  0  0
 11 13  1  0  0  0
 12 25  1  0  0  0
 13 14  2  0  0  0
 13 15  1  0  0  0
 15 17  1  0  0  0
 16 17  1  0  0  0
 16 26  1  0  0  0
 16 27  1  0  0  0
 16 28  1  0  0  0
 17 29  1  0  0  0
 17 30  1  0  0  0
 18 19  2  0  0  0
M  END
>  <Name>
5-35

>  <Family>
M.4

>  <IC50_uM>
26.000000

>  <set>
2

$$$$
5-36
  Cerius2 12180215293D 1   1.00000                          
 Structure written by MMmdl.
 32 34  0  0  0  0  0  0  0  0999 V2000
   -3.1269   -1.7126   -0.2586 C   0  0  0  0  0  0
   -3.1850   -3.0635    0.1175 C   0  0  0  0  0  0
   -2.0458   -3.7171    0.5905 C   0  0  0  0  0  0
   -0.8676   -2.9890    0.6737 C   0  0  0  0  0  0
   -0.7721   -1.6595    0.3132 C   0  0  0  0  0  0
   -1.9266   -1.0002   -0.1653 C   0  0  0  0  0  0
    1.3104   -2.2442    1.0017 C   0  0  0  0  0  0
    0.5317   -1.2151    0.5098 C   0  0  0  0  0  0
    2.6427   -2.0296    1.2725 C   0  0  0  0  0  0
    3.2422   -0.8247    1.0738 N   0  0  0  0  0  0
    2.4684    0.1972    0.5848 C   0  0  0  0  0  0
    1.1154    0.0503    0.2896 C   0  0  0  0  0  0
    3.1907    1.5004    0.3881 C   0  0  0  0  0  0
    4.3774    1.6744    0.6379 O   0  0  0  0  0  0
    2.3496    2.4499   -0.1020 O   0  0  0  0  0  0
    1.8856    4.6663   -0.8697 C   0  0  0  0  0  0
    2.9506    3.7351   -0.3249 C   0  0  0  0  0  0
    0.4568   -3.4354    1.1329 C   0  0  0  0  0  0
    0.6926   -4.6433    1.5403 N   0  0  0  0  0  0
    2.0203   -4.8282    1.9243 O   0  0  0  0  0  0
   -4.0239   -1.2157   -0.6259 H   0  0  0  0  0  0
   -4.1269   -3.6049    0.0393 H   0  0  0  0  0  0
   -2.0827   -4.7619    0.8835 H   0  0  0  0  0  0
   -1.8904    0.0462   -0.4587 H   0  0  0  0  0  0
    3.2900   -2.8085    1.6596 H   0  0  0  0  0  0
    0.5205    0.8704   -0.0960 H   0  0  0  0  0  0
    2.2964    5.6624   -1.0565 H   0  0  0  0  0  0
    1.0525    4.7535   -0.1644 H   0  0  0  0  0  0
    1.4715    4.2733   -1.8041 H   0  0  0  0  0  0
    3.7667    3.6385   -1.0495 H   0  0  0  0  0  0
    3.3398    4.1275    0.6211 H   0  0  0  0  0  0
    2.0504   -5.7701    2.2032 H   0  0  0  0  0  0
  1  2  2  0  0  0
  1  6  1  0  0  0
  1 21  1  0  0  0
  2  3  1  0  0  0
  2 22  1  0  0  0
  3  4  2  0  0  0
  3 23  1  0  0  0
  4  5  1  0  0  0
  4 18  1  0  0  0
  5  6  2  0  0  0
  5  8  1  0  0  0
  6 24  1  0  0  0
  7  8  2  0  0  0
  7  9  1  0  0  0
  7 18  1  0  0  0
  8 12  1  0  0  0
  9 10  2  0  0  0
  9 25  1  0  0  0
 10 11  1  0  0  0
 11 12  2  0  0  0
 11 13  1  0  0  0
 12 26  1  0  0  0
 13 14  2  0  0  0
 13 15  1  0  0  0
 15 17  1  0  0  0
 16 17  1  0  0  0
 16 27  1  0  0  0
 16 28  1  0  0  0
 16 29  1  0  0  0
 17 30  1  0  0  0
 17 31  1  0  0  0
 18 19  2  0  0  0
 19 20  1  0  0  0
 20 32  1  0  0  0
M  END
>  <Name>
5-36

>  <Family>
M.4

>  <IC50_uM>
5.000000

>  <set>
1

$$$$
5-37
  Cerius2 12180215293D 1   1.00000                          
 Structure written by MMmdl.
 29 31  0  0  0  0  0  0  0  0999 V2000
   -3.2270   -2.2844   -0.1799 C   0  0  0  0  0  0
   -3.1382   -3.6086    0.2564 C   0  0  0  0  0  0
   -1.9378   -4.1285    0.7517 C   0  0  0  0  0  0
   -0.8497   -3.2594    0.7840 C   0  0  0  0  0  0
   -0.8958   -1.9349    0.3594 C   0  0  0  0  0  0
   -2.1140   -1.4326   -0.1354 C   0  0  0  0  0  0
    1.1631   -2.4561    1.0938 C   0  0  0  0  0  0
    0.4154   -1.4121    0.5611 C   0  0  0  0  0  0
    2.5012   -2.3339    1.4279 C   0  0  0  0  0  0
    3.1137   -1.1366    1.2255 N   0  0  0  0  0  0
    2.3962   -0.0947    0.7015 C   0  0  0  0  0  0
    1.0468   -0.1758    0.3519 C   0  0  0  0  0  0
    3.1796    1.1774    0.5227 C   0  0  0  0  0  0
    4.3622    1.3048    0.8168 O   0  0  0  0  0  0
    2.3990    2.1571   -0.0068 O   0  0  0  0  0  0
    2.0595    4.3830   -0.8109 C   0  0  0  0  0  0
    3.0620    3.4137   -0.2159 C   0  0  0  0  0  0
    0.3984   -3.5751    1.2292 O   0  0  0  0  0  0
   -4.1753   -1.9061   -0.5611 H   0  0  0  0  0  0
   -4.0191   -4.2487    0.2106 H   0  0  0  0  0  0
   -1.8571   -5.1548    1.0932 H   0  0  0  0  0  0
   -2.1977   -0.4039   -0.4784 H   0  0  0  0  0  0
    3.0858   -3.1453    1.8430 H   0  0  0  0  0  0
    0.5011    0.6643   -0.0610 H   0  0  0  0  0  0
    2.5191    5.3591   -0.9896 H   0  0  0  0  0  0
    1.2035    4.5122   -0.1403 H   0  0  0  0  0  0
    1.6666    3.9981   -1.7578 H   0  0  0  0  0  0
    3.9015    3.2761   -0.9063 H   0  0  0  0  0  0
    3.4292    3.7990    0.7417 H   0  0  0  0  0  0
  1  2  2  0  0  0
  1  6  1  0  0  0
  1 19  1  0  0  0
  2  3  1  0  0  0
  2 20  1  0  0  0
  3  4  2  0  0  0
  3 21  1  0  0  0
  4  5  1  0  0  0
  4 18  1  0  0  0
  5  6  2  0  0  0
  5  8  1  0  0  0
  6 22  1  0  0  0
  7  8  2  0  0  0
  7  9  1  0  0  0
  7 18  1  0  0  0
  8 12  1  0  0  0
  9 10  2  0  0  0
  9 23  1  0  0  0
 10 11  1  0  0  0
 11 12  2  0  0  0
 11 13  1  0  0  0
 12 24  1  0  0  0
 13 14  2  0  0  0
 13 15  1  0  0  0
 15 17  1  0  0  0
 16 17  1  0  0  0
 16 25  1  0  0  0
 16 26  1  0  0  0
 16 27  1  0  0  0
 17 28  1  0  0  0
 17 29  1  0  0  0
M  END
>  <Name>
5-37

>  <Family>
M.4

>  <IC50_uM>
9.200000

>  <set>
2

$$$$
5-38
  Cerius2 12180215293D 1   1.00000                          
 Structure written by MMmdl.
 31 33  0  0  0  0  0  0  0  0999 V2000
   -3.1390   -2.1301   -0.3272 C   0  0  0  0  0  0
   -3.1722   -3.4824    0.0400 C   0  0  0  0  0  0
   -2.0207   -4.1213    0.5049 C   0  0  0  0  0  0
   -0.8438   -3.3881    0.5953 C   0  0  0  0  0  0
   -0.7861   -2.0482    0.2376 C   0  0  0  0  0  0
   -1.9505   -1.4023   -0.2325 C   0  0  0  0  0  0
    1.2922   -2.6088    0.9123 C   0  0  0  0  0  0
    0.5083   -1.5790    0.4304 C   0  0  0  0  0  0
    2.6240   -2.3928    1.1850 C   0  0  0  0  0  0
    3.2144   -1.1883    0.9978 N   0  0  0  0  0  0
    2.4347   -0.1651    0.5185 C   0  0  0  0  0  0
    1.0829   -0.3103    0.2213 C   0  0  0  0  0  0
    3.1524    1.1420    0.3343 C   0  0  0  0  0  0
    4.3385    1.3185    0.5861 O   0  0  0  0  0  0
    2.3089    2.0941   -0.1475 O   0  0  0  0  0  0
    1.8396    4.3158   -0.8957 C   0  0  0  0  0  0
    2.9066    3.3827   -0.3580 C   0  0  0  0  0  0
    0.5028   -3.8770    1.0674 C   0  0  0  0  0  0
   -4.0448   -1.6452   -0.6879 H   0  0  0  0  0  0
   -4.1052   -4.0392   -0.0384 H   0  0  0  0  0  0
   -2.0496   -5.1705    0.7890 H   0  0  0  0  0  0
   -1.9290   -0.3535   -0.5183 H   0  0  0  0  0  0
    3.2631   -3.1854    1.5650 H   0  0  0  0  0  0
    0.4841    0.5101   -0.1563 H   0  0  0  0  0  0
    2.2478    5.3146   -1.0729 H   0  0  0  0  0  0
    1.0054    4.3942   -0.1907 H   0  0  0  0  0  0
    1.4278    3.9300   -1.8342 H   0  0  0  0  0  0
    3.7238    3.2950   -1.0825 H   0  0  0  0  0  0
    3.2935    3.7677    0.5920 H   0  0  0  0  0  0
    0.8866   -4.6662    0.4148 H   0  0  0  0  0  0
    0.4624   -4.1943    2.1132 H   0  0  0  0  0  0
  1  2  2  0  0  0
  1  6  1  0  0  0
  1 19  1  0  0  0
  2  3  1  0  0  0
  2 20  1  0  0  0
  3  4  2  0  0  0
  3 21  1  0  0  0
  4  5  1  0  0  0
  4 18  1  0  0  0
  5  6  2  0  0  0
  5  8  1  0  0  0
  6 22  1  0  0  0
  7  8  2  0  0  0
  7  9  1  0  0  0
  7 18  1  0  0  0
  8 12  1  0  0  0
  9 10  2  0  0  0
  9 23  1  0  0  0
 10 11  1  0  0  0
 11 12  2  0  0  0
 11 13  1  0  0  0
 12 24  1  0  0  0
 13 14  2  0  0  0
 13 15  1  0  0  0
 15 17  1  0  0  0
 16 17  1  0  0  0
 16 25  1  0  0  0
 16 26  1  0  0  0
 16 27  1  0  0  0
 17 28  1  0  0  0
 17 29  1  0  0  0
 18 30  1  0  0  0
 18 31  1  0  0  0
M  END
>  <Name>
5-38

>  <Family>
M.4

>  <IC50_uM>
0.680000

>  <set>
1

$$$$
2-49
  Cerius2 12180215293D 1   1.00000                          
 Structure written by MMmdl.
 41 44  0  0  0  0  0  0  0  0999 V2000
   -3.2067   -3.0929    0.3420 C   0  0  0  0  0  0
   -3.2366   -3.2578    1.7253 C   0  0  0  0  0  0
   -2.5682   -2.3677    2.5711 C   0  0  0  0  0  0
   -1.8692   -1.3089    1.9784 C   0  0  0  0  0  0
   -1.8182   -1.1209    0.5943 C   0  0  0  0  0  0
   -2.5031   -2.0296   -0.2367 C   0  0  0  0  0  0
   -1.1410   -0.2925    2.5622 N   0  0  0  0  0  0
   -0.6130    0.5159    1.5877 C   0  0  0  0  0  0
   -1.0303    0.0400    0.3659 C   0  0  0  0  0  0
    0.2390    1.7153    1.8487 C   0  0  0  0  0  0
    0.4878    2.4828    0.6097 N   0  0  0  0  0  0
    0.4911    1.7403   -0.6930 C   0  0  0  0  0  0
   -0.6737    0.7372   -0.8967 C   0  0  0  0  0  0
    1.5019    1.4524    2.6660 C   0  0  0  0  0  0
    2.1710    0.2165    2.6714 C   0  0  0  0  0  0
    3.3161    0.0215    3.4490 C   0  0  0  0  0  0
    3.8159    1.0594    4.2312 C   0  0  0  0  0  0
    3.1745    2.2953    4.2342 C   0  0  0  0  0  0
    2.0300    2.4908    3.4572 C   0  0  0  0  0  0
    1.8608    1.0925   -1.0037 C   0  0  0  0  0  0
    2.7947    1.0114   -0.2085 O   0  0  0  0  0  0
    2.0239    0.5777   -2.2561 O   0  0  0  0  0  0
    1.4936    1.2909   -3.3863 C   0  0  0  0  0  0
   -3.7359   -3.7977   -0.2986 H   0  0  0  0  0  0
   -3.7903   -4.0915    2.1565 H   0  0  0  0  0  0
   -2.5951   -2.4962    3.6506 H   0  0  0  0  0  0
   -2.4875   -1.9133   -1.3183 H   0  0  0  0  0  0
   -1.0059   -0.1772    3.5608 H   0  0  0  0  0  0
   -0.3835    2.3743    2.4722 H   0  0  0  0  0  0
    1.3729    2.9856    0.7083 H   0  0  0  0  0  0
    0.3724    2.5353   -1.4379 H   0  0  0  0  0  0
   -1.5592    1.2902   -1.2357 H   0  0  0  0  0  0
   -0.4392   -0.0084   -1.6632 H   0  0  0  0  0  0
    1.8125   -0.6101    2.0594 H   0  0  0  0  0  0
    3.8196   -0.9437    3.4392 H   0  0  0  0  0  0
    4.7075    0.9055    4.8360 H   0  0  0  0  0  0
    3.5639    3.1095    4.8429 H   0  0  0  0  0  0
    1.5421    3.4659    3.4748 H   0  0  0  0  0  0
    2.0596    0.9774   -4.2679 H   0  0  0  0  0  0
    1.6251    2.3703   -3.2660 H   0  0  0  0  0  0
    0.4433    1.0338   -3.5417 H   0  0  0  0  0  0
  1  2  2  0  0  0
  1  6  1  0  0  0
  1 24  1  0  0  0
  2  3  1  0  0  0
  2 25  1  0  0  0
  3  4  2  0  0  0
  3 26  1  0  0  0
  4  5  1  0  0  0
  4  7  1  0  0  0
  5  6  2  0  0  0
  5  9  1  0  0  0
  6 27  1  0  0  0
  7  8  1  0  0  0
  7 28  1  0  0  0
  8  9  2  0  0  0
  8 10  1  0  0  0
  9 13  1  0  0  0
 10 11  1  0  0  0
 10 14  1  0  0  0
 10 29  1  0  0  0
 11 12  1  0  0  0
 11 30  1  0  0  0
 12 13  1  0  0  0
 12 20  1  0  0  0
 12 31  1  0  0  0
 13 32  1  0  0  0
 13 33  1  0  0  0
 14 15  2  0  0  0
 14 19  1  0  0  0
 15 16  1  0  0  0
 15 34  1  0  0  0
 16 17  2  0  0  0
 16 35  1  0  0  0
 17 18  1  0  0  0
 17 36  1  0  0  0
 18 19  2  0  0  0
 18 37  1  0  0  0
 19 38  1  0  0  0
 20 21  2  0  0  0
 20 22  1  0  0  0
 22 23  1  0  0  0
 23 39  1  0  0  0
 23 40  1  0  0  0
 23 41  1  0  0  0
M  END
>  <Name>
2-49

>  <Family>
M.5

>  <IC50_uM>
54.000000

>  <set>
1

$$$$
2-21
  Cerius2 12180215293D 1   1.00000                          
 Structure written by MMmdl.
 34 36  0  0  0  0  0  0  0  0999 V2000
   -3.2846   -1.3451   -1.2112 C   0  0  0  0  0  0
   -3.1032   -2.6910   -0.9079 C   0  0  0  0  0  0
   -1.8864   -3.1566   -0.4000 C   0  0  0  0  0  0
   -0.8507   -2.2276   -0.2029 C   0  0  0  0  0  0
   -1.0122   -0.8698   -0.5051 C   0  0  0  0  0  0
   -2.2486   -0.4256   -1.0155 C   0  0  0  0  0  0
    0.4376   -2.3933    0.2815 N   0  0  0  0  0  0
    1.0944   -1.1888    0.2630 C   0  0  0  0  0  0
    0.2162   -0.2294   -0.1998 C   0  0  0  0  0  0
    2.4979   -0.9396    0.7000 C   0  0  0  0  0  0
    2.9804    0.3487    0.1661 N   0  0  0  0  0  0
    1.9737    1.4426    0.3982 C   0  0  0  0  0  0
    0.6288    1.1985   -0.3327 C   0  0  0  0  0  0
    2.5417    2.7871   -0.0780 C   0  0  0  0  0  0
    3.4977    2.9361   -0.8346 O   0  0  0  0  0  0
    1.8167    3.8161    0.4576 O   0  0  0  0  0  0
    2.2621    5.1209    0.0726 C   0  0  0  0  0  0
    0.9895   -3.6555    0.7312 C   0  0  0  0  0  0
   -4.2401   -1.0029   -1.6061 H   0  0  0  0  0  0
   -3.9202   -3.3939   -1.0681 H   0  0  0  0  0  0
   -1.7570   -4.2112   -0.1686 H   0  0  0  0  0  0
   -2.4016    0.6236   -1.2591 H   0  0  0  0  0  0
    3.1650   -1.7319    0.3447 H   0  0  0  0  0  0
    2.5519   -0.9246    1.7944 H   0  0  0  0  0  0
    3.0763    0.2417   -0.8495 H   0  0  0  0  0  0
    1.8209    1.5192    1.4832 H   0  0  0  0  0  0
   -0.1450    1.8537    0.0845 H   0  0  0  0  0  0
    0.7225    1.4419   -1.3989 H   0  0  0  0  0  0
    3.2908    5.2865    0.4068 H   0  0  0  0  0  0
    1.6152    5.8561    0.5589 H   0  0  0  0  0  0
    2.1796    5.2469   -1.0113 H   0  0  0  0  0  0
    1.8403   -3.4737    1.3912 H   0  0  0  0  0  0
    1.3043   -4.2196   -0.1500 H   0  0  0  0  0  0
    0.2238   -4.2020    1.2874 H   0  0  0  0  0  0
  1  2  2  0  0  0
  1  6  1  0  0  0
  1 19  1  0  0  0
  2  3  1  0  0  0
  2 20  1  0  0  0
  3  4  2  0  0  0
  3 21  1  0  0  0
  4  5  1  0  0  0
  4  7  1  0  0  0
  5  6  2  0  0  0
  5  9  1  0  0  0
  6 22  1  0  0  0
  7  8  1  0  0  0
  7 18  1  0  0  0
  8  9  2  0  0  0
  8 10  1  0  0  0
  9 13  1  0  0  0
 10 11  1  0  0  0
 10 23  1  0  0  0
 10 24  1  0  0  0
 11 12  1  0  0  0
 11 25  1  0  0  0
 12 13  1  0  0  0
 12 14  1  0  0  0
 12 26  1  0  0  0
 13 27  1  0  0  0
 13 28  1  0  0  0
 14 15  2  0  0  0
 14 16  1  0  0  0
 16 17  1  0  0  0
 17 29  1  0  0  0
 17 30  1  0  0  0
 17 31  1  0  0  0
 18 32  1  0  0  0
 18 33  1  0  0  0
 18 34  1  0  0  0
M  END
>  <Name>
2-21

>  <Family>
M.5

>  <IC50_uM>
4.500000

>  <set>
1

$$$$
2-50
  Cerius2 12180215293D 1   1.00000                          
 Structure written by MMmdl.
 44 47  0  0  0  0  0  0  0  0999 V2000
   -3.2775   -2.7595   -0.4861 C   0  0  0  0  0  0
   -2.9176   -3.5265    0.6175 C   0  0  0  0  0  0
   -2.1115   -2.9968    1.6298 C   0  0  0  0  0  0
   -1.6738   -1.6673    1.5026 C   0  0  0  0  0  0
   -2.0177   -0.8824    0.3968 C   0  0  0  0  0  0
   -2.8353   -1.4380   -0.6081 C   0  0  0  0  0  0
   -0.8899   -0.8856    2.3377 N   0  0  0  0  0  0
   -0.6969    0.3520    1.7676 C   0  0  0  0  0  0
   -1.4059    0.3840    0.5818 C   0  0  0  0  0  0
    0.1351    1.4751    2.3257 C   0  0  0  0  0  0
   -0.1849    2.7427    1.6262 N   0  0  0  0  0  0
   -0.3619    2.6231    0.1455 C   0  0  0  0  0  0
   -1.4593    1.6110   -0.2634 C   0  0  0  0  0  0
    0.9946    2.4619   -0.5683 C   0  0  0  0  0  0
    1.9508    3.2119   -0.3727 O   0  0  0  0  0  0
    1.0084    1.4325   -1.4576 O   0  0  0  0  0  0
    2.2434    1.2587   -2.1590 C   0  0  0  0  0  0
   -0.3479   -1.3417    3.6025 C   0  0  0  0  0  0
    1.6371    1.2005    2.3888 C   0  0  0  0  0  0
    2.2829    0.2514    1.5776 C   0  0  0  0  0  0
    3.6603    0.0378    1.6792 C   0  0  0  0  0  0
    4.4169    0.7705    2.5899 C   0  0  0  0  0  0
    3.7985    1.7184    3.4005 C   0  0  0  0  0  0
    2.4220    1.9322    3.3005 C   0  0  0  0  0  0
   -3.9074   -3.1900   -1.2632 H   0  0  0  0  0  0
   -3.2691   -4.5548    0.6966 H   0  0  0  0  0  0
   -1.8382   -3.6067    2.4875 H   0  0  0  0  0  0
   -3.1209   -0.8490   -1.4770 H   0  0  0  0  0  0
   -0.2002    1.6237    3.3613 H   0  0  0  0  0  0
    0.5637    3.4150    1.8130 H   0  0  0  0  0  0
   -0.7177    3.6011   -0.2078 H   0  0  0  0  0  0
   -2.4412    2.0768   -0.1044 H   0  0  0  0  0  0
   -1.4012    1.3515   -1.3257 H   0  0  0  0  0  0
    3.0665    1.0918   -1.4578 H   0  0  0  0  0  0
    2.4437    2.1282   -2.7924 H   0  0  0  0  0  0
    2.1477    0.3765   -2.7978 H   0  0  0  0  0  0
   -0.0772   -0.4881    4.2259 H   0  0  0  0  0  0
    0.5319   -1.9546    3.3924 H   0  0  0  0  0  0
   -1.1093   -1.9267    4.1247 H   0  0  0  0  0  0
    1.7225   -0.3380    0.8533 H   0  0  0  0  0  0
    4.1426   -0.7031    1.0439 H   0  0  0  0  0  0
    5.4895    0.6029    2.6674 H   0  0  0  0  0  0
    4.3876    2.2935    4.1127 H   0  0  0  0  0  0
    1.9579    2.6785    3.9456 H   0  0  0  0  0  0
  1  2  2  0  0  0
  1  6  1  0  0  0
  1 25  1  0  0  0
  2  3  1  0  0  0
  2 26  1  0  0  0
  3  4  2  0  0  0
  3 27  1  0  0  0
  4  5  1  0  0  0
  4  7  1  0  0  0
  5  6  2  0  0  0
  5  9  1  0  0  0
  6 28  1  0  0  0
  7  8  1  0  0  0
  7 18  1  0  0  0
  8  9  2  0  0  0
  8 10  1  0  0  0
  9 13  1  0  0  0
 10 11  1  0  0  0
 10 19  1  0  0  0
 10 29  1  0  0  0
 11 12  1  0  0  0
 11 30  1  0  0  0
 12 13  1  0  0  0
 12 14  1  0  0  0
 12 31  1  0  0  0
 13 32  1  0  0  0
 13 33  1  0  0  0
 14 15  2  0  0  0
 14 16  1  0  0  0
 16 17  1  0  0  0
 17 34  1  0  0  0
 17 35  1  0  0  0
 17 36  1  0  0  0
 18 37  1  0  0  0
 18 38  1  0  0  0
 18 39  1  0  0  0
 19 20  2  0  0  0
 19 24  1  0  0  0
 20 21  1  0  0  0
 20 40  1  0  0  0
 21 22  2  0  0  0
 21 41  1  0  0  0
 22 23  1  0  0  0
 22 42  1  0  0  0
 23 24  2  0  0  0
 23 43  1  0  0  0
 24 44  1  0  0  0
M  END
>  <Name>
2-50

>  <Family>
M.5

>  <IC50_uM>
>100

>  <set>
2

$$$$
2-59
  Cerius2 12180215293D 1   1.00000                          
 Structure written by MMmdl.
 39 42  0  0  0  0  0  0  0  0999 V2000
   -3.0871   -3.2376   -0.8437 C   0  0  0  0  0  0
   -3.5457   -3.1918    0.4712 C   0  0  0  0  0  0
   -3.0980   -2.2069    1.3571 C   0  0  0  0  0  0
   -2.1747   -1.2700    0.8758 C   0  0  0  0  0  0
   -1.6988   -1.2912   -0.4402 C   0  0  0  0  0  0
   -2.1640   -2.2948   -1.3123 C   0  0  0  0  0  0
   -1.5714   -0.2072    1.5225 N   0  0  0  0  0  0
   -0.7327    0.4349    0.6527 C   0  0  0  0  0  0
   -0.7932   -0.2072   -0.5634 C   0  0  0  0  0  0
    0.0975    1.6362    0.9604 C   0  0  0  0  0  0
    0.2314    2.4648   -0.2462 N   0  0  0  0  0  0
    0.2710    1.8205   -1.5849 C   0  0  0  0  0  0
    0.0404    0.2807   -1.6920 C   0  0  0  0  0  0
    1.4553    1.3445    1.5954 C   0  0  0  0  0  0
    2.1566    0.1420    1.4060 C   0  0  0  0  0  0
    3.4092   -0.0599    1.9931 C   0  0  0  0  0  0
    3.9855    0.9375    2.7754 C   0  0  0  0  0  0
    3.3117    2.1394    2.9713 C   0  0  0  0  0  0
    2.0602    2.3418    2.3853 C   0  0  0  0  0  0
    1.5408    2.2322   -2.3655 C   0  0  0  0  0  0
    2.7362    1.7083   -1.7825 O   0  0  0  0  0  0
   -3.4492   -4.0144   -1.5157 H   0  0  0  0  0  0
   -4.2640   -3.9349    0.8163 H   0  0  0  0  0  0
   -3.4566   -2.1745    2.3830 H   0  0  0  0  0  0
   -1.8134   -2.3417   -2.3410 H   0  0  0  0  0  0
   -1.7297    0.0479    2.4911 H   0  0  0  0  0  0
   -0.4698    2.2334    1.6880 H   0  0  0  0  0  0
    0.9506    3.1767   -0.1256 H   0  0  0  0  0  0
   -0.5698    2.2825   -2.1211 H   0  0  0  0  0  0
   -0.4365    0.0485   -2.6514 H   0  0  0  0  0  0
    0.9967   -0.2554   -1.6644 H   0  0  0  0  0  0
    1.7393   -0.6575    0.7968 H   0  0  0  0  0  0
    3.9359   -0.9998    1.8360 H   0  0  0  0  0  0
    4.9612    0.7782    3.2307 H   0  0  0  0  0  0
    3.7603    2.9228    3.5796 H   0  0  0  0  0  0
    1.5519    3.2927    2.5475 H   0  0  0  0  0  0
    1.6358    3.3230   -2.4052 H   0  0  0  0  0  0
    1.4877    1.8699   -3.3975 H   0  0  0  0  0  0
    2.6526    1.8564   -0.8173 H   0  0  0  0  0  0
  1  2  2  0  0  0
  1  6  1  0  0  0
  1 22  1  0  0  0
  2  3  1  0  0  0
  2 23  1  0  0  0
  3  4  2  0  0  0
  3 24  1  0  0  0
  4  5  1  0  0  0
  4  7  1  0  0  0
  5  6  2  0  0  0
  5  9  1  0  0  0
  6 25  1  0  0  0
  7  8  1  0  0  0
  7 26  1  0  0  0
  8  9  2  0  0  0
  8 10  1  0  0  0
  9 13  1  0  0  0
 10 11  1  0  0  0
 10 14  1  0  0  0
 10 27  1  0  0  0
 11 12  1  0  0  0
 11 28  1  0  0  0
 12 13  1  0  0  0
 12 20  1  0  0  0
 12 29  1  0  0  0
 13 30  1  0  0  0
 13 31  1  0  0  0
 14 15  2  0  0  0
 14 19  1  0  0  0
 15 16  1  0  0  0
 15 32  1  0  0  0
 16 17  2  0  0  0
 16 33  1  0  0  0
 17 18  1  0  0  0
 17 34  1  0  0  0
 18 19  2  0  0  0
 18 35  1  0  0  0
 19 36  1  0  0  0
 20 21  1  0  0  0
 20 37  1  0  0  0
 20 38  1  0  0  0
 21 39  1  0  0  0
M  END
>  <Name>
2-59

>  <Family>
M.5

>  <IC50_uM>
6.110000

>  <set>
2

$$$$
2-57
  Cerius2 12180215293D 1   1.00000                          
 Structure written by MMmdl.
 34 36  0  0  0  0  0  0  0  0999 V2000
   -3.5776   -1.7123   -1.2408 C   0  0  0  0  0  0
   -3.3878   -3.0491   -0.8973 C   0  0  0  0  0  0
   -2.1696   -3.4925   -0.3733 C   0  0  0  0  0  0
   -1.1499   -2.5467   -0.2083 C   0  0  0  0  0  0
   -1.3125   -1.1998   -0.5444 C   0  0  0  0  0  0
   -2.5497   -0.7773   -1.0690 C   0  0  0  0  0  0
    0.1320   -2.7028    0.2828 N   0  0  0  0  0  0
    0.7893   -1.5002    0.2474 C   0  0  0  0  0  0
   -0.0870   -0.5508   -0.2403 C   0  0  0  0  0  0
    2.1876   -1.2528    0.7218 C   0  0  0  0  0  0
    2.6619    0.0538    0.2083 N   0  0  0  0  0  0
    1.6339    1.1333    0.4068 C   0  0  0  0  0  0
    0.3224    0.8763   -0.3776 C   0  0  0  0  0  0
    3.1644   -2.3351    0.2650 C   0  0  0  0  0  0
    2.2029    2.4860   -0.0432 C   0  0  0  0  0  0
    3.1753    2.6487   -0.7759 O   0  0  0  0  0  0
    1.4568    3.5048    0.4828 O   0  0  0  0  0  0
    1.9014    4.8160    0.1199 C   0  0  0  0  0  0
   -4.5352   -1.3892   -1.6469 H   0  0  0  0  0  0
   -4.2004   -3.7612   -1.0380 H   0  0  0  0  0  0
   -2.0245   -4.5360   -0.1049 H   0  0  0  0  0  0
   -2.7108    0.2638   -1.3402 H   0  0  0  0  0  0
    0.5166   -3.5803    0.6145 H   0  0  0  0  0  0
    2.1895   -1.2171    1.8182 H   0  0  0  0  0  0
    2.8071   -0.0401   -0.8021 H   0  0  0  0  0  0
    1.4387    1.2032    1.4854 H   0  0  0  0  0  0
   -0.4706    1.5339   -0.0023 H   0  0  0  0  0  0
    0.4603    1.1056   -1.4420 H   0  0  0  0  0  0
    4.1851   -2.1046    0.5907 H   0  0  0  0  0  0
    3.1721   -2.4418   -0.8262 H   0  0  0  0  0  0
    2.8994   -3.3097    0.6898 H   0  0  0  0  0  0
    2.9213    4.9858    0.4786 H   0  0  0  0  0  0
    1.2387    5.5423    0.5982 H   0  0  0  0  0  0
    1.8423    4.9515   -0.9644 H   0  0  0  0  0  0
  1  2  2  0  0  0
  1  6  1  0  0  0
  1 19  1  0  0  0
  2  3  1  0  0  0
  2 20  1  0  0  0
  3  4  2  0  0  0
  3 21  1  0  0  0
  4  5  1  0  0  0
  4  7  1  0  0  0
  5  6  2  0  0  0
  5  9  1  0  0  0
  6 22  1  0  0  0
  7  8  1  0  0  0
  7 23  1  0  0  0
  8  9  2  0  0  0
  8 10  1  0  0  0
  9 13  1  0  0  0
 10 11  1  0  0  0
 10 14  1  0  0  0
 10 24  1  0  0  0
 11 12  1  0  0  0
 11 25  1  0  0  0
 12 13  1  0  0  0
 12 15  1  0  0  0
 12 26  1  0  0  0
 13 27  1  0  0  0
 13 28  1  0  0  0
 14 29  1  0  0  0
 14 30  1  0  0  0
 14 31  1  0  0  0
 15 16  2  0  0  0
 15 17  1  0  0  0
 17 18  1  0  0  0
 18 32  1  0  0  0
 18 33  1  0  0  0
 18 34  1  0  0  0
M  END
>  <Name>
2-57

>  <Family>
M.5

>  <IC50_uM>
>50

>  <set>
1

$$$$
2-17
  Cerius2 12180215293D 1   1.00000                          
 Structure written by MMmdl.
 35 37  0  0  0  0  0  0  0  0999 V2000
   -3.9614   -1.7226   -1.2469 C   0  0  0  0  0  0
   -3.7728   -3.0533   -0.8797 C   0  0  0  0  0  0
   -2.5565   -3.4874   -0.3439 C   0  0  0  0  0  0
   -1.5370   -2.5389   -0.1926 C   0  0  0  0  0  0
   -1.6983   -1.1987   -0.5527 C   0  0  0  0  0  0
   -2.9340   -0.7849   -1.0878 C   0  0  0  0  0  0
   -0.2577   -2.6862    0.3077 N   0  0  0  0  0  0
    0.4038   -1.4858    0.2478 C   0  0  0  0  0  0
   -0.4740   -0.5446   -0.2546 C   0  0  0  0  0  0
    1.8061   -1.2309    0.7217 C   0  0  0  0  0  0
    2.2651    0.0948    0.2157 N   0  0  0  0  0  0
    1.2211    1.1578    0.3990 C   0  0  0  0  0  0
   -0.0717    0.8826   -0.4070 C   0  0  0  0  0  0
    1.7771    2.5193   -0.0412 C   0  0  0  0  0  0
    2.7482    2.6970   -0.7721 O   0  0  0  0  0  0
    1.0191    3.5268    0.4896 O   0  0  0  0  0  0
    1.4497    4.8450    0.1349 C   0  0  0  0  0  0
    2.7971   -2.3391    0.2812 C   0  0  0  0  0  0
    4.0932   -2.1501    0.8680 O   0  0  0  0  0  0
   -4.9177   -1.4065   -1.6614 H   0  0  0  0  0  0
   -4.5851   -3.7677   -1.0104 H   0  0  0  0  0  0
   -2.4127   -4.5259   -0.0561 H   0  0  0  0  0  0
   -3.0942    0.2514   -1.3771 H   0  0  0  0  0  0
    0.1182   -3.5582    0.6633 H   0  0  0  0  0  0
    1.8093   -1.1801    1.8180 H   0  0  0  0  0  0
    2.4359    0.0027   -0.7901 H   0  0  0  0  0  0
    1.0076    1.2237    1.4743 H   0  0  0  0  0  0
   -0.8758    1.5409   -0.0573 H   0  0  0  0  0  0
    0.0857    1.0969   -1.4718 H   0  0  0  0  0  0
    2.4676    5.0236    0.4948 H   0  0  0  0  0  0
    0.7790    5.5611    0.6175 H   0  0  0  0  0  0
    1.3892    4.9865   -0.9486 H   0  0  0  0  0  0
    2.9100   -2.3556   -0.8093 H   0  0  0  0  0  0
    2.4420   -3.3248    0.5999 H   0  0  0  0  0  0
    4.6515   -2.8687    0.5014 H   0  0  0  0  0  0
  1  2  2  0  0  0
  1  6  1  0  0  0
  1 20  1  0  0  0
  2  3  1  0  0  0
  2 21  1  0  0  0
  3  4  2  0  0  0
  3 22  1  0  0  0
  4  5  1  0  0  0
  4  7  1  0  0  0
  5  6  2  0  0  0
  5  9  1  0  0  0
  6 23  1  0  0  0
  7  8  1  0  0  0
  7 24  1  0  0  0
  8  9  2  0  0  0
  8 10  1  0  0  0
  9 13  1  0  0  0
 10 11  1  0  0  0
 10 18  1  0  0  0
 10 25  1  0  0  0
 11 12  1  0  0  0
 11 26  1  0  0  0
 12 13  1  0  0  0
 12 14  1  0  0  0
 12 27  1  0  0  0
 13 28  1  0  0  0
 13 29  1  0  0  0
 14 15  2  0  0  0
 14 16  1  0  0  0
 16 17  1  0  0  0
 17 30  1  0  0  0
 17 31  1  0  0  0
 17 32  1  0  0  0
 18 19  1  0  0  0
 18 33  1  0  0  0
 18 34  1  0  0  0
 19 35  1  0  0  0
M  END
>  <Name>
2-17

>  <Family>
M.5

>  <IC50_uM>
5.000000

>  <set>
2

$$$$
2-11a
  Cerius2 12180215293D 1   1.00000                          
 Structure written by MMmdl.
 37 39  0  0  0  0  0  0  0  0999 V2000
   -4.0758   -1.7353   -1.2964 C   0  0  0  0  0  0
   -3.8741   -3.0681   -0.9440 C   0  0  0  0  0  0
   -2.6522   -3.4970   -0.4167 C   0  0  0  0  0  0
   -1.6410   -2.5409   -0.2579 C   0  0  0  0  0  0
   -1.8155   -1.1981   -0.6029 C   0  0  0  0  0  0
   -3.0563   -0.7900   -1.1304 C   0  0  0  0  0  0
   -0.3584   -2.6819    0.2354 N   0  0  0  0  0  0
    0.2902   -1.4744    0.1906 C   0  0  0  0  0  0
   -0.5961   -0.5363   -0.3021 C   0  0  0  0  0  0
    1.6899   -1.2107    0.6660 C   0  0  0  0  0  0
    2.1413    0.1027    0.1473 N   0  0  0  0  0  0
    1.1017    1.1691    0.3424 C   0  0  0  0  0  0
   -0.2030    0.8945   -0.4456 C   0  0  0  0  0  0
    1.6553    2.5278   -0.1085 C   0  0  0  0  0  0
    2.6233    2.7020   -0.8443 O   0  0  0  0  0  0
    0.8995    3.5383    0.4202 O   0  0  0  0  0  0
    1.3285    4.8544    0.0561 C   0  0  0  0  0  0
    2.6739   -2.3119    0.2276 C   0  0  0  0  0  0
    4.0906   -2.0977    0.7486 C   0  0  0  0  0  0
   -5.0361   -1.4234   -1.7048 H   0  0  0  0  0  0
   -4.6803   -3.7883   -1.0801 H   0  0  0  0  0  0
   -2.4978   -4.5373   -0.1411 H   0  0  0  0  0  0
   -3.2267    0.2478   -1.4083 H   0  0  0  0  0  0
    0.0318   -3.5538    0.5750 H   0  0  0  0  0  0
    1.6781   -1.1636    1.7626 H   0  0  0  0  0  0
    2.2903    0.0067   -0.8618 H   0  0  0  0  0  0
    0.9027    1.2383    1.4203 H   0  0  0  0  0  0
   -1.0047    1.5450   -0.0765 H   0  0  0  0  0  0
   -0.0637    1.1200   -1.5106 H   0  0  0  0  0  0
    2.3467    5.0361    0.4137 H   0  0  0  0  0  0
    0.6579    5.5731    0.5347 H   0  0  0  0  0  0
    1.2668    4.9887   -1.0282 H   0  0  0  0  0  0
    2.7010   -2.3887   -0.8673 H   0  0  0  0  0  0
    2.3271   -3.2856    0.5957 H   0  0  0  0  0  0
    4.7253   -2.9444    0.4677 H   0  0  0  0  0  0
    4.0979   -2.0170    1.8402 H   0  0  0  0  0  0
    4.5410   -1.1922    0.3310 H   0  0  0  0  0  0
  1  2  2  0  0  0
  1  6  1  0  0  0
  1 20  1  0  0  0
  2  3  1  0  0  0
  2 21  1  0  0  0
  3  4  2  0  0  0
  3 22  1  0  0  0
  4  5  1  0  0  0
  4  7  1  0  0  0
  5  6  2  0  0  0
  5  9  1  0  0  0
  6 23  1  0  0  0
  7  8  1  0  0  0
  7 24  1  0  0  0
  8  9  2  0  0  0
  8 10  1  0  0  0
  9 13  1  0  0  0
 10 11  1  0  0  0
 10 18  1  0  0  0
 10 25  1  0  0  0
 11 12  1  0  0  0
 11 26  1  0  0  0
 12 13  1  0  0  0
 12 14  1  0  0  0
 12 27  1  0  0  0
 13 28  1  0  0  0
 13 29  1  0  0  0
 14 15  2  0  0  0
 14 16  1  0  0  0
 16 17  1  0  0  0
 17 30  1  0  0  0
 17 31  1  0  0  0
 17 32  1  0  0  0
 18 19  1  0  0  0
 18 33  1  0  0  0
 18 34  1  0  0  0
 19 35  1  0  0  0
 19 36  1  0  0  0
 19 37  1  0  0  0
M  END
>  <Name>
2-11a

>  <Family>
M.5

>  <IC50_uM>
>100

>  <set>
1

$$$$
2-14a
  Cerius2 12180215293D 1   1.00000                          
 Structure written by MMmdl.
 38 40  0  0  0  0  0  0  0  0999 V2000
   -3.9764   -1.6593   -1.1939 C   0  0  0  0  0  0
   -3.7956   -2.9948   -0.8547 C   0  0  0  0  0  0
   -2.5750   -3.4394   -0.3375 C   0  0  0  0  0  0
   -1.5537   -2.4937   -0.1794 C   0  0  0  0  0  0
   -1.7165   -1.1465   -0.5153 C   0  0  0  0  0  0
   -2.9562   -0.7186   -1.0335 C   0  0  0  0  0  0
   -0.2698   -2.6511    0.3053 N   0  0  0  0  0  0
    0.3912   -1.4505    0.2640 C   0  0  0  0  0  0
   -0.4877   -0.4998   -0.2175 C   0  0  0  0  0  0
    1.7965   -1.2050    0.7328 C   0  0  0  0  0  0
    2.2593    0.1060    0.2187 N   0  0  0  0  0  0
    1.2332    1.1829    0.4267 C   0  0  0  0  0  0
   -0.0793    0.9275   -0.3546 C   0  0  0  0  0  0
    1.7995    2.5378   -0.0197 C   0  0  0  0  0  0
    2.7633    2.7051   -0.7626 O   0  0  0  0  0  0
    1.0606    3.5538    0.5220 O   0  0  0  0  0  0
    1.5027    4.8670    0.1633 C   0  0  0  0  0  0
   -5.1939   -1.2915   -1.6930 O   0  0  0  0  0  0
    4.1878   -2.1183    0.7964 C   0  0  0  0  0  0
    2.7658   -2.3146    0.2829 C   0  0  0  0  0  0
   -4.6084   -3.7062   -0.9897 H   0  0  0  0  0  0
   -2.4293   -4.4827   -0.0692 H   0  0  0  0  0  0
   -3.1035    0.3243   -1.2994 H   0  0  0  0  0  0
    0.1133   -3.5292    0.6373 H   0  0  0  0  0  0
    1.7913   -1.1639    1.8298 H   0  0  0  0  0  0
    2.4010    0.0142   -0.7918 H   0  0  0  0  0  0
    1.0417    1.2479    1.5063 H   0  0  0  0  0  0
   -0.8715    1.5846    0.0234 H   0  0  0  0  0  0
    0.0558    1.1580   -1.4192 H   0  0  0  0  0  0
    2.5268    5.0330    0.5114 H   0  0  0  0  0  0
    0.8464    5.5906    0.6543 H   0  0  0  0  0  0
    1.4312    5.0103   -0.9193 H   0  0  0  0  0  0
   -5.1723   -0.3294   -1.8844 H   0  0  0  0  0  0
    4.8117   -2.9701    0.5071 H   0  0  0  0  0  0
    4.2025   -2.0436    1.8884 H   0  0  0  0  0  0
    4.6453   -1.2153    0.3810 H   0  0  0  0  0  0
    2.7855   -2.3861   -0.8126 H   0  0  0  0  0  0
    2.4107   -3.2862    0.6482 H   0  0  0  0  0  0
  1  2  2  0  0  0
  1  6  1  0  0  0
  1 18  1  0  0  0
  2  3  1  0  0  0
  2 21  1  0  0  0
  3  4  2  0  0  0
  3 22  1  0  0  0
  4  5  1  0  0  0
  4  7  1  0  0  0
  5  6  2  0  0  0
  5  9  1  0  0  0
  6 23  1  0  0  0
  7  8  1  0  0  0
  7 24  1  0  0  0
  8  9  2  0  0  0
  8 10  1  0  0  0
  9 13  1  0  0  0
 10 11  1  0  0  0
 10 20  1  0  0  0
 10 25  1  0  0  0
 11 12  1  0  0  0
 11 26  1  0  0  0
 12 13  1  0  0  0
 12 14  1  0  0  0
 12 27  1  0  0  0
 13 28  1  0  0  0
 13 29  1  0  0  0
 14 15  2  0  0  0
 14 16  1  0  0  0
 16 17  1  0  0  0
 17 30  1  0  0  0
 17 31  1  0  0  0
 17 32  1  0  0  0
 18 33  1  0  0  0
 19 20  1  0  0  0
 19 34  1  0  0  0
 19 35  1  0  0  0
 19 36  1  0  0  0
 20 37  1  0  0  0
 20 38  1  0  0  0
M  END
>  <Name>
2-14a

>  <Family>
M.5

>  <IC50_uM>
39.000000

>  <set>
1

$$$$
2-8
  Cerius2 12180215293D 1   1.00000                          
 Structure written by MMmdl.
 32 34  0  0  0  0  0  0  0  0999 V2000
   -3.1892   -1.6218   -1.1194 C   0  0  0  0  0  0
   -3.0095   -2.9701   -0.8341 C   0  0  0  0  0  0
   -1.7843   -3.4390   -0.3504 C   0  0  0  0  0  0
   -0.7574   -2.5040   -0.1673 C   0  0  0  0  0  0
   -0.9200   -1.1425   -0.4475 C   0  0  0  0  0  0
   -2.1636   -0.6913   -0.9356 C   0  0  0  0  0  0
    0.5346   -2.6865    0.2888 N   0  0  0  0  0  0
    1.1865   -1.4836    0.3005 C   0  0  0  0  0  0
    0.3155   -0.5116   -0.1436 C   0  0  0  0  0  0
    2.5868   -1.2733    0.7503 C   0  0  0  0  0  0
    3.0928    0.0132    0.2331 N   0  0  0  0  0  0
    2.1023    1.1223    0.4760 C   0  0  0  0  0  0
    0.7473    0.9121   -0.2523 C   0  0  0  0  0  0
    2.6925    2.4614    0.0118 C   0  0  0  0  0  0
    3.6480    2.6012   -0.7473 O   0  0  0  0  0  0
    1.9883    3.4975    0.5611 O   0  0  0  0  0  0
    2.4557    4.7980    0.1882 C   0  0  0  0  0  0
   -4.4111   -1.2310   -1.5896 O   0  0  0  0  0  0
   -3.8267   -3.6729   -0.9870 H   0  0  0  0  0  0
   -1.6391   -4.4929   -0.1266 H   0  0  0  0  0  0
   -2.3099    0.3614   -1.1603 H   0  0  0  0  0  0
    0.9281   -3.5780    0.5703 H   0  0  0  0  0  0
    3.2356   -2.0802    0.3934 H   0  0  0  0  0  0
    2.6332   -1.2713    1.8451 H   0  0  0  0  0  0
    3.1881   -0.0835   -0.7836 H   0  0  0  0  0  0
    1.9537    1.1908    1.5621 H   0  0  0  0  0  0
   -0.0141    1.5705    0.1823 H   0  0  0  0  0  0
    0.8388    1.1739   -1.3142 H   0  0  0  0  0  0
    3.4894    4.9408    0.5180 H   0  0  0  0  0  0
    1.8256    5.5397    0.6865 H   0  0  0  0  0  0
    2.3693    4.9378   -0.8938 H   0  0  0  0  0  0
   -4.3880   -0.2624   -1.7446 H   0  0  0  0  0  0
  1  2  2  0  0  0
  1  6  1  0  0  0
  1 18  1  0  0  0
  2  3  1  0  0  0
  2 19  1  0  0  0
  3  4  2  0  0  0
  3 20  1  0  0  0
  4  5  1  0  0  0
  4  7  1  0  0  0
  5  6  2  0  0  0
  5  9  1  0  0  0
  6 21  1  0  0  0
  7  8  1  0  0  0
  7 22  1  0  0  0
  8  9  2  0  0  0
  8 10  1  0  0  0
  9 13  1  0  0  0
 10 11  1  0  0  0
 10 23  1  0  0  0
 10 24  1  0  0  0
 11 12  1  0  0  0
 11 25  1  0  0  0
 12 13  1  0  0  0
 12 14  1  0  0  0
 12 26  1  0  0  0
 13 27  1  0  0  0
 13 28  1  0  0  0
 14 15  2  0  0  0
 14 16  1  0  0  0
 16 17  1  0  0  0
 17 29  1  0  0  0
 17 30  1  0  0  0
 17 31  1  0  0  0
 18 32  1  0  0  0
M  END
>  <Name>
2-8

>  <Family>
M.5

>  <IC50_uM>
0.573000

>  <set>
2

$$$$
2-61
  Cerius2 12180215293D 1   1.00000                          
 Structure written by MMmdl.
 29 31  0  0  0  0  0  0  0  0999 V2000
   -1.8613   -0.0331   -0.7963 C   0  0  0  0  0  0
   -1.8170   -1.3917   -0.4841 C   0  0  0  0  0  0
   -0.6587   -1.9777    0.0454 C   0  0  0  0  0  0
    0.4548   -1.1563    0.2521 C   0  0  0  0  0  0
    0.4433    0.2085   -0.0485 C   0  0  0  0  0  0
   -0.7333    0.7724   -0.5807 C   0  0  0  0  0  0
    1.7057   -1.4661    0.7517 N   0  0  0  0  0  0
    2.4783   -0.3371    0.7703 C   0  0  0  0  0  0
    1.7264    0.7137    0.2868 C   0  0  0  0  0  0
    3.8793   -0.2613    1.2639 C   0  0  0  0  0  0
    4.5234    0.9744    0.7632 N   0  0  0  0  0  0
    3.6417    2.1546    0.9668 C   0  0  0  0  0  0
    2.3101    2.0820    0.1759 C   0  0  0  0  0  0
   -2.9396    0.6332   -1.3161 O   0  0  0  0  0  0
   -4.1170   -0.1361   -1.5568 C   0  0  0  0  0  0
   -2.6752   -2.0413   -0.6400 H   0  0  0  0  0  0
   -0.6328   -3.0381    0.2853 H   0  0  0  0  0  0
   -0.7659    1.8322   -0.8235 H   0  0  0  0  0  0
    1.9952   -2.3892    1.0564 H   0  0  0  0  0  0
    4.4590   -1.1265    0.9250 H   0  0  0  0  0  0
    3.8923   -0.2612    2.3597 H   0  0  0  0  0  0
    4.6382    0.8545   -0.2500 H   0  0  0  0  0  0
    4.1870    3.0556    0.6642 H   0  0  0  0  0  0
    3.4356    2.2615    2.0397 H   0  0  0  0  0  0
    1.6115    2.8342    0.5576 H   0  0  0  0  0  0
    2.5002    2.3008   -0.8817 H   0  0  0  0  0  0
   -4.8756    0.5371   -1.9675 H   0  0  0  0  0  0
   -4.5110   -0.5541   -0.6246 H   0  0  0  0  0  0
   -3.9299   -0.9201   -2.2978 H   0  0  0  0  0  0
  1  2  2  0  0  0
  1  6  1  0  0  0
  1 14  1  0  0  0
  2  3  1  0  0  0
  2 16  1  0  0  0
  3  4  2  0  0  0
  3 17  1  0  0  0
  4  5  1  0  0  0
  4  7  1  0  0  0
  5  6  2  0  0  0
  5  9  1  0  0  0
  6 18  1  0  0  0
  7  8  1  0  0  0
  7 19  1  0  0  0
  8  9  2  0  0  0
  8 10  1  0  0  0
  9 13  1  0  0  0
 10 11  1  0  0  0
 10 20  1  0  0  0
 10 21  1  0  0  0
 11 12  1  0  0  0
 11 22  1  0  0  0
 12 13  1  0  0  0
 12 23  1  0  0  0
 12 24  1  0  0  0
 13 25  1  0  0  0
 13 26  1  0  0  0
 14 15  1  0  0  0
 15 27  1  0  0  0
 15 28  1  0  0  0
 15 29  1  0  0  0
M  END
>  <Name>
2-61

>  <Family>
M.5

>  <IC50_uM>
>500

>  <set>
1

$$$$
2-62
  Cerius2 12180215293D 1   1.00000                          
 Structure written by MMmdl.
 25 27  0  0  0  0  0  0  0  0999 V2000
   -2.8095   -0.0532   -1.1392 C   0  0  0  0  0  0
   -2.7474   -1.4167   -0.8591 C   0  0  0  0  0  0
   -1.5677   -2.0034   -0.3910 C   0  0  0  0  0  0
   -0.4536   -1.1731   -0.2141 C   0  0  0  0  0  0
   -0.4882    0.1990   -0.4858 C   0  0  0  0  0  0
   -1.6885    0.7657   -0.9576 C   0  0  0  0  0  0
    0.8199   -1.4810    0.2272 N   0  0  0  0  0  0
    1.5835   -0.3458    0.2379 C   0  0  0  0  0  0
    0.8040    0.7079   -0.1925 C   0  0  0  0  0  0
    3.0029   -0.2677    0.6754 C   0  0  0  0  0  0
    3.6161    0.9838    0.1750 N   0  0  0  0  0  0
    2.7338    2.1515    0.4390 C   0  0  0  0  0  0
    1.3716    2.0833   -0.2984 C   0  0  0  0  0  0
   -3.7392    0.3821   -1.5033 H   0  0  0  0  0  0
   -3.6311   -2.0368   -1.0070 H   0  0  0  0  0  0
   -1.5220   -3.0679   -0.1740 H   0  0  0  0  0  0
   -1.7496    1.8289   -1.1797 H   0  0  0  0  0  0
    1.1293   -2.4075    0.5005 H   0  0  0  0  0  0
    3.5752   -1.1205    0.2951 H   0  0  0  0  0  0
    3.0607   -0.2901    1.7695 H   0  0  0  0  0  0
    3.6904    0.8859   -0.8443 H   0  0  0  0  0  0
    3.2589    3.0635    0.1335 H   0  0  0  0  0  0
    2.5708    2.2343    1.5214 H   0  0  0  0  0  0
    0.6832    2.8212    0.1271 H   0  0  0  0  0  0
    1.5165    2.3257   -1.3580 H   0  0  0  0  0  0
  1  2  2  0  0  0
  1  6  1  0  0  0
  1 14  1  0  0  0
  2  3  1  0  0  0
  2 15  1  0  0  0
  3  4  2  0  0  0
  3 16  1  0  0  0
  4  5  1  0  0  0
  4  7  1  0  0  0
  5  6  2  0  0  0
  5  9  1  0  0  0
  6 17  1  0  0  0
  7  8  1  0  0  0
  7 18  1  0  0  0
  8  9  2  0  0  0
  8 10  1  0  0  0
  9 13  1  0  0  0
 10 11  1  0  0  0
 10 19  1  0  0  0
 10 20  1  0  0  0
 11 12  1  0  0  0
 11 21  1  0  0  0
 12 13  1  0  0  0
 12 22  1  0  0  0
 12 23  1  0  0  0
 13 24  1  0  0  0
 13 25  1  0  0  0
M  END
>  <Name>
2-62

>  <Family>
M.5

>  <IC50_uM>
>100

>  <set>
1

$$$$
2-63
  Cerius2 12180215293D 1   1.00000                          
 Structure written by MMmdl.
 28 30  0  0  0  0  0  0  0  0999 V2000
   -3.1591   -0.0666   -1.0530 C   0  0  0  0  0  0
   -3.0787   -1.4333   -0.7947 C   0  0  0  0  0  0
   -1.8817   -2.0172   -0.3684 C   0  0  0  0  0  0
   -0.7696   -1.1804   -0.2106 C   0  0  0  0  0  0
   -0.8225    0.1950   -0.4607 C   0  0  0  0  0  0
   -2.0398    0.7587   -0.8908 C   0  0  0  0  0  0
    0.5181   -1.4842    0.1894 N   0  0  0  0  0  0
    1.2733   -0.3431    0.1949 C   0  0  0  0  0  0
    0.4735    0.7103   -0.1966 C   0  0  0  0  0  0
    2.7073   -0.2641    0.5942 C   0  0  0  0  0  0
    3.3264    1.0099    0.1441 N   0  0  0  0  0  0
    2.4156    2.1658    0.3822 C   0  0  0  0  0  0
    1.0248    2.0916   -0.3041 C   0  0  0  0  0  0
    3.7356    0.9332   -1.2620 C   0  0  0  0  0  0
   -4.1019    0.3663   -1.3848 H   0  0  0  0  0  0
   -3.9612   -2.0585   -0.9269 H   0  0  0  0  0  0
   -1.8216   -3.0843   -0.1687 H   0  0  0  0  0  0
   -2.1154    1.8244   -1.0958 H   0  0  0  0  0  0
    0.8419   -2.4121    0.4402 H   0  0  0  0  0  0
    3.2726   -1.1259    0.2202 H   0  0  0  0  0  0
    2.7676   -0.3035    1.6889 H   0  0  0  0  0  0
    2.9154    3.0972    0.0886 H   0  0  0  0  0  0
    2.2659    2.2466    1.4678 H   0  0  0  0  0  0
    0.3463    2.8135    0.1635 H   0  0  0  0  0  0
    1.1192    2.3578   -1.3634 H   0  0  0  0  0  0
    4.2153    1.8689   -1.5699 H   0  0  0  0  0  0
    2.9049    0.7328   -1.9466 H   0  0  0  0  0  0
    4.4830    0.1430   -1.3950 H   0  0  0  0  0  0
  1  2  2  0  0  0
  1  6  1  0  0  0
  1 15  1  0  0  0
  2  3  1  0  0  0
  2 16  1  0  0  0
  3  4  2  0  0  0
  3 17  1  0  0  0
  4  5  1  0  0  0
  4  7  1  0  0  0
  5  6  2  0  0  0
  5  9  1  0  0  0
  6 18  1  0  0  0
  7  8  1  0  0  0
  7 19  1  0  0  0
  8  9  2  0  0  0
  8 10  1  0  0  0
  9 13  1  0  0  0
 10 11  1  0  0  0
 10 20  1  0  0  0
 10 21  1  0  0  0
 11 12  1  0  0  0
 11 14  1  0  0  0
 12 13  1  0  0  0
 12 22  1  0  0  0
 12 23  1  0  0  0
 13 24  1  0  0  0
 13 25  1  0  0  0
 14 26  1  0  0  0
 14 27  1  0  0  0
 14 28  1  0  0  0
M  END
>  <Name>
2-63

>  <Family>
M.5

>  <IC50_uM>
>100

>  <set>
2

$$$$
2-64
  Cerius2 12180215293D 1   1.00000                          
 Structure written by MMmdl.
 26 28  0  0  0  0  0  0  0  0999 V2000
   -2.7004   -0.0396   -1.0437 C   0  0  0  0  0  0
   -2.6485   -1.4023   -0.7754 C   0  0  0  0  0  0
   -1.4675   -1.9938   -0.3166 C   0  0  0  0  0  0
   -0.3517   -1.1652   -0.1403 C   0  0  0  0  0  0
   -0.3855    0.2091   -0.4036 C   0  0  0  0  0  0
   -1.5865    0.7846   -0.8668 C   0  0  0  0  0  0
    0.9233   -1.4781    0.2931 N   0  0  0  0  0  0
    1.6888   -0.3444    0.3072 C   0  0  0  0  0  0
    0.9095    0.7135   -0.1131 C   0  0  0  0  0  0
    3.1104   -0.2719    0.7388 C   0  0  0  0  0  0
    3.7239    0.9813    0.2434 N   0  0  0  0  0  0
    2.8455    2.1492    0.5186 C   0  0  0  0  0  0
    1.4798    2.0884   -0.2130 C   0  0  0  0  0  0
   -3.8855    0.4738   -1.4898 O   0  0  0  0  0  0
   -3.5324   -2.0206   -0.9224 H   0  0  0  0  0  0
   -1.4222   -3.0595   -0.1063 H   0  0  0  0  0  0
   -1.6328    1.8492   -1.0779 H   0  0  0  0  0  0
    1.2324   -2.4067    0.5592 H   0  0  0  0  0  0
    3.6792   -1.1235    0.3507 H   0  0  0  0  0  0
    3.1729   -0.3012    1.8325 H   0  0  0  0  0  0
    3.7936    0.8896   -0.7768 H   0  0  0  0  0  0
    3.3711    3.0619    0.2164 H   0  0  0  0  0  0
    2.6875    2.2258    1.6023 H   0  0  0  0  0  0
    0.7949    2.8251    0.2201 H   0  0  0  0  0  0
    1.6205    2.3369   -1.2718 H   0  0  0  0  0  0
   -3.7704    1.4374   -1.6347 H   0  0  0  0  0  0
  1  2  2  0  0  0
  1  6  1  0  0  0
  1 14  1  0  0  0
  2  3  1  0  0  0
  2 15  1  0  0  0
  3  4  2  0  0  0
  3 16  1  0  0  0
  4  5  1  0  0  0
  4  7  1  0  0  0
  5  6  2  0  0  0
  5  9  1  0  0  0
  6 17  1  0  0  0
  7  8  1  0  0  0
  7 18  1  0  0  0
  8  9  2  0  0  0
  8 10  1  0  0  0
  9 13  1  0  0  0
 10 11  1  0  0  0
 10 19  1  0  0  0
 10 20  1  0  0  0
 11 12  1  0  0  0
 11 21  1  0  0  0
 12 13  1  0  0  0
 12 22  1  0  0  0
 12 23  1  0  0  0
 13 24  1  0  0  0
 13 25  1  0  0  0
 14 26  1  0  0  0
M  END
>  <Name>
2-64

>  <Family>
M.5

>  <IC50_uM>
>100

>  <set>
2

$$$$
2-55
  Cerius2 12180215293D 1   1.00000                          
 Structure written by MMmdl.
 40 43  0  0  0  0  0  0  0  0999 V2000
   -2.7178   -2.3945   -2.5151 C   0  0  0  0  0  0
   -3.2282   -2.5876   -1.2333 C   0  0  0  0  0  0
   -2.7729   -1.8245   -0.1538 C   0  0  0  0  0  0
   -1.7874   -0.8623   -0.4076 C   0  0  0  0  0  0
   -1.2574   -0.6472   -1.6827 C   0  0  0  0  0  0
   -1.7331   -1.4283   -2.7543 C   0  0  0  0  0  0
   -1.1670    0.0191    0.4559 N   0  0  0  0  0  0
   -0.2508    0.7731   -0.2323 C   0  0  0  0  0  0
   -0.2976    0.3923   -1.5589 C   0  0  0  0  0  0
    0.6006    1.8634    0.3532 C   0  0  0  0  0  0
    1.7196    2.1676   -0.5699 N   0  0  0  0  0  0
    1.2661    2.2926   -1.9882 C   0  0  0  0  0  0
    0.5736    1.0382   -2.5810 C   0  0  0  0  0  0
    1.1447    1.5216    1.7254 C   0  0  0  0  0  0
    2.0630    0.4832    1.9317 C   0  0  0  0  0  0
    2.5244    0.2038    3.2150 C   0  0  0  0  0  0
    2.0524    0.9725    4.2645 C   0  0  0  0  0  0
    1.1647    1.9835    4.1137 N   0  0  0  0  0  0
    0.7335    2.2328    2.8500 C   0  0  0  0  0  0
    2.3949    2.7246   -2.9312 C   0  0  0  0  0  0
    2.1840    3.5455   -3.8318 O   0  0  0  0  0  0
    3.6432    2.2102   -2.8141 O   0  0  0  0  0  0
    4.0011    1.1291   -1.9332 C   0  0  0  0  0  0
   -3.0875   -3.0004   -3.3413 H   0  0  0  0  0  0
   -3.9944   -3.3445   -1.0678 H   0  0  0  0  0  0
   -3.1733   -1.9768    0.8455 H   0  0  0  0  0  0
   -1.3429   -1.2869   -3.7598 H   0  0  0  0  0  0
   -1.3605    0.0847    1.4490 H   0  0  0  0  0  0
   -0.0254    2.7635    0.4271 H   0  0  0  0  0  0
    2.1085    3.0680   -0.2766 H   0  0  0  0  0  0
    0.5431    3.1219   -1.9996 H   0  0  0  0  0  0
   -0.0281    1.3333   -3.4496 H   0  0  0  0  0  0
    1.3058    0.3064   -2.9393 H   0  0  0  0  0  0
    2.4184   -0.1087    1.0899 H   0  0  0  0  0  0
    3.2360   -0.5965    3.3919 H   0  0  0  0  0  0
    2.3887    0.7853    5.2821 H   0  0  0  0  0  0
    0.0200    3.0511    2.7649 H   0  0  0  0  0  0
    4.8883    0.6480   -2.3555 H   0  0  0  0  0  0
    3.2201    0.3716   -1.8587 H   0  0  0  0  0  0
    4.2714    1.5298   -0.9530 H   0  0  0  0  0  0
  1  2  2  0  0  0
  1  6  1  0  0  0
  1 24  1  0  0  0
  2  3  1  0  0  0
  2 25  1  0  0  0
  3  4  2  0  0  0
  3 26  1  0  0  0
  4  5  1  0  0  0
  4  7  1  0  0  0
  5  6  2  0  0  0
  5  9  1  0  0  0
  6 27  1  0  0  0
  7  8  1  0  0  0
  7 28  1  0  0  0
  8  9  2  0  0  0
  8 10  1  0  0  0
  9 13  1  0  0  0
 10 11  1  0  0  0
 10 14  1  0  0  0
 10 29  1  0  0  0
 11 12  1  0  0  0
 11 30  1  0  0  0
 12 13  1  0  0  0
 12 20  1  0  0  0
 12 31  1  0  0  0
 13 32  1  0  0  0
 13 33  1  0  0  0
 14 15  2  0  0  0
 14 19  1  0  0  0
 15 16  1  0  0  0
 15 34  1  0  0  0
 16 17  2  0  0  0
 16 35  1  0  0  0
 17 18  1  0  0  0
 17 36  1  0  0  0
 18 19  2  0  0  0
 19 37  1  0  0  0
 20 21  2  0  0  0
 20 22  1  0  0  0
 22 23  1  0  0  0
 23 38  1  0  0  0
 23 39  1  0  0  0
 23 40  1  0  0  0
M  END
>  <Name>
2-55

>  <Family>
M.5

>  <IC50_uM>
6.250000

>  <set>
1

$$$$
2-22
  Cerius2 12180215293D 1   1.00000                          
 Structure written by MMmdl.
 40 42  0  0  0  0  0  0  0  0999 V2000
   -3.9867   -0.3844   -1.1665 C   0  0  0  0  0  0
   -3.9632   -1.7024   -0.7216 C   0  0  0  0  0  0
   -2.7926   -2.2663   -0.2050 C   0  0  0  0  0  0
   -1.6369   -1.4677   -0.1535 C   0  0  0  0  0  0
   -1.6382   -0.1449   -0.6055 C   0  0  0  0  0  0
   -2.8334    0.4052   -1.1109 C   0  0  0  0  0  0
   -0.3641   -1.7392    0.3285 N   0  0  0  0  0  0
    0.4668   -0.6690    0.0797 C   0  0  0  0  0  0
   -0.3268    0.3551   -0.4106 C   0  0  0  0  0  0
    1.9401   -0.5563    0.3964 C   0  0  0  0  0  0
    2.4689    0.7465   -0.0901 N   0  0  0  0  0  0
    1.5353    1.8814    0.1783 C   0  0  0  0  0  0
    0.2289    1.7197   -0.6432 C   0  0  0  0  0  0
    2.2103    3.2167   -0.1783 C   0  0  0  0  0  0
    1.8143    3.9521   -1.0862 O   0  0  0  0  0  0
    3.3035    3.6005    0.5369 O   0  0  0  0  0  0
    3.7671    2.8679    1.6849 C   0  0  0  0  0  0
   -0.0160   -2.9543    1.0380 C   0  0  0  0  0  0
    4.2546   -1.6215    0.1151 C   0  0  0  0  0  0
    2.7760   -1.6779   -0.2572 C   0  0  0  0  0  0
   -4.9095    0.0379   -1.5616 H   0  0  0  0  0  0
   -4.8702   -2.3040   -0.7716 H   0  0  0  0  0  0
   -2.7895   -3.2959    0.1449 H   0  0  0  0  0  0
   -2.8635    1.4344   -1.4621 H   0  0  0  0  0  0
    2.0667   -0.5913    1.4857 H   0  0  0  0  0  0
    2.5717    0.6732   -1.1071 H   0  0  0  0  0  0
    1.2694    1.9142    1.2421 H   0  0  0  0  0  0
   -0.4965    2.4849   -0.3424 H   0  0  0  0  0  0
    0.4193    1.8485   -1.7163 H   0  0  0  0  0  0
    4.4752    3.5108    2.2160 H   0  0  0  0  0  0
    4.3016    1.9690    1.3696 H   0  0  0  0  0  0
    2.9499    2.6367    2.3718 H   0  0  0  0  0  0
    0.8112   -2.7541    1.7225 H   0  0  0  0  0  0
    0.2582   -3.7123    0.3007 H   0  0  0  0  0  0
   -0.8745   -3.2872    1.6268 H   0  0  0  0  0  0
    4.7820   -2.4788   -0.3157 H   0  0  0  0  0  0
    4.3852   -1.6551    1.2014 H   0  0  0  0  0  0
    4.7338   -0.7138   -0.2640 H   0  0  0  0  0  0
    2.6781   -1.6405   -1.3503 H   0  0  0  0  0  0
    2.4042   -2.6619    0.0421 H   0  0  0  0  0  0
  1  2  2  0  0  0
  1  6  1  0  0  0
  1 21  1  0  0  0
  2  3  1  0  0  0
  2 22  1  0  0  0
  3  4  2  0  0  0
  3 23  1  0  0  0
  4  5  1  0  0  0
  4  7  1  0  0  0
  5  6  2  0  0  0
  5  9  1  0  0  0
  6 24  1  0  0  0
  7  8  1  0  0  0
  7 18  1  0  0  0
  8  9  2  0  0  0
  8 10  1  0  0  0
  9 13  1  0  0  0
 10 11  1  0  0  0
 10 20  1  0  0  0
 10 25  1  0  0  0
 11 12  1  0  0  0
 11 26  1  0  0  0
 12 13  1  0  0  0
 12 14  1  0  0  0
 12 27  1  0  0  0
 13 28  1  0  0  0
 13 29  1  0  0  0
 14 15  2  0  0  0
 14 16  1  0  0  0
 16 17  1  0  0  0
 17 30  1  0  0  0
 17 31  1  0  0  0
 17 32  1  0  0  0
 18 33  1  0  0  0
 18 34  1  0  0  0
 18 35  1  0  0  0
 19 20  1  0  0  0
 19 36  1  0  0  0
 19 37  1  0  0  0
 19 38  1  0  0  0
 20 39  1  0  0  0
 20 40  1  0  0  0
M  END
>  <Name>
2-22

>  <Family>
M.5

>  <IC50_uM>
>100

>  <set>
2

$$$$
10-2
  Cerius2 12180215293D 1   1.00000                          
 Structure written by MMmdl.
 31 35  0  0  0  0  0  0  0  0999 V2000
   -3.4880   -2.0847   -0.7814 C   0  0  0  0  0  0
   -3.4561   -3.4551   -0.5412 C   0  0  0  0  0  0
   -2.2867   -4.0790   -0.1011 C   0  0  0  0  0  0
   -1.1506   -3.2812    0.0899 C   0  0  0  0  0  0
   -1.1511   -1.8963   -0.1438 C   0  0  0  0  0  0
   -2.3470   -1.2948   -0.5879 C   0  0  0  0  0  0
    0.1179   -3.6512    0.5158 N   0  0  0  0  0  0
    0.9427   -2.5572    0.5678 C   0  0  0  0  0  0
    0.1762   -1.4850    0.1672 C   0  0  0  0  0  0
    2.2763   -2.3731    0.9193 C   0  0  0  0  0  0
    2.8445   -1.1313    0.8730 N   0  0  0  0  0  0
    2.0680   -0.0856    0.4740 C   0  0  0  0  0  0
    0.7501   -0.2520    0.1239 C   0  0  0  0  0  0
    2.3463    1.3020    0.3201 C   0  0  0  0  0  0
    1.1603    1.9101   -0.1227 C   0  0  0  0  0  0
    0.1960    0.9177   -0.2322 N   0  0  0  0  0  0
    3.4872    2.1083    0.5118 C   0  0  0  0  0  0
    3.4083    3.4825    0.2576 C   0  0  0  0  0  0
    2.2173    4.0578   -0.1812 C   0  0  0  0  0  0
    1.0699    3.2834   -0.3801 C   0  0  0  0  0  0
   -4.4109   -1.6183   -1.1243 H   0  0  0  0  0  0
   -4.3549   -4.0507   -0.6981 H   0  0  0  0  0  0
   -2.2644   -5.1501    0.0859 H   0  0  0  0  0  0
   -2.4095   -0.2289   -0.7855 H   0  0  0  0  0  0
    0.3897   -4.5974    0.7534 H   0  0  0  0  0  0
    2.9143   -3.1910    1.2402 H   0  0  0  0  0  0
   -0.7552    1.0838   -0.5331 H   0  0  0  0  0  0
    4.4207    1.6667    0.8541 H   0  0  0  0  0  0
    4.2882    4.1075    0.4050 H   0  0  0  0  0  0
    2.1778    5.1299   -0.3732 H   0  0  0  0  0  0
    0.1432    3.7376   -0.7226 H   0  0  0  0  0  0
  1  2  2  0  0  0
  1  6  1  0  0  0
  1 21  1  0  0  0
  2  3  1  0  0  0
  2 22  1  0  0  0
  3  4  2  0  0  0
  3 23  1  0  0  0
  4  5  1  0  0  0
  4  7  1  0  0  0
  5  6  2  0  0  0
  5  9  1  0  0  0
  6 24  1  0  0  0
  7  8  1  0  0  0
  7 25  1  0  0  0
  8  9  2  0  0  0
  8 10  1  0  0  0
  9 13  1  0  0  0
 10 11  2  0  0  0
 10 26  1  0  0  0
 11 12  1  0  0  0
 12 13  2  0  0  0
 12 14  1  0  0  0
 13 16  1  0  0  0
 14 15  2  0  0  0
 14 17  1  0  0  0
 15 16  1  0  0  0
 15 20  1  0  0  0
 16 27  1  0  0  0
 17 18  2  0  0  0
 17 28  1  0  0  0
 18 19  1  0  0  0
 18 29  1  0  0  0
 19 20  2  0  0  0
 19 30  1  0  0  0
 20 31  1  0  0  0
M  END
>  <Name>
10-2

>  <Family>
N.1

>  <IC50_uM>
0.004000

>  <set>
1

$$$$
10-4a
  Cerius2 12180215293D 1   1.00000                          
 Structure written by MMmdl.
 31 35  0  0  0  0  0  0  0  0999 V2000
   -3.4883   -2.0824   -0.7812 C   0  0  0  0  0  0
   -3.4571   -3.4530   -0.5416 C   0  0  0  0  0  0
   -2.2879   -4.0776   -0.1018 C   0  0  0  0  0  0
   -1.1514   -3.2805    0.0894 C   0  0  0  0  0  0
   -1.1514   -1.8955   -0.1436 C   0  0  0  0  0  0
   -2.3469   -1.2932   -0.5873 C   0  0  0  0  0  0
    0.1168   -3.6514    0.5150 N   0  0  0  0  0  0
    0.9422   -2.5578    0.5675 C   0  0  0  0  0  0
    0.1761   -1.4851    0.1675 C   0  0  0  0  0  0
    2.2760   -2.3746    0.9188 C   0  0  0  0  0  0
    2.8448   -1.1331    0.8731 N   0  0  0  0  0  0
    2.0690   -0.0872    0.4749 C   0  0  0  0  0  0
    0.7505   -0.2524    0.1247 C   0  0  0  0  0  0
    2.3487    1.2998    0.3219 C   0  0  0  0  0  0
    1.1617    1.9059   -0.1203 C   0  0  0  0  0  0
    0.1965    0.9177   -0.2309 N   0  0  0  0  0  0
    3.4890    2.1097    0.5128 C   0  0  0  0  0  0
    3.4108    3.4862    0.2589 C   0  0  0  0  0  0
    2.2197    4.0613   -0.1794 C   0  0  0  0  0  0
    1.0855    3.2760   -0.3726 C   0  0  0  0  0  0
   -0.0552    3.8368   -0.7940 F   0  0  0  0  0  0
   -4.4110   -1.6154   -1.1239 H   0  0  0  0  0  0
   -4.3561   -4.0480   -0.6988 H   0  0  0  0  0  0
   -2.2662   -5.1489    0.0847 H   0  0  0  0  0  0
   -2.4090   -0.2271   -0.7845 H   0  0  0  0  0  0
    0.3882   -4.5978    0.7521 H   0  0  0  0  0  0
    2.9136   -3.1930    1.2393 H   0  0  0  0  0  0
   -0.7542    1.0871   -0.5318 H   0  0  0  0  0  0
    4.4233    1.6688    0.8549 H   0  0  0  0  0  0
    4.2909    4.1106    0.4064 H   0  0  0  0  0  0
    2.1688    5.1299   -0.3737 H   0  0  0  0  0  0
  1  2  2  0  0  0
  1  6  1  0  0  0
  1 22  1  0  0  0
  2  3  1  0  0  0
  2 23  1  0  0  0
  3  4  2  0  0  0
  3 24  1  0  0  0
  4  5  1  0  0  0
  4  7  1  0  0  0
  5  6  2  0  0  0
  5  9  1  0  0  0
  6 25  1  0  0  0
  7  8  1  0  0  0
  7 26  1  0  0  0
  8  9  2  0  0  0
  8 10  1  0  0  0
  9 13  1  0  0  0
 10 11  2  0  0  0
 10 27  1  0  0  0
 11 12  1  0  0  0
 12 13  2  0  0  0
 12 14  1  0  0  0
 13 16  1  0  0  0
 14 15  2  0  0  0
 14 17  1  0  0  0
 15 16  1  0  0  0
 15 20  1  0  0  0
 16 28  1  0  0  0
 17 18  2  0  0  0
 17 29  1  0  0  0
 18 19  1  0  0  0
 18 30  1  0  0  0
 19 20  2  0  0  0
 19 31  1  0  0  0
 20 21  1  0  0  0
M  END
>  <Name>
10-4a

>  <Family>
N.1

>  <IC50_uM>
0.012000

>  <set>
1

$$$$
10-4c
  Cerius2 12180215293D 1   1.00000                          
 Structure written by MMmdl.
 31 35  0  0  0  0  0  0  0  0999 V2000
   -3.4884   -2.1925   -0.7817 C   0  0  0  0  0  0
   -3.4567   -3.5628   -0.5413 C   0  0  0  0  0  0
   -2.2874   -4.1868   -0.1010 C   0  0  0  0  0  0
   -1.1512   -3.3893    0.0900 C   0  0  0  0  0  0
   -1.1515   -2.0044   -0.1439 C   0  0  0  0  0  0
   -2.3472   -1.4027   -0.5882 C   0  0  0  0  0  0
    0.1170   -3.7595    0.5161 N   0  0  0  0  0  0
    0.9421   -2.6657    0.5680 C   0  0  0  0  0  0
    0.1759   -1.5933    0.1672 C   0  0  0  0  0  0
    2.2757   -2.4819    0.9195 C   0  0  0  0  0  0
    2.8442   -1.2403    0.8732 N   0  0  0  0  0  0
    2.0680   -0.1948    0.4740 C   0  0  0  0  0  0
    0.7501   -0.3604    0.1238 C   0  0  0  0  0  0
    2.3473    1.1926    0.3202 C   0  0  0  0  0  0
    1.1603    1.8013   -0.1232 C   0  0  0  0  0  0
    0.1959    0.8092   -0.2326 N   0  0  0  0  0  0
    3.4906    1.9977    0.5127 C   0  0  0  0  0  0
    3.4132    3.3721    0.2586 C   0  0  0  0  0  0
    2.2218    3.9375   -0.1789 C   0  0  0  0  0  0
    1.0716    3.1751   -0.3805 C   0  0  0  0  0  0
    2.1754    5.2564   -0.4148 F   0  0  0  0  0  0
   -4.4111   -1.7259   -1.1248 H   0  0  0  0  0  0
   -4.3555   -4.1583   -0.6983 H   0  0  0  0  0  0
   -2.2654   -5.2580    0.0861 H   0  0  0  0  0  0
   -2.4096   -0.3368   -0.7860 H   0  0  0  0  0  0
    0.3887   -4.7057    0.7538 H   0  0  0  0  0  0
    2.9135   -3.2999    1.2406 H   0  0  0  0  0  0
   -0.7555    0.9746   -0.5335 H   0  0  0  0  0  0
    4.4233    1.5548    0.8552 H   0  0  0  0  0  0
    4.2869    4.0024    0.4031 H   0  0  0  0  0  0
    0.1510    3.6368   -0.7227 H   0  0  0  0  0  0
  1  2  2  0  0  0
  1  6  1  0  0  0
  1 22  1  0  0  0
  2  3  1  0  0  0
  2 23  1  0  0  0
  3  4  2  0  0  0
  3 24  1  0  0  0
  4  5  1  0  0  0
  4  7  1  0  0  0
  5  6  2  0  0  0
  5  9  1  0  0  0
  6 25  1  0  0  0
  7  8  1  0  0  0
  7 26  1  0  0  0
  8  9  2  0  0  0
  8 10  1  0  0  0
  9 13  1  0  0  0
 10 11  2  0  0  0
 10 27  1  0  0  0
 11 12  1  0  0  0
 12 13  2  0  0  0
 12 14  1  0  0  0
 13 16  1  0  0  0
 14 15  2  0  0  0
 14 17  1  0  0  0
 15 16  1  0  0  0
 15 20  1  0  0  0
 16 28  1  0  0  0
 17 18  2  0  0  0
 17 29  1  0  0  0
 18 19  1  0  0  0
 18 30  1  0  0  0
 19 20  2  0  0  0
 19 21  1  0  0  0
 20 31  1  0  0  0
M  END
>  <Name>
10-4c

>  <Family>
N.1

>  <IC50_uM>
0.007000

>  <set>
1

$$$$
10-4e
  Cerius2 12180215293D 1   1.00000                          
 Structure written by MMmdl.
 35 39  0  0  0  0  0  0  0  0999 V2000
   -3.4825   -2.9157   -0.7960 C   0  0  0  0  0  0
   -3.4884   -4.2879   -0.5645 C   0  0  0  0  0  0
   -2.3384   -4.9455   -0.1222 C   0  0  0  0  0  0
   -1.1826   -4.1795    0.0802 C   0  0  0  0  0  0
   -1.1450   -2.7936   -0.1445 C   0  0  0  0  0  0
   -2.3219   -2.1576   -0.5912 C   0  0  0  0  0  0
    0.0731   -4.5858    0.5106 N   0  0  0  0  0  0
    0.9264   -3.5146    0.5742 C   0  0  0  0  0  0
    0.1909   -2.4197    0.1765 C   0  0  0  0  0  0
    2.2625   -3.3683    0.9341 C   0  0  0  0  0  0
    2.8638   -2.1418    0.8991 N   0  0  0  0  0  0
    2.1176   -1.0736    0.5029 C   0  0  0  0  0  0
    0.7977   -1.2022    0.1445 C   0  0  0  0  0  0
    2.4329    0.3069    0.3599 C   0  0  0  0  0  0
    1.2675    0.9489   -0.0846 C   0  0  0  0  0  0
    0.2771   -0.0156   -0.2067 N   0  0  0  0  0  0
    3.5905    1.0839    0.5619 C   0  0  0  0  0  0
    3.5522    2.4658    0.3173 C   0  0  0  0  0  0
    2.3816    3.0827   -0.1243 C   0  0  0  0  0  0
    1.2190    2.3275   -0.3319 C   0  0  0  0  0  0
    2.2367    4.4190   -0.3917 O   0  0  0  0  0  0
    3.3847    5.2437   -0.1971 C   0  0  0  0  0  0
   -4.3907   -2.4227   -1.1409 H   0  0  0  0  0  0
   -4.4017   -4.8584   -0.7302 H   0  0  0  0  0  0
   -2.3457   -6.0180    0.0579 H   0  0  0  0  0  0
   -2.3550   -1.0892   -0.7823 H   0  0  0  0  0  0
    0.3183   -5.5404    0.7435 H   0  0  0  0  0  0
    2.8767   -4.2049    1.2531 H   0  0  0  0  0  0
   -0.6676    0.1778   -0.5116 H   0  0  0  0  0  0
    4.5108    0.6163    0.9062 H   0  0  0  0  0  0
    4.4676    3.0275    0.4862 H   0  0  0  0  0  0
    0.3023    2.8007   -0.6761 H   0  0  0  0  0  0
    3.1031    6.2703   -0.4502 H   0  0  0  0  0  0
    4.1999    4.9467   -0.8650 H   0  0  0  0  0  0
    3.7034    5.2334    0.8503 H   0  0  0  0  0  0
  1  2  2  0  0  0
  1  6  1  0  0  0
  1 23  1  0  0  0
  2  3  1  0  0  0
  2 24  1  0  0  0
  3  4  2  0  0  0
  3 25  1  0  0  0
  4  5  1  0  0  0
  4  7  1  0  0  0
  5  6  2  0  0  0
  5  9  1  0  0  0
  6 26  1  0  0  0
  7  8  1  0  0  0
  7 27  1  0  0  0
  8  9  2  0  0  0
  8 10  1  0  0  0
  9 13  1  0  0  0
 10 11  2  0  0  0
 10 28  1  0  0  0
 11 12  1  0  0  0
 12 13  2  0  0  0
 12 14  1  0  0  0
 13 16  1  0  0  0
 14 15  2  0  0  0
 14 17  1  0  0  0
 15 16  1  0  0  0
 15 20  1  0  0  0
 16 29  1  0  0  0
 17 18  2  0  0  0
 17 30  1  0  0  0
 18 19  1  0  0  0
 18 31  1  0  0  0
 19 20  2  0  0  0
 19 21  1  0  0  0
 20 32  1  0  0  0
 21 22  1  0  0  0
 22 33  1  0  0  0
 22 34  1  0  0  0
 22 35  1  0  0  0
M  END
>  <Name>
10-4e

>  <Family>
N.1

>  <IC50_uM>
0.008000

>  <set>
2

$$$$
10-4f
  Cerius2 12180215293D 1   1.00000                          
 Structure written by MMmdl.
 31 35  0  0  0  0  0  0  0  0999 V2000
   -3.5805   -2.0846   -0.7824 C   0  0  0  0  0  0
   -3.5486   -3.4550   -0.5422 C   0  0  0  0  0  0
   -2.3794   -4.0790   -0.1019 C   0  0  0  0  0  0
   -1.2433   -3.2813    0.0894 C   0  0  0  0  0  0
   -1.2437   -1.8964   -0.1442 C   0  0  0  0  0  0
   -2.4394   -1.2948   -0.5885 C   0  0  0  0  0  0
    0.0250   -3.6514    0.5156 N   0  0  0  0  0  0
    0.8498   -2.5575    0.5681 C   0  0  0  0  0  0
    0.0834   -1.4851    0.1673 C   0  0  0  0  0  0
    2.1834   -2.3734    0.9199 C   0  0  0  0  0  0
    2.7515   -1.1315    0.8739 N   0  0  0  0  0  0
    1.9750   -0.0865    0.4748 C   0  0  0  0  0  0
    0.6574   -0.2522    0.1243 C   0  0  0  0  0  0
    2.2543    1.3004    0.3216 C   0  0  0  0  0  0
    1.0680    1.9099   -0.1219 C   0  0  0  0  0  0
    0.1035    0.9175   -0.2319 N   0  0  0  0  0  0
    3.3962    2.1026    0.5148 C   0  0  0  0  0  0
    3.3051    3.4701    0.2585 C   0  0  0  0  0  0
    2.1237    4.0563   -0.1797 C   0  0  0  0  0  0
    0.9760    3.2840   -0.3796 C   0  0  0  0  0  0
    4.3874    4.2399    0.4401 F   0  0  0  0  0  0
   -4.5032   -1.6181   -1.1256 H   0  0  0  0  0  0
   -4.4474   -4.0506   -0.6994 H   0  0  0  0  0  0
   -2.3572   -5.1502    0.0849 H   0  0  0  0  0  0
   -2.5018   -0.2288   -0.7861 H   0  0  0  0  0  0
    0.2967   -4.5977    0.7532 H   0  0  0  0  0  0
    2.8213   -3.1913    1.2409 H   0  0  0  0  0  0
   -0.8476    1.0836   -0.5331 H   0  0  0  0  0  0
    4.3317    1.6705    0.8564 H   0  0  0  0  0  0
    2.0957    5.1270   -0.3679 H   0  0  0  0  0  0
    0.0495    3.7379   -0.7224 H   0  0  0  0  0  0
  1  2  2  0  0  0
  1  6  1  0  0  0
  1 22  1  0  0  0
  2  3  1  0  0  0
  2 23  1  0  0  0
  3  4  2  0  0  0
  3 24  1  0  0  0
  4  5  1  0  0  0
  4  7  1  0  0  0
  5  6  2  0  0  0
  5  9  1  0  0  0
  6 25  1  0  0  0
  7  8  1  0  0  0
  7 26  1  0  0  0
  8  9  2  0  0  0
  8 10  1  0  0  0
  9 13  1  0  0  0
 10 11  2  0  0  0
 10 27  1  0  0  0
 11 12  1  0  0  0
 12 13  2  0  0  0
 12 14  1  0  0  0
 13 16  1  0  0  0
 14 15  2  0  0  0
 14 17  1  0  0  0
 15 16  1  0  0  0
 15 20  1  0  0  0
 16 28  1  0  0  0
 17 18  2  0  0  0
 17 29  1  0  0  0
 18 19  1  0  0  0
 18 21  1  0  0  0
 19 20  2  0  0  0
 19 30  1  0  0  0
 20 31  1  0  0  0
M  END
>  <Name>
10-4f

>  <Family>
N.1

>  <IC50_uM>
0.016000

>  <set>
1

$$$$
10-4h
  Cerius2 12180215293D 1   1.00000                          
 Structure written by MMmdl.
 35 39  0  0  0  0  0  0  0  0999 V2000
   -3.9615   -2.3769   -1.4147 C   0  0  0  0  0  0
   -3.9292   -3.7617   -1.2805 C   0  0  0  0  0  0
   -2.7665   -4.4152   -0.8661 C   0  0  0  0  0  0
   -1.6375   -3.6321   -0.5909 C   0  0  0  0  0  0
   -1.6387   -2.2332   -0.7167 C   0  0  0  0  0  0
   -2.8276   -1.6018   -1.1373 C   0  0  0  0  0  0
   -0.3765   -4.0311   -0.1694 N   0  0  0  0  0  0
    0.4429   -2.9425   -0.0160 C   0  0  0  0  0  0
   -0.3196   -1.8442   -0.3478 C   0  0  0  0  0  0
    1.7685   -2.7831    0.3755 C   0  0  0  0  0  0
    2.3327   -1.5401    0.4372 N   0  0  0  0  0  0
    1.5602   -0.4688    0.1050 C   0  0  0  0  0  0
    0.2502   -0.6103   -0.2836 C   0  0  0  0  0  0
    1.8359    0.9266    0.0649 C   0  0  0  0  0  0
    0.6583    1.5642   -0.3528 C   0  0  0  0  0  0
   -0.3007    0.5826   -0.5590 N   0  0  0  0  0  0
    2.9690    1.7194    0.3414 C   0  0  0  0  0  0
    2.9024    3.1123    0.1969 C   0  0  0  0  0  0
    1.7150    3.7137   -0.2208 C   0  0  0  0  0  0
    0.5722    2.9520   -0.5031 C   0  0  0  0  0  0
    4.0681    3.7667    0.4959 O   0  0  0  0  0  0
    4.0593    5.1880    0.3704 C   0  0  0  0  0  0
   -4.8789   -1.8874   -1.7394 H   0  0  0  0  0  0
   -4.8223   -4.3454   -1.5014 H   0  0  0  0  0  0
   -2.7439   -5.4975   -0.7621 H   0  0  0  0  0  0
   -2.8900   -0.5239   -1.2531 H   0  0  0  0  0  0
   -0.1058   -4.9922   -0.0004 H   0  0  0  0  0  0
    2.4032   -3.6220    0.6448 H   0  0  0  0  0  0
   -1.2462    0.7699   -0.8654 H   0  0  0  0  0  0
    3.8920    1.2443    0.6666 H   0  0  0  0  0  0
    1.6342    4.7917   -0.3419 H   0  0  0  0  0  0
   -0.3482    3.4316   -0.8281 H   0  0  0  0  0  0
    5.0543    5.5519    0.6442 H   0  0  0  0  0  0
    3.3375    5.6392    1.0591 H   0  0  0  0  0  0
    3.8662    5.4902   -0.6641 H   0  0  0  0  0  0
  1  2  2  0  0  0
  1  6  1  0  0  0
  1 23  1  0  0  0
  2  3  1  0  0  0
  2 24  1  0  0  0
  3  4  2  0  0  0
  3 25  1  0  0  0
  4  5  1  0  0  0
  4  7  1  0  0  0
  5  6  2  0  0  0
  5  9  1  0  0  0
  6 26  1  0  0  0
  7  8  1  0  0  0
  7 27  1  0  0  0
  8  9  2  0  0  0
  8 10  1  0  0  0
  9 13  1  0  0  0
 10 11  2  0  0  0
 10 28  1  0  0  0
 11 12  1  0  0  0
 12 13  2  0  0  0
 12 14  1  0  0  0
 13 16  1  0  0  0
 14 15  2  0  0  0
 14 17  1  0  0  0
 15 16  1  0  0  0
 15 20  1  0  0  0
 16 29  1  0  0  0
 17 18  2  0  0  0
 17 30  1  0  0  0
 18 19  1  0  0  0
 18 21  1  0  0  0
 19 20  2  0  0  0
 19 31  1  0  0  0
 20 32  1  0  0  0
 21 22  1  0  0  0
 22 33  1  0  0  0
 22 34  1  0  0  0
 22 35  1  0  0  0
M  END
>  <Name>
10-4h

>  <Family>
N.1

>  <IC50_uM>
0.890000

>  <set>
1

$$$$
6-14
  Cerius2 12180215293D 1   1.00000                          
 Structure written by MMmdl.
 34 38  0  0  0  0  0  0  0  0999 V2000
    0.0597   -0.6704    0.7040 C   0  0  0  0  0  0
   -1.3196   -0.5821    1.0442 C   0  0  0  0  0  0
   -1.6677   -1.8848    1.4426 C   0  0  0  0  0  0
   -0.5346   -2.6875    1.3353 N   0  0  0  0  0  0
    0.5349   -1.9536    0.8818 C   0  0  0  0  0  0
   -2.3168    0.4163    1.0695 C   0  0  0  0  0  0
   -3.6146    0.0942    1.4852 C   0  0  0  0  0  0
   -3.9343   -1.2010    1.8746 C   0  0  0  0  0  0
   -2.9700   -2.2107    1.8604 C   0  0  0  0  0  0
    1.8710   -2.2391    0.5986 C   0  0  0  0  0  0
    2.7182   -1.2678    0.1475 N   0  0  0  0  0  0
    2.2227   -0.0117   -0.0182 C   0  0  0  0  0  0
    0.9116    0.2916    0.2542 C   0  0  0  0  0  0
    2.8278    1.1979   -0.4617 C   0  0  0  0  0  0
    1.8315    2.1867   -0.4330 C   0  0  0  0  0  0
    0.6615    1.5890    0.0146 N   0  0  0  0  0  0
    4.1235    1.5574   -0.8863 C   0  0  0  0  0  0
    4.3803    2.8803   -1.2649 C   0  0  0  0  0  0
    3.3708    3.8403   -1.2259 C   0  0  0  0  0  0
    2.0767    3.5128   -0.8093 C   0  0  0  0  0  0
   -0.5113   -4.0987    1.6623 C   0  0  0  0  0  0
   -2.1062    1.4394    0.7729 H   0  0  0  0  0  0
   -4.3803    0.8687    1.5027 H   0  0  0  0  0  0
   -4.9494   -1.4330    2.1950 H   0  0  0  0  0  0
   -3.2315   -3.2210    2.1673 H   0  0  0  0  0  0
    2.2985   -3.2298    0.7197 H   0  0  0  0  0  0
   -0.2146    2.0804    0.1288 H   0  0  0  0  0  0
    4.9169    0.8137   -0.9194 H   0  0  0  0  0  0
    5.3803    3.1607   -1.5932 H   0  0  0  0  0  0
    3.5923    4.8646   -1.5251 H   0  0  0  0  0  0
    1.2927    4.2658   -0.7809 H   0  0  0  0  0  0
    0.4881   -4.5075    1.5032 H   0  0  0  0  0  0
   -1.2253   -4.6131    1.0138 H   0  0  0  0  0  0
   -0.7904   -4.2124    2.7130 H   0  0  0  0  0  0
  1  2  1  0  0  0
  1  5  2  0  0  0
  1 13  1  0  0  0
  2  3  2  0  0  0
  2  6  1  0  0  0
  3  4  1  0  0  0
  3  9  1  0  0  0
  4  5  1  0  0  0
  4 21  1  0  0  0
  5 10  1  0  0  0
  6  7  2  0  0  0
  6 22  1  0  0  0
  7  8  1  0  0  0
  7 23  1  0  0  0
  8  9  2  0  0  0
  8 24  1  0  0  0
  9 25  1  0  0  0
 10 11  2  0  0  0
 10 26  1  0  0  0
 11 12  1  0  0  0
 12 13  2  0  0  0
 12 14  1  0  0  0
 13 16  1  0  0  0
 14 15  2  0  0  0
 14 17  1  0  0  0
 15 16  1  0  0  0
 15 20  1  0  0  0
 16 27  1  0  0  0
 17 18  2  0  0  0
 17 28  1  0  0  0
 18 19  1  0  0  0
 18 29  1  0  0  0
 19 20  2  0  0  0
 19 30  1  0  0  0
 20 31  1  0  0  0
 21 32  1  0  0  0
 21 33  1  0  0  0
 21 34  1  0  0  0
M  END
>  <Name>
6-14

>  <Family>
N.1

>  <IC50_uM>
1.163000

>  <set>
1

$$$$
5-18
  Cerius2 12180215293D 1   1.00000                          
 Structure written by MMmdl.
 34 38  0  0  0  0  0  0  0  0999 V2000
    0.0364   -1.4177    0.8952 C   0  0  0  0  0  0
   -1.3395   -1.3103    1.2459 C   0  0  0  0  0  0
   -1.6999   -2.6082    1.6437 C   0  0  0  0  0  0
   -0.5839   -3.4258    1.5278 N   0  0  0  0  0  0
    0.4897   -2.7069    1.0690 C   0  0  0  0  0  0
   -2.3258   -0.3028    1.2828 C   0  0  0  0  0  0
   -3.6223   -0.6197    1.7095 C   0  0  0  0  0  0
   -3.9489   -1.9156    2.0975 C   0  0  0  0  0  0
   -2.9937   -2.9341    2.0718 C   0  0  0  0  0  0
    1.8125   -3.0290    0.7822 C   0  0  0  0  0  0
    2.6788   -2.0760    0.3258 N   0  0  0  0  0  0
    2.2082   -0.8082    0.1615 C   0  0  0  0  0  0
    0.9065   -0.4757    0.4402 C   0  0  0  0  0  0
    2.8345    0.3896   -0.2865 C   0  0  0  0  0  0
    1.8616    1.4054   -0.2553 C   0  0  0  0  0  0
    0.6823    0.8251    0.2008 N   0  0  0  0  0  0
    4.1377    0.7089   -0.7170 C   0  0  0  0  0  0
    4.4311    2.0189   -1.1011 C   0  0  0  0  0  0
    3.4484    3.0062   -1.0607 C   0  0  0  0  0  0
    2.1336    2.7338   -0.6364 C   0  0  0  0  0  0
    1.1237    3.8462   -0.6196 C   0  0  0  0  0  0
   -0.5707   -4.4133    1.7519 H   0  0  0  0  0  0
   -2.1081    0.7193    0.9878 H   0  0  0  0  0  0
   -4.3829    0.1598    1.7372 H   0  0  0  0  0  0
   -4.9632   -2.1402    2.4260 H   0  0  0  0  0  0
   -3.2516   -3.9461    2.3756 H   0  0  0  0  0  0
    2.2096   -4.0321    0.9052 H   0  0  0  0  0  0
   -0.1866    1.3271    0.3219 H   0  0  0  0  0  0
    4.9085   -0.0581   -0.7504 H   0  0  0  0  0  0
    5.4369    2.2700   -1.4351 H   0  0  0  0  0  0
    3.7132    4.0191   -1.3685 H   0  0  0  0  0  0
    0.9817    4.2381   -1.6319 H   0  0  0  0  0  0
    1.4684    4.6561    0.0314 H   0  0  0  0  0  0
    0.1517    3.5086   -0.2492 H   0  0  0  0  0  0
  1  2  1  0  0  0
  1  5  2  0  0  0
  1 13  1  0  0  0
  2  3  2  0  0  0
  2  6  1  0  0  0
  3  4  1  0  0  0
  3  9  1  0  0  0
  4  5  1  0  0  0
  4 22  1  0  0  0
  5 10  1  0  0  0
  6  7  2  0  0  0
  6 23  1  0  0  0
  7  8  1  0  0  0
  7 24  1  0  0  0
  8  9  2  0  0  0
  8 25  1  0  0  0
  9 26  1  0  0  0
 10 11  2  0  0  0
 10 27  1  0  0  0
 11 12  1  0  0  0
 12 13  2  0  0  0
 12 14  1  0  0  0
 13 16  1  0  0  0
 14 15  2  0  0  0
 14 17  1  0  0  0
 15 16  1  0  0  0
 15 20  1  0  0  0
 16 28  1  0  0  0
 17 18  2  0  0  0
 17 29  1  0  0  0
 18 19  1  0  0  0
 18 30  1  0  0  0
 19 20  2  0  0  0
 19 31  1  0  0  0
 20 21  1  0  0  0
 21 32  1  0  0  0
 21 33  1  0  0  0
 21 34  1  0  0  0
M  END
>  <Name>
5-18

>  <Family>
N.1

>  <IC50_uM>
0.083000

>  <set>
2

$$$$
5-19
  Cerius2 12180215293D 1   1.00000                          
 Structure written by MMmdl.
 34 38  0  0  0  0  0  0  0  0999 V2000
    0.0338   -1.5574    1.1477 C   0  0  0  0  0  0
   -1.3503   -1.4568    1.4669 C   0  0  0  0  0  0
   -1.6914   -2.7327    1.9446 C   0  0  0  0  0  0
   -0.5571   -3.5319    1.9024 N   0  0  0  0  0  0
    0.5098   -2.8222    1.4149 C   0  0  0  0  0  0
   -2.3574   -0.4706    1.4192 C   0  0  0  0  0  0
   -3.6548   -0.7860    1.8442 C   0  0  0  0  0  0
   -3.9620   -2.0599    2.3128 C   0  0  0  0  0  0
   -2.9860   -3.0571    2.3717 C   0  0  0  0  0  0
    1.8440   -3.1345    1.1730 C   0  0  0  0  0  0
    2.6995   -2.1959    0.6690 N   0  0  0  0  0  0
    2.2071   -0.9521    0.4121 C   0  0  0  0  0  0
    0.8926   -0.6289    0.6459 C   0  0  0  0  0  0
    2.8183    0.2258   -0.1032 C   0  0  0  0  0  0
    1.8234    1.2142   -0.1546 C   0  0  0  0  0  0
    0.6466    0.6493    0.3179 N   0  0  0  0  0  0
    4.1195    0.5577   -0.5296 C   0  0  0  0  0  0
    4.3831    1.8531   -0.9935 C   0  0  0  0  0  0
    3.3740    2.8210   -1.0507 C   0  0  0  0  0  0
    2.0749    2.5134   -0.6156 C   0  0  0  0  0  0
    3.6942    4.2121   -1.5225 C   0  0  0  0  0  0
   -0.5279   -4.5019    2.1924 H   0  0  0  0  0  0
   -2.1548    0.5338    1.0596 H   0  0  0  0  0  0
   -4.4314   -0.0230    1.8066 H   0  0  0  0  0  0
   -4.9774   -2.2839    2.6385 H   0  0  0  0  0  0
   -3.2288   -4.0519    2.7382 H   0  0  0  0  0  0
    2.2587   -4.1186    1.3697 H   0  0  0  0  0  0
   -0.2311    1.1465    0.3887 H   0  0  0  0  0  0
    4.9145   -0.1843   -0.4964 H   0  0  0  0  0  0
    5.3958    2.0987   -1.3136 H   0  0  0  0  0  0
    1.2833    3.2598   -0.6363 H   0  0  0  0  0  0
    2.8163    4.6819   -1.9784 H   0  0  0  0  0  0
    4.4835    4.1944   -2.2815 H   0  0  0  0  0  0
    4.0261    4.8252   -0.6790 H   0  0  0  0  0  0
  1  2  1  0  0  0
  1  5  2  0  0  0
  1 13  1  0  0  0
  2  3  2  0  0  0
  2  6  1  0  0  0
  3  4  1  0  0  0
  3  9  1  0  0  0
  4  5  1  0  0  0
  4 22  1  0  0  0
  5 10  1  0  0  0
  6  7  2  0  0  0
  6 23  1  0  0  0
  7  8  1  0  0  0
  7 24  1  0  0  0
  8  9  2  0  0  0
  8 25  1  0  0  0
  9 26  1  0  0  0
 10 11  2  0  0  0
 10 27  1  0  0  0
 11 12  1  0  0  0
 12 13  2  0  0  0
 12 14  1  0  0  0
 13 16  1  0  0  0
 14 15  2  0  0  0
 14 17  1  0  0  0
 15 16  1  0  0  0
 15 20  1  0  0  0
 16 28  1  0  0  0
 17 18  2  0  0  0
 17 29  1  0  0  0
 18 19  1  0  0  0
 18 30  1  0  0  0
 19 20  2  0  0  0
 19 21  1  0  0  0
 20 31  1  0  0  0
 21 32  1  0  0  0
 21 33  1  0  0  0
 21 34  1  0  0  0
M  END
>  <Name>
5-19

>  <Family>
N.1

>  <IC50_uM>
0.010000

>  <set>
1

$$$$
5-20
  Cerius2 12180215293D 1   1.00000                          
 Structure written by MMmdl.
 34 38  0  0  0  0  0  0  0  0999 V2000
   -0.4944   -1.0261    1.4854 C   0  0  0  0  0  0
   -1.8633   -0.9104    1.8599 C   0  0  0  0  0  0
   -2.2011   -2.1848    2.3441 C   0  0  0  0  0  0
   -1.0794   -2.9975    2.2528 N   0  0  0  0  0  0
   -0.0239   -2.2982    1.7268 C   0  0  0  0  0  0
   -2.8591    0.0883    1.8574 C   0  0  0  0  0  0
   -4.1425   -0.2136    2.3320 C   0  0  0  0  0  0
   -4.4467   -1.4863    2.8059 C   0  0  0  0  0  0
   -3.4816   -2.4956    2.8208 C   0  0  0  0  0  0
    1.2957   -2.6254    1.4305 C   0  0  0  0  0  0
    2.1421   -1.6944    0.8978 N   0  0  0  0  0  0
    1.6555   -0.4432    0.6675 C   0  0  0  0  0  0
    0.3554   -0.1054    0.9548 C   0  0  0  0  0  0
    2.2606    0.7300    0.1343 C   0  0  0  0  0  0
    1.2772    1.7312    0.1302 C   0  0  0  0  0  0
    0.1124    1.1776    0.6432 N   0  0  0  0  0  0
    3.5496    1.0470   -0.3447 C   0  0  0  0  0  0
    3.8205    2.3403   -0.8228 C   0  0  0  0  0  0
    2.8166    3.3147   -0.7968 C   0  0  0  0  0  0
    1.5293    3.0290   -0.3273 C   0  0  0  0  0  0
    5.2007    2.6894   -1.3023 C   0  0  0  0  0  0
   -1.0507   -3.9693    2.5363 H   0  0  0  0  0  0
   -2.6584    1.0922    1.4953 H   0  0  0  0  0  0
   -4.9105    0.5590    2.3292 H   0  0  0  0  0  0
   -5.4510   -1.6996    3.1706 H   0  0  0  0  0  0
   -3.7219   -3.4894    3.1916 H   0  0  0  0  0  0
    1.7056   -3.6155    1.6055 H   0  0  0  0  0  0
   -0.7553    1.6854    0.7520 H   0  0  0  0  0  0
    4.3253    0.2833   -0.3408 H   0  0  0  0  0  0
    3.0298    4.3246   -1.1493 H   0  0  0  0  0  0
    0.7575    3.7950   -0.3178 H   0  0  0  0  0  0
    5.8070    3.0493   -0.4655 H   0  0  0  0  0  0
    5.1616    3.4670   -2.0724 H   0  0  0  0  0  0
    5.6915    1.8171   -1.7468 H   0  0  0  0  0  0
  1  2  1  0  0  0
  1  5  2  0  0  0
  1 13  1  0  0  0
  2  3  2  0  0  0
  2  6  1  0  0  0
  3  4  1  0  0  0
  3  9  1  0  0  0
  4  5  1  0  0  0
  4 22  1  0  0  0
  5 10  1  0  0  0
  6  7  2  0  0  0
  6 23  1  0  0  0
  7  8  1  0  0  0
  7 24  1  0  0  0
  8  9  2  0  0  0
  8 25  1  0  0  0
  9 26  1  0  0  0
 10 11  2  0  0  0
 10 27  1  0  0  0
 11 12  1  0  0  0
 12 13  2  0  0  0
 12 14  1  0  0  0
 13 16  1  0  0  0
 14 15  2  0  0  0
 14 17  1  0  0  0
 15 16  1  0  0  0
 15 20  1  0  0  0
 16 28  1  0  0  0
 17 18  2  0  0  0
 17 29  1  0  0  0
 18 19  1  0  0  0
 18 21  1  0  0  0
 19 20  2  0  0  0
 19 30  1  0  0  0
 20 31  1  0  0  0
 21 32  1  0  0  0
 21 33  1  0  0  0
 21 34  1  0  0  0
M  END
>  <Name>
5-20

>  <Family>
N.1

>  <IC50_uM>
0.224000

>  <set>
0

$$$$
5-21
  Cerius2 12180215293D 1   1.00000                          
 Structure written by MMmdl.
 34 38  0  0  0  0  0  0  0  0999 V2000
   -0.3160   -1.0394    0.9933 C   0  0  0  0  0  0
   -1.6798   -0.9116    1.3833 C   0  0  0  0  0  0
   -2.0461   -2.2025    1.7984 C   0  0  0  0  0  0
   -0.9452   -3.0357    1.6544 N   0  0  0  0  0  0
    0.1239   -2.3337    1.1608 C   0  0  0  0  0  0
   -2.6510    0.1093    1.4435 C   0  0  0  0  0  0
   -3.9386   -0.1874    1.9099 C   0  0  0  0  0  0
   -4.2713   -1.4768    2.3143 C   0  0  0  0  0  0
   -3.3311   -2.5084    2.2661 C   0  0  0  0  0  0
    1.4327   -2.6748    0.8374 C   0  0  0  0  0  0
    2.2971   -1.7359    0.3517 N   0  0  0  0  0  0
    1.8444   -0.4602    0.1936 C   0  0  0  0  0  0
    0.5536   -0.1117    0.5085 C   0  0  0  0  0  0
    2.4791    0.7305   -0.2795 C   0  0  0  0  0  0
    1.5070    1.7456   -0.2276 C   0  0  0  0  0  0
    0.3363    1.1893    0.2687 N   0  0  0  0  0  0
    3.7798    1.0492   -0.7510 C   0  0  0  0  0  0
    4.0229    2.3734   -1.1723 C   0  0  0  0  0  0
    3.0369    3.3558   -1.1077 C   0  0  0  0  0  0
    1.7608    3.0611   -0.6299 C   0  0  0  0  0  0
    4.8913    0.0413   -0.8714 C   0  0  0  0  0  0
   -0.9387   -4.0222    1.8834 H   0  0  0  0  0  0
   -2.4281    1.1269    1.1368 H   0  0  0  0  0  0
   -4.6873    0.6026    1.9557 H   0  0  0  0  0  0
   -5.2783   -1.6858    2.6737 H   0  0  0  0  0  0
   -3.5937   -3.5152    2.5828 H   0  0  0  0  0  0
    1.8200   -3.6824    0.9536 H   0  0  0  0  0  0
   -0.5210    1.7076    0.4070 H   0  0  0  0  0  0
    5.0066    2.6455   -1.5573 H   0  0  0  0  0  0
    3.2651    4.3692   -1.4367 H   0  0  0  0  0  0
    0.9923    3.8289   -0.5810 H   0  0  0  0  0  0
    4.9036   -0.3780   -1.8821 H   0  0  0  0  0  0
    4.7699   -0.7734   -0.1522 H   0  0  0  0  0  0
    5.8614    0.5074   -0.6692 H   0  0  0  0  0  0
  1  2  1  0  0  0
  1  5  2  0  0  0
  1 13  1  0  0  0
  2  3  2  0  0  0
  2  6  1  0  0  0
  3  4  1  0  0  0
  3  9  1  0  0  0
  4  5  1  0  0  0
  4 22  1  0  0  0
  5 10  1  0  0  0
  6  7  2  0  0  0
  6 23  1  0  0  0
  7  8  1  0  0  0
  7 24  1  0  0  0
  8  9  2  0  0  0
  8 25  1  0  0  0
  9 26  1  0  0  0
 10 11  2  0  0  0
 10 27  1  0  0  0
 11 12  1  0  0  0
 12 13  2  0  0  0
 12 14  1  0  0  0
 13 16  1  0  0  0
 14 15  2  0  0  0
 14 17  1  0  0  0
 15 16  1  0  0  0
 15 20  1  0  0  0
 16 28  1  0  0  0
 17 18  2  0  0  0
 17 21  1  0  0  0
 18 19  1  0  0  0
 18 29  1  0  0  0
 19 20  2  0  0  0
 19 30  1  0  0  0
 20 31  1  0  0  0
 21 32  1  0  0  0
 21 33  1  0  0  0
 21 34  1  0  0  0
M  END
>  <Name>
5-21

>  <Family>
N.1

>  <IC50_uM>
6.860000

>  <set>
0

$$$$
5-24
  Cerius2 12180215293D 1   1.00000                          
 Structure written by MMmdl.
 34 38  0  0  0  0  0  0  0  0999 V2000
   -0.0232   -0.9360    0.9262 C   0  0  0  0  0  0
   -1.4405   -0.9392    1.1700 C   0  0  0  0  0  0
   -1.7224   -2.2265    1.6585 C   0  0  0  0  0  0
   -0.5518   -2.9612    1.6384 N   0  0  0  0  0  0
    0.4731   -2.2117    1.1258 C   0  0  0  0  0  0
   -2.5376   -0.0655    1.0029 C   0  0  0  0  0  0
   -3.8264   -0.4605    1.3889 C   0  0  0  0  0  0
   -4.0526   -1.7243    1.9179 C   0  0  0  0  0  0
   -3.0050   -2.6345    2.0519 C   0  0  0  0  0  0
    1.7899   -2.5209    0.8173 C   0  0  0  0  0  0
    2.6086   -1.5827    0.2794 N   0  0  0  0  0  0
    2.1254   -0.3203    0.1301 C   0  0  0  0  0  0
    0.8363    0.0368    0.4838 C   0  0  0  0  0  0
    2.7536    0.8344   -0.4052 C   0  0  0  0  0  0
    1.8368    1.8849   -0.2836 C   0  0  0  0  0  0
    0.7075    1.3781    0.3644 N   0  0  0  0  0  0
    4.0174    1.0908   -0.9778 C   0  0  0  0  0  0
    4.3240    2.3801   -1.4242 C   0  0  0  0  0  0
    3.3958    3.4094   -1.3016 C   0  0  0  0  0  0
    2.1410    3.1842   -0.7266 C   0  0  0  0  0  0
   -0.2631    2.2564    0.9818 C   0  0  0  0  0  0
   -0.4810   -3.9347    1.9083 H   0  0  0  0  0  0
   -2.4251    0.9106    0.5465 H   0  0  0  0  0  0
   -4.6598    0.2289    1.2598 H   0  0  0  0  0  0
   -5.0605   -2.0166    2.2099 H   0  0  0  0  0  0
   -3.1861   -3.6361    2.4356 H   0  0  0  0  0  0
    2.2065   -3.5135    0.9591 H   0  0  0  0  0  0
    4.7464    0.2893   -1.0771 H   0  0  0  0  0  0
    5.2973    2.5781   -1.8708 H   0  0  0  0  0  0
    3.6510    4.4086   -1.6535 H   0  0  0  0  0  0
    1.4290    4.0008   -0.6305 H   0  0  0  0  0  0
    0.2414    3.1621    1.3315 H   0  0  0  0  0  0
   -0.6983    1.7725    1.8570 H   0  0  0  0  0  0
   -1.0121    2.5214    0.2334 H   0  0  0  0  0  0
  1  2  1  0  0  0
  1  5  2  0  0  0
  1 13  1  0  0  0
  2  3  2  0  0  0
  2  6  1  0  0  0
  3  4  1  0  0  0
  3  9  1  0  0  0
  4  5  1  0  0  0
  4 22  1  0  0  0
  5 10  1  0  0  0
  6  7  2  0  0  0
  6 23  1  0  0  0
  7  8  1  0  0  0
  7 24  1  0  0  0
  8  9  2  0  0  0
  8 25  1  0  0  0
  9 26  1  0  0  0
 10 11  2  0  0  0
 10 27  1  0  0  0
 11 12  1  0  0  0
 12 13  2  0  0  0
 12 14  1  0  0  0
 13 16  1  0  0  0
 14 15  2  0  0  0
 14 17  1  0  0  0
 15 16  1  0  0  0
 15 20  1  0  0  0
 16 21  1  0  0  0
 17 18  2  0  0  0
 17 28  1  0  0  0
 18 19  1  0  0  0
 18 29  1  0  0  0
 19 20  2  0  0  0
 19 30  1  0  0  0
 20 31  1  0  0  0
 21 32  1  0  0  0
 21 33  1  0  0  0
 21 34  1  0  0  0
M  END
>  <Name>
5-24

>  <Family>
N.1

>  <IC50_uM>
0.157000

>  <set>
0

$$$$
5-25
  Cerius2 12180215293D 1   1.00000                          
 Structure written by MMmdl.
 37 41  0  0  0  0  0  0  0  0999 V2000
   -0.0015   -0.6062    0.7954 C   0  0  0  0  0  0
   -1.4155   -0.6080    1.0435 C   0  0  0  0  0  0
   -1.7084   -1.9108    1.4869 C   0  0  0  0  0  0
   -0.5375   -2.6531    1.4344 N   0  0  0  0  0  0
    0.4898   -1.8940    0.9307 C   0  0  0  0  0  0
   -2.5007    0.2862    0.9044 C   0  0  0  0  0  0
   -3.7950   -0.0982    1.2773 C   0  0  0  0  0  0
   -4.0397   -1.3734    1.7647 C   0  0  0  0  0  0
   -3.0054   -2.3030    1.8667 C   0  0  0  0  0  0
    1.8040   -2.1816    0.5747 C   0  0  0  0  0  0
    2.6118   -1.2195    0.0633 N   0  0  0  0  0  0
    2.1305    0.0488   -0.0111 C   0  0  0  0  0  0
    0.8510    0.3873    0.3879 C   0  0  0  0  0  0
    2.7487    1.2288   -0.5005 C   0  0  0  0  0  0
    1.8382    2.2728   -0.3008 C   0  0  0  0  0  0
    0.7245    1.7337    0.3483 N   0  0  0  0  0  0
    3.9990    1.5138   -1.0889 C   0  0  0  0  0  0
    4.2980    2.8248   -1.4730 C   0  0  0  0  0  0
    3.3759    3.8475   -1.2723 C   0  0  0  0  0  0
    2.1351    3.5938   -0.6795 C   0  0  0  0  0  0
   -0.2159    2.5796    1.0526 C   0  0  0  0  0  0
   -0.4442   -4.0519    1.8021 C   0  0  0  0  0  0
   -2.3715    1.2733    0.4764 H   0  0  0  0  0  0
   -4.6172    0.6080    1.1699 H   0  0  0  0  0  0
   -5.0516   -1.6605    2.0476 H   0  0  0  0  0  0
   -3.2132   -3.3120    2.2163 H   0  0  0  0  0  0
    2.2306   -3.1769    0.6535 H   0  0  0  0  0  0
    4.7235    0.7179   -1.2484 H   0  0  0  0  0  0
    5.2607    3.0453   -1.9319 H   0  0  0  0  0  0
    3.6255    4.8639   -1.5760 H   0  0  0  0  0  0
    1.4280    4.4048   -0.5208 H   0  0  0  0  0  0
    0.3166    3.4426    1.4637 H   0  0  0  0  0  0
   -0.6489    2.0371    1.8938 H   0  0  0  0  0  0
   -0.9712    2.9209    0.3425 H   0  0  0  0  0  0
    0.6031   -4.3421    1.9071 H   0  0  0  0  0  0
   -0.9233   -4.6425    1.0173 H   0  0  0  0  0  0
   -0.9491   -4.1978    2.7606 H   0  0  0  0  0  0
  1  2  1  0  0  0
  1  5  2  0  0  0
  1 13  1  0  0  0
  2  3  2  0  0  0
  2  6  1  0  0  0
  3  4  1  0  0  0
  3  9  1  0  0  0
  4  5  1  0  0  0
  4 22  1  0  0  0
  5 10  1  0  0  0
  6  7  2  0  0  0
  6 23  1  0  0  0
  7  8  1  0  0  0
  7 24  1  0  0  0
  8  9  2  0  0  0
  8 25  1  0  0  0
  9 26  1  0  0  0
 10 11  2  0  0  0
 10 27  1  0  0  0
 11 12  1  0  0  0
 12 13  2  0  0  0
 12 14  1  0  0  0
 13 16  1  0  0  0
 14 15  2  0  0  0
 14 17  1  0  0  0
 15 16  1  0  0  0
 15 20  1  0  0  0
 16 21  1  0  0  0
 17 18  2  0  0  0
 17 28  1  0  0  0
 18 19  1  0  0  0
 18 29  1  0  0  0
 19 20  2  0  0  0
 19 30  1  0  0  0
 20 31  1  0  0  0
 21 32  1  0  0  0
 21 33  1  0  0  0
 21 34  1  0  0  0
 22 35  1  0  0  0
 22 36  1  0  0  0
 22 37  1  0  0  0
M  END
>  <Name>
5-25

>  <Family>
N.1

>  <IC50_uM>
1.917000

>  <set>
0

$$$$
5-44
  Cerius2 12180215293D 1   1.00000                          
 Structure written by MMmdl.
 35 39  0  0  0  0  0  0  0  0999 V2000
   -0.2808   -0.7352    1.2906 C   0  0  0  0  0  0
   -1.5905   -0.3516    1.6980 C   0  0  0  0  0  0
   -2.1964   -1.5532    2.1003 C   0  0  0  0  0  0
   -1.2793   -2.5816    1.9325 N   0  0  0  0  0  0
   -0.0988   -2.0927    1.4358 C   0  0  0  0  0  0
   -2.3450    0.8370    1.7826 C   0  0  0  0  0  0
   -3.6617    0.7881    2.2597 C   0  0  0  0  0  0
   -4.2343   -0.4184    2.6510 C   0  0  0  0  0  0
   -3.5123   -1.6116    2.5785 C   0  0  0  0  0  0
    1.1160   -2.6766    1.0928 C   0  0  0  0  0  0
    2.1421   -1.9164    0.6088 N   0  0  0  0  0  0
    1.9432   -0.5751    0.4729 C   0  0  0  0  0  0
    0.7478    0.0138    0.8079 C   0  0  0  0  0  0
    2.7866    0.4752    0.0062 C   0  0  0  0  0  0
    2.0399    1.6638    0.0968 C   0  0  0  0  0  0
    0.7850    1.3371    0.5899 N   0  0  0  0  0  0
    4.1084    0.5603   -0.4853 C   0  0  0  0  0  0
    4.6519    1.8049   -0.8251 C   0  0  0  0  0  0
    3.8822    2.9616   -0.7236 C   0  0  0  0  0  0
    2.5615    2.9126   -0.2666 C   0  0  0  0  0  0
    4.9293   -0.5455   -0.5709 O   0  0  0  0  0  0
    4.7155   -1.2047   -1.8237 C   0  0  0  0  0  0
   -1.4622   -3.5540    2.1483 H   0  0  0  0  0  0
   -1.9321    1.7966    1.4864 H   0  0  0  0  0  0
   -4.2427    1.7073    2.3243 H   0  0  0  0  0  0
   -5.2597   -0.4339    3.0190 H   0  0  0  0  0  0
   -3.9621   -2.5532    2.8849 H   0  0  0  0  0  0
    1.3012   -3.7419    1.1915 H   0  0  0  0  0  0
    0.0478    2.0104    0.7516 H   0  0  0  0  0  0
    5.6801    1.8720   -1.1753 H   0  0  0  0  0  0
    4.3163    3.9218   -1.0012 H   0  0  0  0  0  0
    1.9666    3.8198   -0.1877 H   0  0  0  0  0  0
    5.3806   -2.0725   -1.8612 H   0  0  0  0  0  0
    4.9683   -0.5459   -2.6617 H   0  0  0  0  0  0
    3.6849   -1.5627   -1.9178 H   0  0  0  0  0  0
  1  2  1  0  0  0
  1  5  2  0  0  0
  1 13  1  0  0  0
  2  3  2  0  0  0
  2  6  1  0  0  0
  3  4  1  0  0  0
  3  9  1  0  0  0
  4  5  1  0  0  0
  4 23  1  0  0  0
  5 10  1  0  0  0
  6  7  2  0  0  0
  6 24  1  0  0  0
  7  8  1  0  0  0
  7 25  1  0  0  0
  8  9  2  0  0  0
  8 26  1  0  0  0
  9 27  1  0  0  0
 10 11  2  0  0  0
 10 28  1  0  0  0
 11 12  1  0  0  0
 12 13  2  0  0  0
 12 14  1  0  0  0
 13 16  1  0  0  0
 14 15  2  0  0  0
 14 17  1  0  0  0
 15 16  1  0  0  0
 15 20  1  0  0  0
 16 29  1  0  0  0
 17 18  2  0  0  0
 17 21  1  0  0  0
 18 19  1  0  0  0
 18 30  1  0  0  0
 19 20  2  0  0  0
 19 31  1  0  0  0
 20 32  1  0  0  0
 21 22  1  0  0  0
 22 33  1  0  0  0
 22 34  1  0  0  0
 22 35  1  0  0  0
M  END
>  <Name>
5-44

>  <Family>
N.1

>  <IC50_uM>
0.250000

>  <set>
0

$$$$
5-45
  Cerius2 12180215293D 1   1.00000                          
 Structure written by MMmdl.
 31 35  0  0  0  0  0  0  0  0999 V2000
   -0.2631   -0.7600    0.8908 C   0  0  0  0  0  0
   -1.5918   -0.3684    1.2230 C   0  0  0  0  0  0
   -2.2049   -1.5530    1.6630 C   0  0  0  0  0  0
   -1.2738   -2.5797    1.5880 N   0  0  0  0  0  0
   -0.0773   -2.1059    1.1155 C   0  0  0  0  0  0
   -2.3583    0.8155    1.2137 C   0  0  0  0  0  0
   -3.6933    0.7789    1.6379 C   0  0  0  0  0  0
   -4.2726   -0.4109    2.0684 C   0  0  0  0  0  0
   -3.5391   -1.5991    2.0889 C   0  0  0  0  0  0
    1.1550   -2.6944    0.8549 C   0  0  0  0  0  0
    2.1938   -1.9502    0.3748 N   0  0  0  0  0  0
    1.9936   -0.6197    0.1577 C   0  0  0  0  0  0
    0.7795   -0.0277    0.4118 C   0  0  0  0  0  0
    2.8496    0.4153   -0.3264 C   0  0  0  0  0  0
    2.0814    1.5968   -0.3354 C   0  0  0  0  0  0
    0.8122    1.2820    0.1263 N   0  0  0  0  0  0
    4.1856    0.5178   -0.7641 C   0  0  0  0  0  0
    4.7208    1.7357   -1.1868 C   0  0  0  0  0  0
    3.9283    2.8799   -1.1805 C   0  0  0  0  0  0
    2.5965    2.8318   -0.7556 C   0  0  0  0  0  0
    5.1288   -0.9090   -0.7578 Cl  0  0  0  0  0  0
   -1.4580   -3.5412    1.8474 H   0  0  0  0  0  0
   -1.9410    1.7625    0.8847 H   0  0  0  0  0  0
   -4.2835    1.6945    1.6299 H   0  0  0  0  0  0
   -5.3123   -0.4172    2.3941 H   0  0  0  0  0  0
   -3.9941   -2.5277    2.4258 H   0  0  0  0  0  0
    1.3448   -3.7509    1.0175 H   0  0  0  0  0  0
    0.0614    1.9533    0.2192 H   0  0  0  0  0  0
    5.7538    1.7968   -1.5213 H   0  0  0  0  0  0
    4.3501    3.8285   -1.5113 H   0  0  0  0  0  0
    1.9828    3.7302   -0.7533 H   0  0  0  0  0  0
  1  2  1  0  0  0
  1  5  2  0  0  0
  1 13  1  0  0  0
  2  3  2  0  0  0
  2  6  1  0  0  0
  3  4  1  0  0  0
  3  9  1  0  0  0
  4  5  1  0  0  0
  4 22  1  0  0  0
  5 10  1  0  0  0
  6  7  2  0  0  0
  6 23  1  0  0  0
  7  8  1  0  0  0
  7 24  1  0  0  0
  8  9  2  0  0  0
  8 25  1  0  0  0
  9 26  1  0  0  0
 10 11  2  0  0  0
 10 27  1  0  0  0
 11 12  1  0  0  0
 12 13  2  0  0  0
 12 14  1  0  0  0
 13 16  1  0  0  0
 14 15  2  0  0  0
 14 17  1  0  0  0
 15 16  1  0  0  0
 15 20  1  0  0  0
 16 28  1  0  0  0
 17 18  2  0  0  0
 17 21  1  0  0  0
 18 19  1  0  0  0
 18 29  1  0  0  0
 19 20  2  0  0  0
 19 30  1  0  0  0
 20 31  1  0  0  0
M  END
>  <Name>
5-45

>  <Family>
N.1

>  <IC50_uM>
0.715000

>  <set>
0

$$$$
5-28
  Cerius2 12180215293D 1   1.00000                          
 Structure written by MMmdl.
 37 41  0  0  0  0  0  0  0  0999 V2000
   -0.0707    0.1102    0.6378 C   0  0  0  0  0  0
   -1.4573    0.3930    0.7980 C   0  0  0  0  0  0
   -1.9769   -0.7551    1.4154 C   0  0  0  0  0  0
   -0.9388   -1.6561    1.6018 N   0  0  0  0  0  0
    0.2427   -1.1385    1.1296 C   0  0  0  0  0  0
   -2.3419    1.4529    0.5088 C   0  0  0  0  0  0
   -3.6978    1.3329    0.8416 C   0  0  0  0  0  0
   -4.1826    0.1811    1.4537 C   0  0  0  0  0  0
   -3.3310   -0.8846    1.7521 C   0  0  0  0  0  0
    1.5587   -1.6214    1.0739 C   0  0  0  0  0  0
    2.5390   -0.8376    0.5154 N   0  0  0  0  0  0
    2.2050    0.3911    0.0381 C   0  0  0  0  0  0
    0.9195    0.8674    0.0945 C   0  0  0  0  0  0
    2.9800    1.4129   -0.5799 C   0  0  0  0  0  0
    2.1040    2.4716   -0.8689 C   0  0  0  0  0  0
    0.8391    2.0974   -0.4374 N   0  0  0  0  0  0
    4.3403    1.5491   -0.9254 C   0  0  0  0  0  0
    4.7782    2.7268   -1.5424 C   0  0  0  0  0  0
    3.8850    3.7608   -1.8169 C   0  0  0  0  0  0
    2.5305    3.6540   -1.4858 C   0  0  0  0  0  0
    1.9692   -2.9803    1.5765 C   0  0  0  0  0  0
    1.7651   -4.0551    0.5199 C   0  0  0  0  0  0
   -1.0452   -2.5678    2.0291 H   0  0  0  0  0  0
   -2.0006    2.3668    0.0320 H   0  0  0  0  0  0
   -4.3792    2.1528    0.6175 H   0  0  0  0  0  0
   -5.2405    0.1084    1.7042 H   0  0  0  0  0  0
   -3.7122   -1.7839    2.2304 H   0  0  0  0  0  0
    0.0168    2.6794   -0.5252 H   0  0  0  0  0  0
    5.0434    0.7462   -0.7144 H   0  0  0  0  0  0
    5.8285    2.8344   -1.8102 H   0  0  0  0  0  0
    4.2471    4.6692   -2.2979 H   0  0  0  0  0  0
    1.8380    4.4639   -1.7023 H   0  0  0  0  0  0
    1.3970   -3.2298    2.4773 H   0  0  0  0  0  0
    3.0250   -2.9520    1.8706 H   0  0  0  0  0  0
    2.0826   -5.0295    0.9044 H   0  0  0  0  0  0
    2.3477   -3.8384   -0.3820 H   0  0  0  0  0  0
    0.7122   -4.1319    0.2284 H   0  0  0  0  0  0
  1  2  1  0  0  0
  1  5  2  0  0  0
  1 13  1  0  0  0
  2  3  2  0  0  0
  2  6  1  0  0  0
  3  4  1  0  0  0
  3  9  1  0  0  0
  4  5  1  0  0  0
  4 23  1  0  0  0
  5 10  1  0  0  0
  6  7  2  0  0  0
  6 24  1  0  0  0
  7  8  1  0  0  0
  7 25  1  0  0  0
  8  9  2  0  0  0
  8 26  1  0  0  0
  9 27  1  0  0  0
 10 11  2  0  0  0
 10 21  1  0  0  0
 11 12  1  0  0  0
 12 13  2  0  0  0
 12 14  1  0  0  0
 13 16  1  0  0  0
 14 15  2  0  0  0
 14 17  1  0  0  0
 15 16  1  0  0  0
 15 20  1  0  0  0
 16 28  1  0  0  0
 17 18  2  0  0  0
 17 29  1  0  0  0
 18 19  1  0  0  0
 18 30  1  0  0  0
 19 20  2  0  0  0
 19 31  1  0  0  0
 20 32  1  0  0  0
 21 22  1  0  0  0
 21 33  1  0  0  0
 21 34  1  0  0  0
 22 35  1  0  0  0
 22 36  1  0  0  0
 22 37  1  0  0  0
M  END
>  <Name>
5-28

>  <Family>
N.1

>  <IC50_uM>
0.285000

>  <set>
1

$$$$
9-5
  Cerius2 12180215293D 1   1.00000                          
 Structure written by MMmdl.
 31 35  0  0  0  0  0  0  0  0999 V2000
   -0.2385   -1.0081    1.0502 C   0  0  0  0  0  0
   -1.6193   -0.9084    1.3832 C   0  0  0  0  0  0
   -1.9646   -2.1955    1.8269 C   0  0  0  0  0  0
   -0.8355   -2.9998    1.7530 N   0  0  0  0  0  0
    0.2320   -2.2828    1.2774 C   0  0  0  0  0  0
   -2.6206    0.0847    1.3717 C   0  0  0  0  0  0
   -3.9166   -0.2350    1.7979 C   0  0  0  0  0  0
   -4.2280   -1.5199    2.2324 C   0  0  0  0  0  0
   -3.2577   -2.5242    2.2549 C   0  0  0  0  0  0
    1.5623   -2.5960    1.0162 C   0  0  0  0  0  0
    2.4195   -1.6484    0.5322 N   0  0  0  0  0  0
    1.9325   -0.3953    0.3152 C   0  0  0  0  0  0
    0.6221   -0.0708    0.5682 C   0  0  0  0  0  0
    2.5478    0.7921   -0.1715 C   0  0  0  0  0  0
    1.5579    1.7885   -0.1868 C   0  0  0  0  0  0
    0.3811    1.2172    0.2775 N   0  0  0  0  0  0
    3.8493    1.1224   -0.6021 C   0  0  0  0  0  0
    4.1106    2.4276   -1.0290 C   0  0  0  0  0  0
    3.1121    3.3994   -1.0352 C   0  0  0  0  0  0
    1.8130    3.0975   -0.6129 C   0  0  0  0  0  0
    5.6989    2.8401   -1.5572 Cl  0  0  0  0  0  0
   -0.8100   -3.9778    2.0149 H   0  0  0  0  0  0
   -2.4146    1.0978    1.0395 H   0  0  0  0  0  0
   -4.6887    0.5334    1.7883 H   0  0  0  0  0  0
   -5.2421   -1.7470    2.5596 H   0  0  0  0  0  0
   -3.5038   -3.5275    2.5949 H   0  0  0  0  0  0
    1.9725   -3.5877    1.1814 H   0  0  0  0  0  0
   -0.4934    1.7172    0.3685 H   0  0  0  0  0  0
    4.6307    0.3675   -0.5989 H   0  0  0  0  0  0
    3.3348    4.4107   -1.3712 H   0  0  0  0  0  0
    1.0343    3.8562   -0.6179 H   0  0  0  0  0  0
  1  2  1  0  0  0
  1  5  2  0  0  0
  1 13  1  0  0  0
  2  3  2  0  0  0
  2  6  1  0  0  0
  3  4  1  0  0  0
  3  9  1  0  0  0
  4  5  1  0  0  0
  4 22  1  0  0  0
  5 10  1  0  0  0
  6  7  2  0  0  0
  6 23  1  0  0  0
  7  8  1  0  0  0
  7 24  1  0  0  0
  8  9  2  0  0  0
  8 25  1  0  0  0
  9 26  1  0  0  0
 10 11  2  0  0  0
 10 27  1  0  0  0
 11 12  1  0  0  0
 12 13  2  0  0  0
 12 14  1  0  0  0
 13 16  1  0  0  0
 14 15  2  0  0  0
 14 17  1  0  0  0
 15 16  1  0  0  0
 15 20  1  0  0  0
 16 28  1  0  0  0
 17 18  2  0  0  0
 17 29  1  0  0  0
 18 19  1  0  0  0
 18 21  1  0  0  0
 19 20  2  0  0  0
 19 30  1  0  0  0
 20 31  1  0  0  0
M  END
>  <Name>
9-5

>  <Family>
N.1

>  <IC50_uM>
2.150000

>  <set>
0

$$$$
9-6
  Cerius2 12180215293D 1   1.00000                          
 Structure written by MMmdl.
 31 35  0  0  0  0  0  0  0  0999 V2000
   -0.3081   -1.0087    1.0911 C   0  0  0  0  0  0
   -1.6884   -0.9082    1.4258 C   0  0  0  0  0  0
   -2.0338   -2.1950    1.8701 C   0  0  0  0  0  0
   -0.9053   -3.0000    1.7950 N   0  0  0  0  0  0
    0.1619   -2.2836    1.3180 C   0  0  0  0  0  0
   -2.6892    0.0855    1.4155 C   0  0  0  0  0  0
   -3.9848   -0.2334    1.8432 C   0  0  0  0  0  0
   -4.2965   -1.5182    2.2781 C   0  0  0  0  0  0
   -3.3267   -2.5229    2.2997 C   0  0  0  0  0  0
    1.4918   -2.5976    1.0552 C   0  0  0  0  0  0
    2.3489   -1.6505    0.5700 N   0  0  0  0  0  0
    1.8624   -0.3971    0.3533 C   0  0  0  0  0  0
    0.5524   -0.0720    0.6079 C   0  0  0  0  0  0
    2.4777    0.7900   -0.1344 C   0  0  0  0  0  0
    1.4884    1.7868   -0.1486 C   0  0  0  0  0  0
    0.3117    1.2162    0.3172 N   0  0  0  0  0  0
    3.7790    1.1195   -0.5667 C   0  0  0  0  0  0
    4.0399    2.4252   -0.9940 C   0  0  0  0  0  0
    3.0421    3.3979   -0.9993 C   0  0  0  0  0  0
    1.7438    3.0955   -0.5754 C   0  0  0  0  0  0
    5.7840    2.8770   -1.5760 Br  0  0  0  0  0  0
   -0.8801   -3.9779    2.0571 H   0  0  0  0  0  0
   -2.4830    1.0984    1.0829 H   0  0  0  0  0  0
   -4.7566    0.5354    1.8344 H   0  0  0  0  0  0
   -5.3103   -1.7447    2.6065 H   0  0  0  0  0  0
   -3.5729   -3.5261    2.6400 H   0  0  0  0  0  0
    1.9017   -3.5894    1.2201 H   0  0  0  0  0  0
   -0.5623    1.7167    0.4091 H   0  0  0  0  0  0
    4.5580    0.3617   -0.5630 H   0  0  0  0  0  0
    3.2611    4.4103   -1.3351 H   0  0  0  0  0  0
    0.9650    3.8543   -0.5795 H   0  0  0  0  0  0
  1  2  1  0  0  0
  1  5  2  0  0  0
  1 13  1  0  0  0
  2  3  2  0  0  0
  2  6  1  0  0  0
  3  4  1  0  0  0
  3  9  1  0  0  0
  4  5  1  0  0  0
  4 22  1  0  0  0
  5 10  1  0  0  0
  6  7  2  0  0  0
  6 23  1  0  0  0
  7  8  1  0  0  0
  7 24  1  0  0  0
  8  9  2  0  0  0
  8 25  1  0  0  0
  9 26  1  0  0  0
 10 11  2  0  0  0
 10 27  1  0  0  0
 11 12  1  0  0  0
 12 13  2  0  0  0
 12 14  1  0  0  0
 13 16  1  0  0  0
 14 15  2  0  0  0
 14 17  1  0  0  0
 15 16  1  0  0  0
 15 20  1  0  0  0
 16 28  1  0  0  0
 17 18  2  0  0  0
 17 29  1  0  0  0
 18 19  1  0  0  0
 18 21  1  0  0  0
 19 20  2  0  0  0
 19 30  1  0  0  0
 20 31  1  0  0  0
M  END
>  <Name>
9-6

>  <Family>
N.1

>  <IC50_uM>
0.750000

>  <set>
0

$$$$
9-9
  Cerius2 12180215293D 1   1.00000                          
 Structure written by MMmdl.
 45 50  0  0  0  0  0  0  0  0999 V2000
   -2.7469   -0.8220    3.4706 C   0  0  0  0  0  0
   -3.9294   -0.3870    4.1336 C   0  0  0  0  0  0
   -4.4920   -1.5650    4.6516 C   0  0  0  0  0  0
   -3.6713   -2.6295    4.3045 N   0  0  0  0  0  0
   -2.5950   -2.1868    3.5795 C   0  0  0  0  0  0
   -4.5991    0.8317    4.3678 C   0  0  0  0  0  0
   -5.7931    0.8349    5.1010 C   0  0  0  0  0  0
   -6.3266   -0.3495    5.6004 C   0  0  0  0  0  0
   -5.6858   -1.5715    5.3853 C   0  0  0  0  0  0
   -1.4984   -2.8184    3.0013 C   0  0  0  0  0  0
   -0.5584   -2.0982    2.3194 N   0  0  0  0  0  0
   -0.7291   -0.7503    2.2240 C   0  0  0  0  0  0
   -1.8067   -0.1128    2.7888 C   0  0  0  0  0  0
    0.0484    0.2653    1.6005 C   0  0  0  0  0  0
   -0.6131    1.4819    1.8236 C   0  0  0  0  0  0
   -1.7567    1.2091    2.5606 N   0  0  0  0  0  0
    1.2525    0.2789    0.8666 C   0  0  0  0  0  0
    1.7647    1.4900    0.3805 C   0  0  0  0  0  0
    1.0795    2.6817    0.6192 C   0  0  0  0  0  0
   -0.1206    2.6997    1.3440 C   0  0  0  0  0  0
    2.9401    1.3657   -0.3114 O   0  0  0  0  0  0
    3.5391    2.5705   -0.7964 C   0  0  0  0  0  0
    4.8360    2.2017   -1.4778 C   0  0  0  0  0  0
    5.9995    1.9917   -0.7228 C   0  0  0  0  0  0
    7.1972    1.6425   -1.3493 C   0  0  0  0  0  0
    7.2424    1.4920   -2.7340 C   0  0  0  0  0  0
    6.0900    1.6865   -3.4934 C   0  0  0  0  0  0
    4.8911    2.0365   -2.8691 C   0  0  0  0  0  0
   -3.8471   -3.5948    4.5551 H   0  0  0  0  0  0
   -4.2130    1.7750    3.9937 H   0  0  0  0  0  0
   -6.3086    1.7775    5.2813 H   0  0  0  0  0  0
   -7.2564   -0.3244    6.1677 H   0  0  0  0  0  0
   -6.1043   -2.4955    5.7776 H   0  0  0  0  0  0
   -1.3418   -3.8912    3.0642 H   0  0  0  0  0  0
   -2.4194    1.9124    2.8592 H   0  0  0  0  0  0
    1.7811   -0.6538    0.6824 H   0  0  0  0  0  0
    1.4485    3.6370    0.2525 H   0  0  0  0  0  0
   -0.6457    3.6350    1.5248 H   0  0  0  0  0  0
    3.7532    3.2594    0.0306 H   0  0  0  0  0  0
    2.8738    3.0669   -1.5138 H   0  0  0  0  0  0
    5.9774    2.1000    0.3612 H   0  0  0  0  0  0
    8.0959    1.4855   -0.7552 H   0  0  0  0  0  0
    8.1765    1.2195   -3.2220 H   0  0  0  0  0  0
    6.1241    1.5644   -4.5748 H   0  0  0  0  0  0
    3.9984    2.1805   -3.4768 H   0  0  0  0  0  0
  1  2  1  0  0  0
  1  5  2  0  0  0
  1 13  1  0  0  0
  2  3  2  0  0  0
  2  6  1  0  0  0
  3  4  1  0  0  0
  3  9  1  0  0  0
  4  5  1  0  0  0
  4 29  1  0  0  0
  5 10  1  0  0  0
  6  7  2  0  0  0
  6 30  1  0  0  0
  7  8  1  0  0  0
  7 31  1  0  0  0
  8  9  2  0  0  0
  8 32  1  0  0  0
  9 33  1  0  0  0
 10 11  2  0  0  0
 10 34  1  0  0  0
 11 12  1  0  0  0
 12 13  2  0  0  0
 12 14  1  0  0  0
 13 16  1  0  0  0
 14 15  2  0  0  0
 14 17  1  0  0  0
 15 16  1  0  0  0
 15 20  1  0  0  0
 16 35  1  0  0  0
 17 18  2  0  0  0
 17 36  1  0  0  0
 18 19  1  0  0  0
 18 21  1  0  0  0
 19 20  2  0  0  0
 19 37  1  0  0  0
 20 38  1  0  0  0
 21 22  1  0  0  0
 22 23  1  0  0  0
 22 39  1  0  0  0
 22 40  1  0  0  0
 23 24  2  0  0  0
 23 28  1  0  0  0
 24 25  1  0  0  0
 24 41  1  0  0  0
 25 26  2  0  0  0
 25 42  1  0  0  0
 26 27  1  0  0  0
 26 43  1  0  0  0
 27 28  2  0  0  0
 27 44  1  0  0  0
 28 45  1  0  0  0
M  END
>  <Name>
9-9

>  <Family>
N.1

>  <IC50_uM>
1.600000

>  <set>
1

$$$$
9-10
  Cerius2 12180215293D 1   1.00000                          
 Structure written by MMmdl.
 32 36  0  0  0  0  0  0  0  0999 V2000
   -0.7128   -0.7618    0.9612 C   0  0  0  0  0  0
   -2.0411   -0.3674    1.2895 C   0  0  0  0  0  0
   -2.6557   -1.5492    1.7347 C   0  0  0  0  0  0
   -1.7251   -2.5771    1.6666 N   0  0  0  0  0  0
   -0.5274   -2.1071    1.1931 C   0  0  0  0  0  0
   -2.8061    0.8173    1.2726 C   0  0  0  0  0  0
   -4.1418    0.7841    1.6949 C   0  0  0  0  0  0
   -4.7229   -0.4030    2.1306 C   0  0  0  0  0  0
   -3.9906   -1.5919    2.1586 C   0  0  0  0  0  0
    0.7055   -2.6990    0.9370 C   0  0  0  0  0  0
    1.7472   -1.9589    0.4535 N   0  0  0  0  0  0
    1.5412   -0.6310    0.2315 C   0  0  0  0  0  0
    0.3300   -0.0324    0.4796 C   0  0  0  0  0  0
    2.3977    0.3956   -0.2566 C   0  0  0  0  0  0
    1.6441    1.5810   -0.2775 C   0  0  0  0  0  0
    0.3711    1.2765    0.1846 N   0  0  0  0  0  0
    3.7406    0.4399   -0.6844 C   0  0  0  0  0  0
    4.2722    1.6571   -1.1125 C   0  0  0  0  0  0
    3.5109    2.8210   -1.1264 C   0  0  0  0  0  0
    2.1762    2.8034   -0.7069 C   0  0  0  0  0  0
    5.5759    1.6670   -1.5206 O   0  0  0  0  0  0
   -1.9107   -3.5371    1.9306 H   0  0  0  0  0  0
   -2.3866    1.7618    0.9392 H   0  0  0  0  0  0
   -4.7311    1.7002    1.6811 H   0  0  0  0  0  0
   -5.7632   -0.4065    2.4545 H   0  0  0  0  0  0
   -4.4471   -2.5182    2.4996 H   0  0  0  0  0  0
    0.8930   -3.7551    1.1060 H   0  0  0  0  0  0
   -0.3762    1.9525    0.2714 H   0  0  0  0  0  0
    4.3481   -0.4611   -0.6794 H   0  0  0  0  0  0
    3.9400    3.7630   -1.4632 H   0  0  0  0  0  0
    1.5775    3.7111   -0.7162 H   0  0  0  0  0  0
    5.8095    2.5813   -1.7900 H   0  0  0  0  0  0
  1  2  1  0  0  0
  1  5  2  0  0  0
  1 13  1  0  0  0
  2  3  2  0  0  0
  2  6  1  0  0  0
  3  4  1  0  0  0
  3  9  1  0  0  0
  4  5  1  0  0  0
  4 22  1  0  0  0
  5 10  1  0  0  0
  6  7  2  0  0  0
  6 23  1  0  0  0
  7  8  1  0  0  0
  7 24  1  0  0  0
  8  9  2  0  0  0
  8 25  1  0  0  0
  9 26  1  0  0  0
 10 11  2  0  0  0
 10 27  1  0  0  0
 11 12  1  0  0  0
 12 13  2  0  0  0
 12 14  1  0  0  0
 13 16  1  0  0  0
 14 15  2  0  0  0
 14 17  1  0  0  0
 15 16  1  0  0  0
 15 20  1  0  0  0
 16 28  1  0  0  0
 17 18  2  0  0  0
 17 29  1  0  0  0
 18 19  1  0  0  0
 18 21  1  0  0  0
 19 20  2  0  0  0
 19 30  1  0  0  0
 20 31  1  0  0  0
 21 32  1  0  0  0
M  END
>  <Name>
9-10

>  <Family>
N.1

>  <IC50_uM>
0.114000

>  <set>
1

$$$$
9-12
  Cerius2 12180215293D 1   1.00000                          
 Structure written by MMmdl.
 31 35  0  0  0  0  0  0  0  0999 V2000
   -0.2617   -1.0280    0.8948 C   0  0  0  0  0  0
   -1.5921   -0.6439    1.2260 C   0  0  0  0  0  0
   -2.2001   -1.8334    1.6599 C   0  0  0  0  0  0
   -1.2638   -2.8554    1.5825 N   0  0  0  0  0  0
   -0.0685   -2.3742    1.1139 C   0  0  0  0  0  0
   -2.3636    0.5366    1.2198 C   0  0  0  0  0  0
   -3.6993    0.4919    1.6412 C   0  0  0  0  0  0
   -4.2738   -0.7025    2.0656 C   0  0  0  0  0  0
   -3.5349   -1.8875    2.0830 C   0  0  0  0  0  0
    1.1680   -2.9564    0.8526 C   0  0  0  0  0  0
    2.2055   -2.2053    0.3767 N   0  0  0  0  0  0
    1.9916   -0.8767    0.1676 C   0  0  0  0  0  0
    0.7770   -0.2882    0.4208 C   0  0  0  0  0  0
    2.8419    0.1600   -0.3101 C   0  0  0  0  0  0
    2.0815    1.3423   -0.3203 C   0  0  0  0  0  0
    0.8106    1.0230    0.1387 N   0  0  0  0  0  0
    4.1855    0.2158   -0.7368 C   0  0  0  0  0  0
    4.7267    1.4365   -1.1573 C   0  0  0  0  0  0
    3.9517    2.5952   -1.1581 C   0  0  0  0  0  0
    2.6187    2.5653   -0.7400 C   0  0  0  0  0  0
    1.6751    4.0016   -0.7465 Cl  0  0  0  0  0  0
   -1.4440   -3.8188    1.8376 H   0  0  0  0  0  0
   -1.9496    1.4866    0.8955 H   0  0  0  0  0  0
   -4.2938    1.4047    1.6357 H   0  0  0  0  0  0
   -5.3141   -0.7149    2.3891 H   0  0  0  0  0  0
   -3.9863   -2.8195    2.4151 H   0  0  0  0  0  0
    1.3617   -4.0129    1.0115 H   0  0  0  0  0  0
    0.0606    1.6951    0.2311 H   0  0  0  0  0  0
    4.7976   -0.6840   -0.7393 H   0  0  0  0  0  0
    5.7640    1.4796   -1.4867 H   0  0  0  0  0  0
    4.3974    3.5313   -1.4900 H   0  0  0  0  0  0
  1  2  1  0  0  0
  1  5  2  0  0  0
  1 13  1  0  0  0
  2  3  2  0  0  0
  2  6  1  0  0  0
  3  4  1  0  0  0
  3  9  1  0  0  0
  4  5  1  0  0  0
  4 22  1  0  0  0
  5 10  1  0  0  0
  6  7  2  0  0  0
  6 23  1  0  0  0
  7  8  1  0  0  0
  7 24  1  0  0  0
  8  9  2  0  0  0
  8 25  1  0  0  0
  9 26  1  0  0  0
 10 11  2  0  0  0
 10 27  1  0  0  0
 11 12  1  0  0  0
 12 13  2  0  0  0
 12 14  1  0  0  0
 13 16  1  0  0  0
 14 15  2  0  0  0
 14 17  1  0  0  0
 15 16  1  0  0  0
 15 20  1  0  0  0
 16 28  1  0  0  0
 17 18  2  0  0  0
 17 29  1  0  0  0
 18 19  1  0  0  0
 18 30  1  0  0  0
 19 20  2  0  0  0
 19 31  1  0  0  0
 20 21  1  0  0  0
M  END
>  <Name>
9-12

>  <Family>
N.1

>  <IC50_uM>
0.080000

>  <set>
0

$$$$
9-13
  Cerius2 12180215293D 1   1.00000                          
 Structure written by MMmdl.
 31 35  0  0  0  0  0  0  0  0999 V2000
   -0.2618   -1.1009    0.8946 C   0  0  0  0  0  0
   -1.5919   -0.7165    1.2270 C   0  0  0  0  0  0
   -2.2004   -1.9063    1.6591 C   0  0  0  0  0  0
   -1.2648   -2.9288    1.5795 N   0  0  0  0  0  0
   -0.0695   -2.4476    1.1112 C   0  0  0  0  0  0
   -2.3626    0.4645    1.2231 C   0  0  0  0  0  0
   -3.6981    0.4199    1.6450 C   0  0  0  0  0  0
   -4.2732   -0.7748    2.0678 C   0  0  0  0  0  0
   -3.5350   -1.9603    2.0827 C   0  0  0  0  0  0
    1.1665   -3.0302    0.8484 C   0  0  0  0  0  0
    2.2043   -2.2790    0.3733 N   0  0  0  0  0  0
    1.9912   -0.9498    0.1667 C   0  0  0  0  0  0
    0.7773   -0.3610    0.4215 C   0  0  0  0  0  0
    2.8418    0.0875   -0.3094 C   0  0  0  0  0  0
    2.0827    1.2710   -0.3173 C   0  0  0  0  0  0
    0.8118    0.9506    0.1419 N   0  0  0  0  0  0
    4.1852    0.1418   -0.7365 C   0  0  0  0  0  0
    4.7278    1.3622   -1.1550 C   0  0  0  0  0  0
    3.9551    2.5223   -1.1539 C   0  0  0  0  0  0
    2.6215    2.4945   -0.7353 C   0  0  0  0  0  0
    1.5948    4.0797   -0.7429 Br  0  0  0  0  0  0
   -1.4457   -3.8926    1.8329 H   0  0  0  0  0  0
   -1.9483    1.4148    0.9002 H   0  0  0  0  0  0
   -4.2921    1.3331    1.6414 H   0  0  0  0  0  0
   -5.3134   -0.7871    2.3917 H   0  0  0  0  0  0
   -3.9869   -2.8926    2.4135 H   0  0  0  0  0  0
    1.3596   -4.0871    1.0052 H   0  0  0  0  0  0
    0.0617    1.6221    0.2363 H   0  0  0  0  0  0
    4.7959   -0.7588   -0.7407 H   0  0  0  0  0  0
    5.7650    1.4040   -1.4847 H   0  0  0  0  0  0
    4.4060    3.4564   -1.4852 H   0  0  0  0  0  0
  1  2  1  0  0  0
  1  5  2  0  0  0
  1 13  1  0  0  0
  2  3  2  0  0  0
  2  6  1  0  0  0
  3  4  1  0  0  0
  3  9  1  0  0  0
  4  5  1  0  0  0
  4 22  1  0  0  0
  5 10  1  0  0  0
  6  7  2  0  0  0
  6 23  1  0  0  0
  7  8  1  0  0  0
  7 24  1  0  0  0
  8  9  2  0  0  0
  8 25  1  0  0  0
  9 26  1  0  0  0
 10 11  2  0  0  0
 10 27  1  0  0  0
 11 12  1  0  0  0
 12 13  2  0  0  0
 12 14  1  0  0  0
 13 16  1  0  0  0
 14 15  2  0  0  0
 14 17  1  0  0  0
 15 16  1  0  0  0
 15 20  1  0  0  0
 16 28  1  0  0  0
 17 18  2  0  0  0
 17 29  1  0  0  0
 18 19  1  0  0  0
 18 30  1  0  0  0
 19 20  2  0  0  0
 19 31  1  0  0  0
 20 21  1  0  0  0
M  END
>  <Name>
9-13

>  <Family>
N.1

>  <IC50_uM>
0.028000

>  <set>
0

$$$$
9-16a
  Cerius2 12180215293D 1   1.00000                          
 Structure written by MMmdl.
 31 35  0  0  0  0  0  0  0  0999 V2000
   -0.2611   -0.9039    0.8950 C   0  0  0  0  0  0
   -1.5931   -0.5208    1.2215 C   0  0  0  0  0  0
   -2.1979   -1.7077    1.6666 C   0  0  0  0  0  0
   -1.2586   -2.7277    1.5996 N   0  0  0  0  0  0
   -0.0644   -2.2475    1.1273 C   0  0  0  0  0  0
   -2.3683    0.6572    1.2033 C   0  0  0  0  0  0
   -3.7040    0.6127    1.6244 C   0  0  0  0  0  0
   -4.2752   -0.5791    2.0603 C   0  0  0  0  0  0
   -3.5328   -1.7616    2.0895 C   0  0  0  0  0  0
    1.1738   -2.8290    0.8729 C   0  0  0  0  0  0
    2.2099   -2.0800    0.3908 N   0  0  0  0  0  0
    1.9927   -0.7539    0.1687 C   0  0  0  0  0  0
    0.7762   -0.1656    0.4149 C   0  0  0  0  0  0
    2.8413    0.2805   -0.3176 C   0  0  0  0  0  0
    2.0776    1.4593   -0.3393 C   0  0  0  0  0  0
    0.8065    1.1437    0.1204 N   0  0  0  0  0  0
    4.1848    0.3374   -0.7431 C   0  0  0  0  0  0
    4.7199    1.5587   -1.1734 C   0  0  0  0  0  0
    3.9355    2.7100   -1.1828 C   0  0  0  0  0  0
    2.6005    2.6875   -0.7675 C   0  0  0  0  0  0
    4.6240    4.1976   -1.7181 Cl  0  0  0  0  0  0
   -1.4362   -3.6891    1.8639 H   0  0  0  0  0  0
   -1.9568    1.6051    0.8698 H   0  0  0  0  0  0
   -4.3013    1.5237    1.6096 H   0  0  0  0  0  0
   -5.3157   -0.5915    2.3834 H   0  0  0  0  0  0
   -3.9816   -2.6917    2.4306 H   0  0  0  0  0  0
    1.3701   -3.8833    1.0423 H   0  0  0  0  0  0
    0.0529    1.8128    0.2066 H   0  0  0  0  0  0
    4.8012   -0.5590   -0.7375 H   0  0  0  0  0  0
    5.7570    1.5962   -1.5005 H   0  0  0  0  0  0
    1.9898    3.5858   -0.7752 H   0  0  0  0  0  0
  1  2  1  0  0  0
  1  5  2  0  0  0
  1 13  1  0  0  0
  2  3  2  0  0  0
  2  6  1  0  0  0
  3  4  1  0  0  0
  3  9  1  0  0  0
  4  5  1  0  0  0
  4 22  1  0  0  0
  5 10  1  0  0  0
  6  7  2  0  0  0
  6 23  1  0  0  0
  7  8  1  0  0  0
  7 24  1  0  0  0
  8  9  2  0  0  0
  8 25  1  0  0  0
  9 26  1  0  0  0
 10 11  2  0  0  0
 10 27  1  0  0  0
 11 12  1  0  0  0
 12 13  2  0  0  0
 12 14  1  0  0  0
 13 16  1  0  0  0
 14 15  2  0  0  0
 14 17  1  0  0  0
 15 16  1  0  0  0
 15 20  1  0  0  0
 16 28  1  0  0  0
 17 18  2  0  0  0
 17 29  1  0  0  0
 18 19  1  0  0  0
 18 30  1  0  0  0
 19 20  2  0  0  0
 19 21  1  0  0  0
 20 31  1  0  0  0
M  END
>  <Name>
9-16a

>  <Family>
N.1

>  <IC50_uM>
0.010000

>  <set>
0

$$$$
9-17a
  Cerius2 12180215293D 1   1.00000                          
 Structure written by MMmdl.
 31 35  0  0  0  0  0  0  0  0999 V2000
   -0.2609   -0.9702    0.8953 C   0  0  0  0  0  0
   -1.5929   -0.5869    1.2216 C   0  0  0  0  0  0
   -2.1977   -1.7735    1.6675 C   0  0  0  0  0  0
   -1.2583   -2.7935    1.6012 N   0  0  0  0  0  0
   -0.0641   -2.3136    1.1285 C   0  0  0  0  0  0
   -2.3681    0.5911    1.2027 C   0  0  0  0  0  0
   -3.7038    0.5469    1.6238 C   0  0  0  0  0  0
   -4.2750   -0.6447    2.0604 C   0  0  0  0  0  0
   -3.5325   -1.8272    2.0904 C   0  0  0  0  0  0
    1.1741   -2.8952    0.8745 C   0  0  0  0  0  0
    2.2101   -2.1465    0.3918 N   0  0  0  0  0  0
    1.9929   -0.8205    0.1688 C   0  0  0  0  0  0
    0.7763   -0.2322    0.4146 C   0  0  0  0  0  0
    2.8413    0.2136   -0.3183 C   0  0  0  0  0  0
    2.0777    1.3923   -0.3410 C   0  0  0  0  0  0
    0.8066    1.0769    0.1191 N   0  0  0  0  0  0
    4.1847    0.2703   -0.7440 C   0  0  0  0  0  0
    4.7203    1.4906   -1.1754 C   0  0  0  0  0  0
    3.9350    2.6414   -1.1853 C   0  0  0  0  0  0
    2.5997    2.6205   -0.7700 C   0  0  0  0  0  0
    4.6909    4.2752   -1.7748 Br  0  0  0  0  0  0
   -1.4358   -3.7547    1.8661 H   0  0  0  0  0  0
   -1.9565    1.5388    0.8686 H   0  0  0  0  0  0
   -4.3010    1.4578    1.6084 H   0  0  0  0  0  0
   -5.3155   -0.6568    2.3835 H   0  0  0  0  0  0
   -3.9813   -2.7571    2.4320 H   0  0  0  0  0  0
    1.3705   -3.9494    1.0447 H   0  0  0  0  0  0
    0.0531    1.7461    0.2049 H   0  0  0  0  0  0
    4.8008   -0.6263   -0.7376 H   0  0  0  0  0  0
    5.7580    1.5244   -1.5020 H   0  0  0  0  0  0
    1.9863    3.5172   -0.7773 H   0  0  0  0  0  0
  1  2  1  0  0  0
  1  5  2  0  0  0
  1 13  1  0  0  0
  2  3  2  0  0  0
  2  6  1  0  0  0
  3  4  1  0  0  0
  3  9  1  0  0  0
  4  5  1  0  0  0
  4 22  1  0  0  0
  5 10  1  0  0  0
  6  7  2  0  0  0
  6 23  1  0  0  0
  7  8  1  0  0  0
  7 24  1  0  0  0
  8  9  2  0  0  0
  8 25  1  0  0  0
  9 26  1  0  0  0
 10 11  2  0  0  0
 10 27  1  0  0  0
 11 12  1  0  0  0
 12 13  2  0  0  0
 12 14  1  0  0  0
 13 16  1  0  0  0
 14 15  2  0  0  0
 14 17  1  0  0  0
 15 16  1  0  0  0
 15 20  1  0  0  0
 16 28  1  0  0  0
 17 18  2  0  0  0
 17 29  1  0  0  0
 18 19  1  0  0  0
 18 30  1  0  0  0
 19 20  2  0  0  0
 19 21  1  0  0  0
 20 31  1  0  0  0
M  END
>  <Name>
9-17a

>  <Family>
N.1

>  <IC50_uM>
0.019000

>  <set>
0

$$$$
9-20a
  Cerius2 12180215293D 1   1.00000                          
 Structure written by MMmdl.
 45 50  0  0  0  0  0  0  0  0999 V2000
   -1.0674   -3.4529    2.4187 C   0  0  0  0  0  0
   -2.4461   -3.1506    2.6071 C   0  0  0  0  0  0
   -2.9742   -4.2991    3.2192 C   0  0  0  0  0  0
   -1.9481   -5.2209    3.3754 N   0  0  0  0  0  0
   -0.7711   -4.7131    2.8891 C   0  0  0  0  0  0
   -3.3164   -2.0717    2.3475 C   0  0  0  0  0  0
   -4.6678   -2.1726    2.7041 C   0  0  0  0  0  0
   -5.1618   -3.3243    3.3098 C   0  0  0  0  0  0
   -4.3241   -4.4095    3.5780 C   0  0  0  0  0  0
    0.5270   -5.2064    2.8024 C   0  0  0  0  0  0
    1.5247   -4.4514    2.2529 N   0  0  0  0  0  0
    1.2086   -3.2083    1.7945 C   0  0  0  0  0  0
   -0.0683   -2.7084    1.8717 C   0  0  0  0  0  0
    1.9939   -2.1918    1.1811 C   0  0  0  0  0  0
    1.1346   -1.1152    0.9130 C   0  0  0  0  0  0
   -0.1325   -1.4712    1.3557 N   0  0  0  0  0  0
    3.3505   -2.0730    0.8232 C   0  0  0  0  0  0
    3.7963   -0.8936    0.2116 C   0  0  0  0  0  0
    2.9239    0.1663   -0.0494 C   0  0  0  0  0  0
    1.5718    0.0708    0.3008 C   0  0  0  0  0  0
    3.5139    1.2473   -0.6514 O   0  0  0  0  0  0
    2.6657    2.3561   -0.9668 C   0  0  0  0  0  0
    3.4995    3.4091   -1.6597 C   0  0  0  0  0  0
    3.7402    4.6484   -1.0503 C   0  0  0  0  0  0
    4.5041    5.6202   -1.6999 C   0  0  0  0  0  0
    5.0346    5.3635   -2.9630 C   0  0  0  0  0  0
    4.8043    4.1345   -3.5780 C   0  0  0  0  0  0
    4.0406    3.1620   -2.9307 C   0  0  0  0  0  0
   -2.0586   -6.1377    3.7911 H   0  0  0  0  0  0
   -2.9675   -1.1576    1.8765 H   0  0  0  0  0  0
   -5.3388   -1.3381    2.5035 H   0  0  0  0  0  0
   -6.2161   -3.3817    3.5788 H   0  0  0  0  0  0
   -4.7134   -5.3084    4.0507 H   0  0  0  0  0  0
    0.8016   -6.1937    3.1610 H   0  0  0  0  0  0
   -0.9461   -0.8741    1.2838 H   0  0  0  0  0  0
    4.0456   -2.8871    1.0173 H   0  0  0  0  0  0
    4.8469   -0.8093   -0.0635 H   0  0  0  0  0  0
    0.8594    0.8690    0.1189 H   0  0  0  0  0  0
    2.2322    2.7685   -0.0473 H   0  0  0  0  0  0
    1.8587    2.0501   -1.6444 H   0  0  0  0  0  0
    3.3333    4.8676   -0.0638 H   0  0  0  0  0  0
    4.6847    6.5804   -1.2193 H   0  0  0  0  0  0
    5.6297    6.1226   -3.4680 H   0  0  0  0  0  0
    5.2199    3.9325   -4.5640 H   0  0  0  0  0  0
    3.8677    2.2050   -3.4222 H   0  0  0  0  0  0
  1  2  1  0  0  0
  1  5  2  0  0  0
  1 13  1  0  0  0
  2  3  2  0  0  0
  2  6  1  0  0  0
  3  4  1  0  0  0
  3  9  1  0  0  0
  4  5  1  0  0  0
  4 29  1  0  0  0
  5 10  1  0  0  0
  6  7  2  0  0  0
  6 30  1  0  0  0
  7  8  1  0  0  0
  7 31  1  0  0  0
  8  9  2  0  0  0
  8 32  1  0  0  0
  9 33  1  0  0  0
 10 11  2  0  0  0
 10 34  1  0  0  0
 11 12  1  0  0  0
 12 13  2  0  0  0
 12 14  1  0  0  0
 13 16  1  0  0  0
 14 15  2  0  0  0
 14 17  1  0  0  0
 15 16  1  0  0  0
 15 20  1  0  0  0
 16 35  1  0  0  0
 17 18  2  0  0  0
 17 36  1  0  0  0
 18 19  1  0  0  0
 18 37  1  0  0  0
 19 20  2  0  0  0
 19 21  1  0  0  0
 20 38  1  0  0  0
 21 22  1  0  0  0
 22 23  1  0  0  0
 22 39  1  0  0  0
 22 40  1  0  0  0
 23 24  2  0  0  0
 23 28  1  0  0  0
 24 25  1  0  0  0
 24 41  1  0  0  0
 25 26  2  0  0  0
 25 42  1  0  0  0
 26 27  1  0  0  0
 26 43  1  0  0  0
 27 28  2  0  0  0
 27 44  1  0  0  0
 28 45  1  0  0  0
M  END
>  <Name>
9-20a

>  <Family>
N.1

>  <IC50_uM>
>4

>  <set>
2

$$$$
9-21a
  Cerius2 12180215293D 1   1.00000                          
 Structure written by MMmdl.
 32 36  0  0  0  0  0  0  0  0999 V2000
   -0.2567   -0.9617    1.0725 C   0  0  0  0  0  0
   -1.5895   -0.5759    1.3926 C   0  0  0  0  0  0
   -2.1886   -1.7537    1.8686 C   0  0  0  0  0  0
   -1.2452   -2.7712    1.8252 N   0  0  0  0  0  0
   -0.0540   -2.2982    1.3382 C   0  0  0  0  0  0
   -2.3695    0.5983    1.3469 C   0  0  0  0  0  0
   -3.7041    0.5590    1.7719 C   0  0  0  0  0  0
   -4.2696   -0.6239    2.2386 C   0  0  0  0  0  0
   -3.5223   -1.8023    2.2957 C   0  0  0  0  0  0
    1.1859   -2.8809    1.0954 C   0  0  0  0  0  0
    2.2178   -2.1401    0.5920 N   0  0  0  0  0  0
    1.9947   -0.8209    0.3368 C   0  0  0  0  0  0
    0.7763   -0.2316    0.5712 C   0  0  0  0  0  0
    2.8377    0.2042   -0.1780 C   0  0  0  0  0  0
    2.0692    1.3794   -0.2280 C   0  0  0  0  0  0
    0.8005    1.0699    0.2433 N   0  0  0  0  0  0
    4.1800    0.2556   -0.6086 C   0  0  0  0  0  0
    4.7077    1.4671   -1.0712 C   0  0  0  0  0  0
    3.9165    2.6096   -1.1061 C   0  0  0  0  0  0
    2.5843    2.5994   -0.6888 C   0  0  0  0  0  0
    4.4906    3.7605   -1.5683 O   0  0  0  0  0  0
   -1.4183   -3.7263    2.1140 H   0  0  0  0  0  0
   -1.9624    1.5392    0.9890 H   0  0  0  0  0  0
   -4.3050    1.4670    1.7358 H   0  0  0  0  0  0
   -5.3093   -0.6323    2.5642 H   0  0  0  0  0  0
   -3.9666   -2.7254    2.6609 H   0  0  0  0  0  0
    1.3869   -3.9299    1.2908 H   0  0  0  0  0  0
    0.0444    1.7378    0.3143 H   0  0  0  0  0  0
    4.8003   -0.6376   -0.5819 H   0  0  0  0  0  0
    5.7430    1.5079   -1.4038 H   0  0  0  0  0  0
    1.9656    3.4917   -0.7159 H   0  0  0  0  0  0
    3.8195    4.4756   -1.5349 H   0  0  0  0  0  0
  1  2  1  0  0  0
  1  5  2  0  0  0
  1 13  1  0  0  0
  2  3  2  0  0  0
  2  6  1  0  0  0
  3  4  1  0  0  0
  3  9  1  0  0  0
  4  5  1  0  0  0
  4 22  1  0  0  0
  5 10  1  0  0  0
  6  7  2  0  0  0
  6 23  1  0  0  0
  7  8  1  0  0  0
  7 24  1  0  0  0
  8  9  2  0  0  0
  8 25  1  0  0  0
  9 26  1  0  0  0
 10 11  2  0  0  0
 10 27  1  0  0  0
 11 12  1  0  0  0
 12 13  2  0  0  0
 12 14  1  0  0  0
 13 16  1  0  0  0
 14 15  2  0  0  0
 14 17  1  0  0  0
 15 16  1  0  0  0
 15 20  1  0  0  0
 16 28  1  0  0  0
 17 18  2  0  0  0
 17 29  1  0  0  0
 18 19  1  0  0  0
 18 30  1  0  0  0
 19 20  2  0  0  0
 19 21  1  0  0  0
 20 31  1  0  0  0
 21 32  1  0  0  0
M  END
>  <Name>
9-21a

>  <Family>
N.1

>  <IC50_uM>
0.006000

>  <set>
1

$$$$
9-20b
  Cerius2 12180215293D 1   1.00000                          
 Structure written by MMmdl.
 45 50  0  0  0  0  0  0  0  0999 V2000
   -0.9520    0.2796    2.5081 C   0  0  0  0  0  0
   -2.1997    0.7090    3.0442 C   0  0  0  0  0  0
   -2.8264   -0.4766    3.4616 C   0  0  0  0  0  0
   -1.9797   -1.5399    3.1799 N   0  0  0  0  0  0
   -0.8252   -1.0893    2.5941 C   0  0  0  0  0  0
   -2.8839    1.9277    3.2340 C   0  0  0  0  0  0
   -4.1538    1.9232    3.8265 C   0  0  0  0  0  0
   -4.7485    0.7314    4.2299 C   0  0  0  0  0  0
   -4.0960   -0.4908    4.0545 C   0  0  0  0  0  0
    0.3240   -1.7165    2.1249 C   0  0  0  0  0  0
    1.3387   -0.9884    1.5733 N   0  0  0  0  0  0
    1.1952    0.3644    1.4973 C   0  0  0  0  0  0
    0.0654    0.9965    1.9576 C   0  0  0  0  0  0
    2.0441    1.3893    0.9862 C   0  0  0  0  0  0
    1.3693    2.6078    1.1820 C   0  0  0  0  0  0
    0.1492    2.3234    1.7781 N   0  0  0  0  0  0
    3.3183    1.4296    0.3769 C   0  0  0  0  0  0
    3.8910    2.6585    0.0284 C   0  0  0  0  0  0
    3.1929    3.8457    0.2366 C   0  0  0  0  0  0
    1.9181    3.8427    0.8113 C   0  0  0  0  0  0
    4.0745    0.2925    0.1771 O   0  0  0  0  0  0
    3.6687   -0.3505   -1.0401 C   0  0  0  0  0  0
    4.5404   -1.5675   -1.2354 C   0  0  0  0  0  0
    4.2335   -2.7697   -0.5813 C   0  0  0  0  0  0
    5.0437   -3.8939   -0.7491 C   0  0  0  0  0  0
    6.1711   -3.8257   -1.5659 C   0  0  0  0  0  0
    6.4919   -2.6329   -2.2120 C   0  0  0  0  0  0
    5.6830   -1.5071   -2.0455 C   0  0  0  0  0  0
   -2.1906   -2.5098    3.3811 H   0  0  0  0  0  0
   -2.4517    2.8770    2.9323 H   0  0  0  0  0  0
   -4.6804    2.8656    3.9725 H   0  0  0  0  0  0
   -5.7365    0.7506    4.6887 H   0  0  0  0  0  0
   -4.5631   -1.4208    4.3702 H   0  0  0  0  0  0
    0.4648   -2.7919    2.1740 H   0  0  0  0  0  0
   -0.5358    3.0246    2.0277 H   0  0  0  0  0  0
    4.8855    2.6895   -0.4128 H   0  0  0  0  0  0
    3.6479    4.7937   -0.0493 H   0  0  0  0  0  0
    1.3793    4.7736    0.9730 H   0  0  0  0  0  0
    3.7861    0.3319   -1.8924 H   0  0  0  0  0  0
    2.6171   -0.6604   -0.9953 H   0  0  0  0  0  0
    3.3587   -2.8328    0.0657 H   0  0  0  0  0  0
    4.7959   -4.8235   -0.2396 H   0  0  0  0  0  0
    6.8030   -4.7025   -1.6961 H   0  0  0  0  0  0
    7.3756   -2.5783   -2.8458 H   0  0  0  0  0  0
    5.9508   -0.5809   -2.5528 H   0  0  0  0  0  0
  1  2  1  0  0  0
  1  5  2  0  0  0
  1 13  1  0  0  0
  2  3  2  0  0  0
  2  6  1  0  0  0
  3  4  1  0  0  0
  3  9  1  0  0  0
  4  5  1  0  0  0
  4 29  1  0  0  0
  5 10  1  0  0  0
  6  7  2  0  0  0
  6 30  1  0  0  0
  7  8  1  0  0  0
  7 31  1  0  0  0
  8  9  2  0  0  0
  8 32  1  0  0  0
  9 33  1  0  0  0
 10 11  2  0  0  0
 10 34  1  0  0  0
 11 12  1  0  0  0
 12 13  2  0  0  0
 12 14  1  0  0  0
 13 16  1  0  0  0
 14 15  2  0  0  0
 14 17  1  0  0  0
 15 16  1  0  0  0
 15 20  1  0  0  0
 16 35  1  0  0  0
 17 18  2  0  0  0
 17 21  1  0  0  0
 18 19  1  0  0  0
 18 36  1  0  0  0
 19 20  2  0  0  0
 19 37  1  0  0  0
 20 38  1  0  0  0
 21 22  1  0  0  0
 22 23  1  0  0  0
 22 39  1  0  0  0
 22 40  1  0  0  0
 23 24  2  0  0  0
 23 28  1  0  0  0
 24 25  1  0  0  0
 24 41  1  0  0  0
 25 26  2  0  0  0
 25 42  1  0  0  0
 26 27  1  0  0  0
 26 43  1  0  0  0
 27 28  2  0  0  0
 27 44  1  0  0  0
 28 45  1  0  0  0
M  END
>  <Name>
9-20b

>  <Family>
N.1

>  <IC50_uM>
>4

>  <set>
0

$$$$
9-21b
  Cerius2 12180215293D 1   1.00000                          
 Structure written by MMmdl.
 32 36  0  0  0  0  0  0  0  0999 V2000
   -0.3066   -0.7689    0.9301 C   0  0  0  0  0  0
   -1.6198   -0.3659    1.3069 C   0  0  0  0  0  0
   -2.2362   -1.5500    1.7436 C   0  0  0  0  0  0
   -1.3216   -2.5873    1.6245 N   0  0  0  0  0  0
   -0.1327   -2.1210    1.1260 C   0  0  0  0  0  0
   -2.3702    0.8279    1.3399 C   0  0  0  0  0  0
   -3.6931    0.8012    1.8011 C   0  0  0  0  0  0
   -4.2761   -0.3884    2.2271 C   0  0  0  0  0  0
   -3.5584   -1.5863    2.2063 C   0  0  0  0  0  0
    1.0837   -2.7213    0.8197 C   0  0  0  0  0  0
    2.1189   -1.9829    0.3222 N   0  0  0  0  0  0
    1.9294   -0.6459    0.1344 C   0  0  0  0  0  0
    0.7315   -0.0418    0.4339 C   0  0  0  0  0  0
    2.7835    0.3868   -0.3566 C   0  0  0  0  0  0
    2.0352    1.5780   -0.3235 C   0  0  0  0  0  0
    0.7752    1.2726    0.1700 N   0  0  0  0  0  0
    4.1127    0.4522   -0.8289 C   0  0  0  0  0  0
    4.6477    1.6763   -1.2460 C   0  0  0  0  0  0
    3.8763    2.8364   -1.1989 C   0  0  0  0  0  0
    2.5572    2.8099   -0.7376 C   0  0  0  0  0  0
    4.8892   -0.6798   -0.8830 O   0  0  0  0  0  0
   -1.5115   -3.5507    1.8723 H   0  0  0  0  0  0
   -1.9494    1.7750    1.0156 H   0  0  0  0  0  0
   -4.2708    1.7244    1.8257 H   0  0  0  0  0  0
   -5.3062   -0.3869    2.5820 H   0  0  0  0  0  0
   -4.0163   -2.5147    2.5398 H   0  0  0  0  0  0
    1.2630   -3.7831    0.9589 H   0  0  0  0  0  0
    0.0373    1.9525    0.2963 H   0  0  0  0  0  0
    5.6706    1.7404   -1.6122 H   0  0  0  0  0  0
    4.3081    3.7815   -1.5275 H   0  0  0  0  0  0
    1.9611    3.7191   -0.7037 H   0  0  0  0  0  0
    5.7714   -0.4354   -1.2343 H   0  0  0  0  0  0
  1  2  1  0  0  0
  1  5  2  0  0  0
  1 13  1  0  0  0
  2  3  2  0  0  0
  2  6  1  0  0  0
  3  4  1  0  0  0
  3  9  1  0  0  0
  4  5  1  0  0  0
  4 22  1  0  0  0
  5 10  1  0  0  0
  6  7  2  0  0  0
  6 23  1  0  0  0
  7  8  1  0  0  0
  7 24  1  0  0  0
  8  9  2  0  0  0
  8 25  1  0  0  0
  9 26  1  0  0  0
 10 11  2  0  0  0
 10 27  1  0  0  0
 11 12  1  0  0  0
 12 13  2  0  0  0
 12 14  1  0  0  0
 13 16  1  0  0  0
 14 15  2  0  0  0
 14 17  1  0  0  0
 15 16  1  0  0  0
 15 20  1  0  0  0
 16 28  1  0  0  0
 17 18  2  0  0  0
 17 21  1  0  0  0
 18 19  1  0  0  0
 18 29  1  0  0  0
 19 20  2  0  0  0
 19 30  1  0  0  0
 20 31  1  0  0  0
 21 32  1  0  0  0
M  END
>  <Name>
9-21b

>  <Family>
N.1

>  <IC50_uM>
0.578000

>  <set>
0

$$$$
9-23
  Cerius2 12180215293D 1   1.00000                          
 Structure written by MMmdl.
 33 37  0  0  0  0  0  0  0  0999 V2000
   -0.2511   -0.7266    0.8896 C   0  0  0  0  0  0
   -1.5784   -0.3312    1.2250 C   0  0  0  0  0  0
   -2.1958   -1.5159    1.6588 C   0  0  0  0  0  0
   -1.2682   -2.5459    1.5777 N   0  0  0  0  0  0
   -0.0704   -2.0749    1.1068 C   0  0  0  0  0  0
   -2.3370    0.8595    1.2207 C   0  0  0  0  0  0
   -3.6776    0.8163    1.6490 C   0  0  0  0  0  0
   -4.2661   -0.3783    2.0756 C   0  0  0  0  0  0
   -3.5293   -1.5659    2.0862 C   0  0  0  0  0  0
    1.1591   -2.6698    0.8424 C   0  0  0  0  0  0
    2.2031   -1.9297    0.3650 N   0  0  0  0  0  0
    2.0029   -0.5986    0.1574 C   0  0  0  0  0  0
    0.7945    0.0033    0.4138 C   0  0  0  0  0  0
    2.8645    0.4285   -0.3210 C   0  0  0  0  0  0
    2.1176    1.6175   -0.3283 C   0  0  0  0  0  0
    0.8436    1.3151    0.1322 N   0  0  0  0  0  0
    4.2069    0.4720   -0.7505 C   0  0  0  0  0  0
    4.7554    1.6898   -1.1694 C   0  0  0  0  0  0
    3.9894    2.8539   -1.1656 C   0  0  0  0  0  0
    2.6557    2.8411   -0.7452 C   0  0  0  0  0  0
   -4.4733    2.0526    1.6469 N   0  3  0  0  0  0
   -5.6746    1.9849    1.9707 O   0  0  0  0  0  0
   -3.9129    3.1167    1.3214 O   0  5  0  0  0  0
   -1.4562   -3.5080    1.8319 H   0  0  0  0  0  0
   -1.8957    1.7936    0.8919 H   0  0  0  0  0  0
   -5.3024   -0.4091    2.4069 H   0  0  0  0  0  0
   -3.9827   -2.4975    2.4174 H   0  0  0  0  0  0
    1.3420   -3.7285    1.0001 H   0  0  0  0  0  0
    0.1019    1.9957    0.2264 H   0  0  0  0  0  0
    4.8114   -0.4325   -0.7563 H   0  0  0  0  0  0
    5.7922    1.7260   -1.5015 H   0  0  0  0  0  0
    4.4362    3.7916   -1.4957 H   0  0  0  0  0  0
    2.0627    3.7526   -0.7443 H   0  0  0  0  0  0
  1  2  1  0  0  0
  1  5  2  0  0  0
  1 13  1  0  0  0
  2  3  2  0  0  0
  2  6  1  0  0  0
  3  4  1  0  0  0
  3  9  1  0  0  0
  4  5  1  0  0  0
  4 24  1  0  0  0
  5 10  1  0  0  0
  6  7  2  0  0  0
  6 25  1  0  0  0
  7  8  1  0  0  0
  7 21  1  0  0  0
  8  9  2  0  0  0
  8 26  1  0  0  0
  9 27  1  0  0  0
 10 11  2  0  0  0
 10 28  1  0  0  0
 11 12  1  0  0  0
 12 13  2  0  0  0
 12 14  1  0  0  0
 13 16  1  0  0  0
 14 15  2  0  0  0
 14 17  1  0  0  0
 15 16  1  0  0  0
 15 20  1  0  0  0
 16 29  1  0  0  0
 17 18  2  0  0  0
 17 30  1  0  0  0
 18 19  1  0  0  0
 18 31  1  0  0  0
 19 20  2  0  0  0
 19 32  1  0  0  0
 20 33  1  0  0  0
 21 22  2  0  0  0
 21 23  1  0  0  0
M  CHG  2  21   1  23  -1
M  END
>  <Name>
9-23

>  <Family>
N.1

>  <IC50_uM>
0.004000

>  <set>
2

$$$$
9-24
  Cerius2 12180215293D 1   1.00000                          
 Structure written by MMmdl.
 33 37  0  0  0  0  0  0  0  0999 V2000
   -0.5178   -0.7274    1.0447 C   0  0  0  0  0  0
   -1.8434   -0.3305    1.3850 C   0  0  0  0  0  0
   -2.4602   -1.5146    1.8215 C   0  0  0  0  0  0
   -1.5339   -2.5454    1.7372 N   0  0  0  0  0  0
   -0.3375   -2.0758    1.2616 C   0  0  0  0  0  0
   -2.6008    0.8608    1.3830 C   0  0  0  0  0  0
   -3.9399    0.8190    1.8163 C   0  0  0  0  0  0
   -4.5278   -0.3749    2.2456 C   0  0  0  0  0  0
   -3.7922   -1.5632    2.2540 C   0  0  0  0  0  0
    0.8905   -2.6720    0.9926 C   0  0  0  0  0  0
    1.9333   -1.9329    0.5110 N   0  0  0  0  0  0
    1.7331   -0.6020    0.3040 C   0  0  0  0  0  0
    0.5266    0.0014    0.5647 C   0  0  0  0  0  0
    2.5942    0.4231   -0.1780 C   0  0  0  0  0  0
    1.8491    1.6134   -0.1831 C   0  0  0  0  0  0
    0.5763    1.3128    0.2824 N   0  0  0  0  0  0
    3.9354    0.4606   -0.6118 C   0  0  0  0  0  0
    4.4777    1.6787   -1.0316 C   0  0  0  0  0  0
    3.7185    2.8471   -1.0278 C   0  0  0  0  0  0
    2.3859    2.8366   -0.6023 C   0  0  0  0  0  0
    6.1165    1.7337   -1.5634 Cl  0  0  0  0  0  0
   -4.7343    2.0560    1.8168 N   0  3  0  0  0  0
   -5.9367    1.9881    2.1364 O   0  0  0  0  0  0
   -4.1719    3.1209    1.4973 O   0  5  0  0  0  0
   -1.7218   -3.5073    1.9925 H   0  0  0  0  0  0
   -2.1600    1.7944    1.0520 H   0  0  0  0  0  0
   -5.5630   -0.4045    2.5810 H   0  0  0  0  0  0
   -4.2452   -2.4942    2.5872 H   0  0  0  0  0  0
    1.0730   -3.7307    1.1498 H   0  0  0  0  0  0
   -0.1642    1.9946    0.3793 H   0  0  0  0  0  0
    4.5307   -0.4484   -0.6163 H   0  0  0  0  0  0
    4.1582    3.7865   -1.3584 H   0  0  0  0  0  0
    1.7939    3.7485   -0.5994 H   0  0  0  0  0  0
  1  2  1  0  0  0
  1  5  2  0  0  0
  1 13  1  0  0  0
  2  3  2  0  0  0
  2  6  1  0  0  0
  3  4  1  0  0  0
  3  9  1  0  0  0
  4  5  1  0  0  0
  4 25  1  0  0  0
  5 10  1  0  0  0
  6  7  2  0  0  0
  6 26  1  0  0  0
  7  8  1  0  0  0
  7 22  1  0  0  0
  8  9  2  0  0  0
  8 27  1  0  0  0
  9 28  1  0  0  0
 10 11  2  0  0  0
 10 29  1  0  0  0
 11 12  1  0  0  0
 12 13  2  0  0  0
 12 14  1  0  0  0
 13 16  1  0  0  0
 14 15  2  0  0  0
 14 17  1  0  0  0
 15 16  1  0  0  0
 15 20  1  0  0  0
 16 30  1  0  0  0
 17 18  2  0  0  0
 17 31  1  0  0  0
 18 19  1  0  0  0
 18 21  1  0  0  0
 19 20  2  0  0  0
 19 32  1  0  0  0
 20 33  1  0  0  0
 22 23  2  0  0  0
 22 24  1  0  0  0
M  CHG  2  22   1  24  -1
M  END
>  <Name>
9-24

>  <Family>
N.1

>  <IC50_uM>
1.190000

>  <set>
1

$$$$
9-25
  Cerius2 12180215293D 1   1.00000                          
 Structure written by MMmdl.
 33 37  0  0  0  0  0  0  0  0999 V2000
   -0.2507   -0.8808    0.8902 C   0  0  0  0  0  0
   -1.5778   -0.4850    1.2260 C   0  0  0  0  0  0
   -2.1940   -1.6688    1.6641 C   0  0  0  0  0  0
   -1.2661   -2.6985    1.5846 N   0  0  0  0  0  0
   -0.0690   -2.2284    1.1111 C   0  0  0  0  0  0
   -2.3371    0.7052    1.2190 C   0  0  0  0  0  0
   -3.6770    0.6621    1.6491 C   0  0  0  0  0  0
   -4.2644   -0.5313    2.0804 C   0  0  0  0  0  0
   -3.5269   -1.7183    2.0937 C   0  0  0  0  0  0
    1.1605   -2.8235    0.8472 C   0  0  0  0  0  0
    2.2037   -2.0842    0.3668 N   0  0  0  0  0  0
    2.0024   -0.7541    0.1559 C   0  0  0  0  0  0
    0.7942   -0.1517    0.4115 C   0  0  0  0  0  0
    2.8634    0.2720   -0.3258 C   0  0  0  0  0  0
    2.1160    1.4610   -0.3357 C   0  0  0  0  0  0
    0.8423    1.1593    0.1263 N   0  0  0  0  0  0
    4.2059    0.3137   -0.7561 C   0  0  0  0  0  0
    4.7561    1.5307   -1.1792 C   0  0  0  0  0  0
    3.9876    2.6927   -1.1768 C   0  0  0  0  0  0
    2.6540    2.6853   -0.7564 C   0  0  0  0  0  0
    4.6943    4.1748   -1.7036 Cl  0  0  0  0  0  0
   -4.4734    1.8976    1.6441 N   0  3  0  0  0  0
   -5.6897    1.8195    1.9031 O   0  0  0  0  0  0
   -3.8984    2.9711    1.3808 O   0  5  0  0  0  0
   -1.4533   -3.6600    1.8419 H   0  0  0  0  0  0
   -1.8976    1.6386    0.8858 H   0  0  0  0  0  0
   -5.2999   -0.5609    2.4146 H   0  0  0  0  0  0
   -3.9792   -2.6491    2.4287 H   0  0  0  0  0  0
    1.3441   -3.8816    1.0079 H   0  0  0  0  0  0
    0.0998    1.8394    0.2195 H   0  0  0  0  0  0
    4.8099   -0.5911   -0.7597 H   0  0  0  0  0  0
    5.7925    1.5566   -1.5100 H   0  0  0  0  0  0
    2.0556    3.5919   -0.7549 H   0  0  0  0  0  0
  1  2  1  0  0  0
  1  5  2  0  0  0
  1 13  1  0  0  0
  2  3  2  0  0  0
  2  6  1  0  0  0
  3  4  1  0  0  0
  3  9  1  0  0  0
  4  5  1  0  0  0
  4 25  1  0  0  0
  5 10  1  0  0  0
  6  7  2  0  0  0
  6 26  1  0  0  0
  7  8  1  0  0  0
  7 22  1  0  0  0
  8  9  2  0  0  0
  8 27  1  0  0  0
  9 28  1  0  0  0
 10 11  2  0  0  0
 10 29  1  0  0  0
 11 12  1  0  0  0
 12 13  2  0  0  0
 12 14  1  0  0  0
 13 16  1  0  0  0
 14 15  2  0  0  0
 14 17  1  0  0  0
 15 16  1  0  0  0
 15 20  1  0  0  0
 16 30  1  0  0  0
 17 18  2  0  0  0
 17 31  1  0  0  0
 18 19  1  0  0  0
 18 32  1  0  0  0
 19 20  2  0  0  0
 19 21  1  0  0  0
 20 33  1  0  0  0
 22 23  2  0  0  0
 22 24  1  0  0  0
M  CHG  2  22   1  24  -1
M  END
>  <Name>
9-25

>  <Family>
N.1

>  <IC50_uM>
0.126000

>  <set>
1

$$$$
9-26
  Cerius2 12180215293D 1   1.00000                          
 Structure written by MMmdl.
 33 37  0  0  0  0  0  0  0  0999 V2000
   -0.2555   -0.7352    0.7831 C   0  0  0  0  0  0
   -1.5833   -0.3435    1.1176 C   0  0  0  0  0  0
   -2.1982   -1.5291    1.5476 C   0  0  0  0  0  0
   -1.2716   -2.5587    1.4623 N   0  0  0  0  0  0
   -0.0732   -2.0845    0.9945 C   0  0  0  0  0  0
   -2.3478    0.8446    1.1227 C   0  0  0  0  0  0
   -3.6920    0.8235    1.5238 C   0  0  0  0  0  0
   -4.2537   -0.3723    1.9701 C   0  0  0  0  0  0
   -3.5278   -1.5691    1.9811 C   0  0  0  0  0  0
    1.1580   -2.6758    0.7292 C   0  0  0  0  0  0
    2.2015   -1.9313    0.2565 N   0  0  0  0  0  0
    1.9990   -0.5995    0.0545 C   0  0  0  0  0  0
    0.7893   -0.0015    0.3119 C   0  0  0  0  0  0
    2.8584    0.4321   -0.4184 C   0  0  0  0  0  0
    2.1082    1.6193   -0.4218 C   0  0  0  0  0  0
    0.8344    1.3115    0.0357 N   0  0  0  0  0  0
    4.2013    0.4812   -0.8461 C   0  0  0  0  0  0
    4.7469    1.7022   -1.2593 C   0  0  0  0  0  0
    3.9777    2.8642   -1.2517 C   0  0  0  0  0  0
    2.6435    2.8461   -0.8330 C   0  0  0  0  0  0
   -4.4185    2.0010    1.5850 N   0  0  0  0  0  0
   -1.4586   -3.5216    1.7144 H   0  0  0  0  0  0
   -1.9053    1.7856    0.8116 H   0  0  0  0  0  0
   -5.2862   -0.3899    2.3182 H   0  0  0  0  0  0
   -3.9866   -2.4938    2.3226 H   0  0  0  0  0  0
    1.3428   -3.7347    0.8825 H   0  0  0  0  0  0
    0.0895    1.9886    0.1318 H   0  0  0  0  0  0
    4.8082   -0.4217   -0.8549 H   0  0  0  0  0  0
    5.7840    1.7427   -1.5900 H   0  0  0  0  0  0
    4.4223    3.8044   -1.5775 H   0  0  0  0  0  0
    2.0479    3.7558   -0.8292 H   0  0  0  0  0  0
   -5.4228    1.9766    1.7463 H   0  0  0  0  0  0
   -4.0677    2.8463    1.1407 H   0  0  0  0  0  0
  1  2  1  0  0  0
  1  5  2  0  0  0
  1 13  1  0  0  0
  2  3  2  0  0  0
  2  6  1  0  0  0
  3  4  1  0  0  0
  3  9  1  0  0  0
  4  5  1  0  0  0
  4 22  1  0  0  0
  5 10  1  0  0  0
  6  7  2  0  0  0
  6 23  1  0  0  0
  7  8  1  0  0  0
  7 21  1  0  0  0
  8  9  2  0  0  0
  8 24  1  0  0  0
  9 25  1  0  0  0
 10 11  2  0  0  0
 10 26  1  0  0  0
 11 12  1  0  0  0
 12 13  2  0  0  0
 12 14  1  0  0  0
 13 16  1  0  0  0
 14 15  2  0  0  0
 14 17  1  0  0  0
 15 16  1  0  0  0
 15 20  1  0  0  0
 16 27  1  0  0  0
 17 18  2  0  0  0
 17 28  1  0  0  0
 18 19  1  0  0  0
 18 29  1  0  0  0
 19 20  2  0  0  0
 19 30  1  0  0  0
 20 31  1  0  0  0
 21 32  1  0  0  0
 21 33  1  0  0  0
M  END
>  <Name>
9-26

>  <Family>
N.1

>  <IC50_uM>
0.044000

>  <set>
1

$$$$
9-27
  Cerius2 12180215293D 1   1.00000                          
 Structure written by MMmdl.
 33 37  0  0  0  0  0  0  0  0999 V2000
   -0.5222   -0.7360    0.9382 C   0  0  0  0  0  0
   -1.8483   -0.3428    1.2775 C   0  0  0  0  0  0
   -2.4628   -1.5278    1.7101 C   0  0  0  0  0  0
   -1.5375   -2.5583    1.6216 N   0  0  0  0  0  0
   -0.3404   -2.0854    1.1493 C   0  0  0  0  0  0
   -2.6115    0.8460    1.2852 C   0  0  0  0  0  0
   -3.9542    0.8263    1.6914 C   0  0  0  0  0  0
   -4.5155   -0.3688    2.1400 C   0  0  0  0  0  0
   -3.7908   -1.5663    2.1485 C   0  0  0  0  0  0
    0.8893   -2.6780    0.8796 C   0  0  0  0  0  0
    1.9317   -1.9346    0.4028 N   0  0  0  0  0  0
    1.7293   -0.6031    0.2012 C   0  0  0  0  0  0
    0.5215   -0.0035    0.4628 C   0  0  0  0  0  0
    2.5882    0.4265   -0.2754 C   0  0  0  0  0  0
    1.8398    1.6150   -0.2767 C   0  0  0  0  0  0
    0.5671    1.3092    0.1859 N   0  0  0  0  0  0
    3.9298    0.4694   -0.7074 C   0  0  0  0  0  0
    4.4693    1.6907   -1.1217 C   0  0  0  0  0  0
    3.7070    2.8570   -1.1141 C   0  0  0  0  0  0
    2.3738    2.8412   -0.6903 C   0  0  0  0  0  0
   -4.6793    2.0046    1.7551 N   0  0  0  0  0  0
    6.1086    1.7523   -1.6513 Cl  0  0  0  0  0  0
   -1.7245   -3.5210    1.8746 H   0  0  0  0  0  0
   -2.1692    1.7865    0.9725 H   0  0  0  0  0  0
   -5.5467   -0.3852    2.4920 H   0  0  0  0  0  0
   -4.2492   -2.4905    2.4919 H   0  0  0  0  0  0
    1.0737   -3.7370    1.0325 H   0  0  0  0  0  0
   -0.1767    1.9873    0.2845 H   0  0  0  0  0  0
    4.5276   -0.4379   -0.7149 H   0  0  0  0  0  0
    4.1445    3.7990   -1.4404 H   0  0  0  0  0  0
    1.7794    3.7516   -0.6847 H   0  0  0  0  0  0
   -5.6830    1.9813    1.9204 H   0  0  0  0  0  0
   -4.3293    2.8495    1.3095 H   0  0  0  0  0  0
  1  2  1  0  0  0
  1  5  2  0  0  0
  1 13  1  0  0  0
  2  3  2  0  0  0
  2  6  1  0  0  0
  3  4  1  0  0  0
  3  9  1  0  0  0
  4  5  1  0  0  0
  4 23  1  0  0  0
  5 10  1  0  0  0
  6  7  2  0  0  0
  6 24  1  0  0  0
  7  8  1  0  0  0
  7 21  1  0  0  0
  8  9  2  0  0  0
  8 25  1  0  0  0
  9 26  1  0  0  0
 10 11  2  0  0  0
 10 27  1  0  0  0
 11 12  1  0  0  0
 12 13  2  0  0  0
 12 14  1  0  0  0
 13 16  1  0  0  0
 14 15  2  0  0  0
 14 17  1  0  0  0
 15 16  1  0  0  0
 15 20  1  0  0  0
 16 28  1  0  0  0
 17 18  2  0  0  0
 17 29  1  0  0  0
 18 19  1  0  0  0
 18 22  1  0  0  0
 19 20  2  0  0  0
 19 30  1  0  0  0
 20 31  1  0  0  0
 21 32  1  0  0  0
 21 33  1  0  0  0
M  END
>  <Name>
9-27

>  <Family>
N.1

>  <IC50_uM>
>0.35

>  <set>
1

$$$$
9-28
  Cerius2 12180215293D 1   1.00000                          
 Structure written by MMmdl.
 33 37  0  0  0  0  0  0  0  0999 V2000
   -0.2549   -0.8895    0.7841 C   0  0  0  0  0  0
   -1.5827   -0.4975    1.1184 C   0  0  0  0  0  0
   -2.1968   -1.6823    1.5518 C   0  0  0  0  0  0
   -1.2698   -2.7116    1.4686 N   0  0  0  0  0  0
   -0.0719   -2.2381    0.9988 C   0  0  0  0  0  0
   -2.3477    0.6902    1.1210 C   0  0  0  0  0  0
   -3.6917    0.6695    1.5230 C   0  0  0  0  0  0
   -4.2525   -0.5254    1.9727 C   0  0  0  0  0  0
   -3.5260   -1.7218    1.9863 C   0  0  0  0  0  0
    1.1594   -2.8296    0.7342 C   0  0  0  0  0  0
    2.2022   -2.0859    0.2591 N   0  0  0  0  0  0
    1.9988   -0.7550    0.0538 C   0  0  0  0  0  0
    0.7892   -0.1565    0.3103 C   0  0  0  0  0  0
    2.8576    0.2756   -0.4223 C   0  0  0  0  0  0
    2.1069    1.4628   -0.4284 C   0  0  0  0  0  0
    0.8335    1.1557    0.0307 N   0  0  0  0  0  0
    4.2006    0.3228   -0.8507 C   0  0  0  0  0  0
    4.7480    1.5431   -1.2682 C   0  0  0  0  0  0
    3.9762    2.7029   -1.2623 C   0  0  0  0  0  0
    2.6421    2.6901   -0.8438 C   0  0  0  0  0  0
   -4.4187    1.8469    1.5816 N   0  0  0  0  0  0
    4.6795    4.1889   -1.7825 Cl  0  0  0  0  0  0
   -1.4562   -3.6740    1.7232 H   0  0  0  0  0  0
   -1.9059    1.6307    0.8073 H   0  0  0  0  0  0
   -5.2848   -0.5425    2.3215 H   0  0  0  0  0  0
   -3.9842   -2.6459    2.3304 H   0  0  0  0  0  0
    1.3447   -3.8881    0.8901 H   0  0  0  0  0  0
    0.0878    1.8323    0.1258 H   0  0  0  0  0  0
    4.8072   -0.5802   -0.8571 H   0  0  0  0  0  0
    5.7846    1.5730   -1.5976 H   0  0  0  0  0  0
    2.0412    3.5950   -0.8396 H   0  0  0  0  0  0
   -5.4229    1.8224    1.7436 H   0  0  0  0  0  0
   -4.0685    2.6912    1.1350 H   0  0  0  0  0  0
  1  2  1  0  0  0
  1  5  2  0  0  0
  1 13  1  0  0  0
  2  3  2  0  0  0
  2  6  1  0  0  0
  3  4  1  0  0  0
  3  9  1  0  0  0
  4  5  1  0  0  0
  4 23  1  0  0  0
  5 10  1  0  0  0
  6  7  2  0  0  0
  6 24  1  0  0  0
  7  8  1  0  0  0
  7 21  1  0  0  0
  8  9  2  0  0  0
  8 25  1  0  0  0
  9 26  1  0  0  0
 10 11  2  0  0  0
 10 27  1  0  0  0
 11 12  1  0  0  0
 12 13  2  0  0  0
 12 14  1  0  0  0
 13 16  1  0  0  0
 14 15  2  0  0  0
 14 17  1  0  0  0
 15 16  1  0  0  0
 15 20  1  0  0  0
 16 28  1  0  0  0
 17 18  2  0  0  0
 17 29  1  0  0  0
 18 19  1  0  0  0
 18 30  1  0  0  0
 19 20  2  0  0  0
 19 22  1  0  0  0
 20 31  1  0  0  0
 21 32  1  0  0  0
 21 33  1  0  0  0
M  END
>  <Name>
9-28

>  <Family>
N.1

>  <IC50_uM>
0.098000

>  <set>
2

$$$$
9-29
  Cerius2 12180215293D 1   1.00000                          
 Structure written by MMmdl.
 31 35  0  0  0  0  0  0  0  0999 V2000
   -0.2614   -0.7460    0.8946 C   0  0  0  0  0  0
   -1.5925   -0.3615    1.2248 C   0  0  0  0  0  0
   -2.1992   -1.5496    1.6646 C   0  0  0  0  0  0
   -1.2621   -2.5711    1.5913 N   0  0  0  0  0  0
   -0.0677   -2.0911    1.1201 C   0  0  0  0  0  0
   -2.3636    0.8199    1.2128 C   0  0  0  0  0  0
   -3.6974    0.7682    1.6364 C   0  0  0  0  0  0
   -4.2754   -0.4218    2.0678 C   0  0  0  0  0  0
   -3.5333   -1.6052    2.0892 C   0  0  0  0  0  0
    1.1686   -2.6746    0.8616 C   0  0  0  0  0  0
    2.2061   -1.9262    0.3822 N   0  0  0  0  0  0
    1.9925   -0.5984    0.1665 C   0  0  0  0  0  0
    0.7774   -0.0080    0.4168 C   0  0  0  0  0  0
    2.8437    0.4355   -0.3160 C   0  0  0  0  0  0
    2.0838    1.6163   -0.3319 C   0  0  0  0  0  0
    0.8122    1.3025    0.1277 N   0  0  0  0  0  0
    4.1866    0.4914   -0.7427 C   0  0  0  0  0  0
    4.7226    1.7128   -1.1675 C   0  0  0  0  0  0
    3.9437    2.8684   -1.1723 C   0  0  0  0  0  0
    2.6092    2.8433   -0.7548 C   0  0  0  0  0  0
   -4.7354    2.3527    1.6214 Br  0  0  0  0  0  0
   -1.4413   -3.5335    1.8509 H   0  0  0  0  0  0
   -1.9401    1.7620    0.8819 H   0  0  0  0  0  0
   -5.3136   -0.4462    2.3942 H   0  0  0  0  0  0
   -3.9822   -2.5368    2.4257 H   0  0  0  0  0  0
    1.3622   -3.7304    1.0257 H   0  0  0  0  0  0
    0.0621    1.9748    0.2166 H   0  0  0  0  0  0
    4.8011   -0.4063   -0.7418 H   0  0  0  0  0  0
    5.7596    1.7586   -1.4974 H   0  0  0  0  0  0
    4.3808    3.8089   -1.5070 H   0  0  0  0  0  0
    2.0061    3.7481   -0.7606 H   0  0  0  0  0  0
  1  2  1  0  0  0
  1  5  2  0  0  0
  1 13  1  0  0  0
  2  3  2  0  0  0
  2  6  1  0  0  0
  3  4  1  0  0  0
  3  9  1  0  0  0
  4  5  1  0  0  0
  4 22  1  0  0  0
  5 10  1  0  0  0
  6  7  2  0  0  0
  6 23  1  0  0  0
  7  8  1  0  0  0
  7 21  1  0  0  0
  8  9  2  0  0  0
  8 24  1  0  0  0
  9 25  1  0  0  0
 10 11  2  0  0  0
 10 26  1  0  0  0
 11 12  1  0  0  0
 12 13  2  0  0  0
 12 14  1  0  0  0
 13 16  1  0  0  0
 14 15  2  0  0  0
 14 17  1  0  0  0
 15 16  1  0  0  0
 15 20  1  0  0  0
 16 27  1  0  0  0
 17 18  2  0  0  0
 17 28  1  0  0  0
 18 19  1  0  0  0
 18 29  1  0  0  0
 19 20  2  0  0  0
 19 30  1  0  0  0
 20 31  1  0  0  0
M  END
>  <Name>
9-29

>  <Family>
N.1

>  <IC50_uM>
0.006000

>  <set>
0

$$$$
9-30
  Cerius2 12180215293D 1   1.00000                          
 Structure written by MMmdl.
 31 35  0  0  0  0  0  0  0  0999 V2000
   -0.5979   -0.7471    1.0913 C   0  0  0  0  0  0
   -1.9264   -0.3603    1.4289 C   0  0  0  0  0  0
   -2.5329   -1.5473    1.8715 C   0  0  0  0  0  0
   -1.5981   -2.5706    1.7929 N   0  0  0  0  0  0
   -0.4054   -2.0927    1.3152 C   0  0  0  0  0  0
   -2.6952    0.8226    1.4213 C   0  0  0  0  0  0
   -4.0268    0.7733    1.8521 C   0  0  0  0  0  0
   -4.6047   -0.4157    2.2861 C   0  0  0  0  0  0
   -3.8648   -1.6005    2.3032 C   0  0  0  0  0  0
    0.8283   -2.6785    1.0497 C   0  0  0  0  0  0
    1.8644   -1.9318    0.5647 N   0  0  0  0  0  0
    1.6518   -0.6039    0.3508 C   0  0  0  0  0  0
    0.4396   -0.0110    0.6080 C   0  0  0  0  0  0
    2.5028    0.4277   -0.1361 C   0  0  0  0  0  0
    1.7456    1.6104   -0.1474 C   0  0  0  0  0  0
    0.4758    1.2995    0.3193 N   0  0  0  0  0  0
    3.8439    0.4765   -0.5698 C   0  0  0  0  0  0
    4.3733    1.6987   -0.9956 C   0  0  0  0  0  0
    3.6027    2.8597   -0.9981 C   0  0  0  0  0  0
    2.2703    2.8367   -0.5726 C   0  0  0  0  0  0
   -5.0617    2.3599    1.8430 Br  0  0  0  0  0  0
    6.1728    1.7741   -1.5797 Br  0  0  0  0  0  0
   -1.7778   -3.5327    2.0531 H   0  0  0  0  0  0
   -2.2717    1.7640    1.0884 H   0  0  0  0  0  0
   -5.6413   -0.4382    2.6181 H   0  0  0  0  0  0
   -4.3137   -2.5313    2.6419 H   0  0  0  0  0  0
    1.0209   -3.7347    1.2123 H   0  0  0  0  0  0
   -0.2722    1.9735    0.4129 H   0  0  0  0  0  0
    4.4457   -0.4284   -0.5682 H   0  0  0  0  0  0
    4.0296    3.8039   -1.3328 H   0  0  0  0  0  0
    1.6688    3.7425   -0.5744 H   0  0  0  0  0  0
  1  2  1  0  0  0
  1  5  2  0  0  0
  1 13  1  0  0  0
  2  3  2  0  0  0
  2  6  1  0  0  0
  3  4  1  0  0  0
  3  9  1  0  0  0
  4  5  1  0  0  0
  4 23  1  0  0  0
  5 10  1  0  0  0
  6  7  2  0  0  0
  6 24  1  0  0  0
  7  8  1  0  0  0
  7 21  1  0  0  0
  8  9  2  0  0  0
  8 25  1  0  0  0
  9 26  1  0  0  0
 10 11  2  0  0  0
 10 27  1  0  0  0
 11 12  1  0  0  0
 12 13  2  0  0  0
 12 14  1  0  0  0
 13 16  1  0  0  0
 14 15  2  0  0  0
 14 17  1  0  0  0
 15 16  1  0  0  0
 15 20  1  0  0  0
 16 28  1  0  0  0
 17 18  2  0  0  0
 17 29  1  0  0  0
 18 19  1  0  0  0
 18 22  1  0  0  0
 19 20  2  0  0  0
 19 30  1  0  0  0
 20 31  1  0  0  0
M  END
>  <Name>
9-30

>  <Family>
N.1

>  <IC50_uM>
>0.32

>  <set>
0

$$$$
9-31
  Cerius2 12180215293D 1   1.00000                          
 Structure written by MMmdl.
 31 35  0  0  0  0  0  0  0  0999 V2000
   -0.2618   -1.0252    0.8945 C   0  0  0  0  0  0
   -1.5915   -0.6399    1.2278 C   0  0  0  0  0  0
   -2.2004   -1.8293    1.6612 C   0  0  0  0  0  0
   -1.2653   -2.8523    1.5812 N   0  0  0  0  0  0
   -0.0703   -2.3719    1.1118 C   0  0  0  0  0  0
   -2.3599    0.5431    1.2231 C   0  0  0  0  0  0
   -3.6932    0.4926    1.6472 C   0  0  0  0  0  0
   -4.2729   -0.6988    2.0721 C   0  0  0  0  0  0
   -3.5342   -1.8845    2.0866 C   0  0  0  0  0  0
    1.1649   -2.9558    0.8486 C   0  0  0  0  0  0
    2.2030   -2.2059    0.3726 N   0  0  0  0  0  0
    1.9912   -0.8768    0.1654 C   0  0  0  0  0  0
    0.7776   -0.2863    0.4204 C   0  0  0  0  0  0
    2.8434    0.1587   -0.3116 C   0  0  0  0  0  0
    2.0854    1.3423   -0.3197 C   0  0  0  0  0  0
    0.8142    1.0251    0.1397 N   0  0  0  0  0  0
    4.1867    0.2124   -0.7391 C   0  0  0  0  0  0
    4.7300    1.4326   -1.1582 C   0  0  0  0  0  0
    3.9573    2.5929   -1.1570 C   0  0  0  0  0  0
    2.6245    2.5649   -0.7381 C   0  0  0  0  0  0
   -4.6346    1.9375    1.6423 Cl  0  0  0  0  0  0
    1.6832    4.0028   -0.7416 Cl  0  0  0  0  0  0
   -1.4462   -3.8159    1.8353 H   0  0  0  0  0  0
   -1.9382    1.4877    0.8979 H   0  0  0  0  0  0
   -5.3110   -0.7189    2.3985 H   0  0  0  0  0  0
   -3.9853   -2.8168    2.4182 H   0  0  0  0  0  0
    1.3570   -4.0128    1.0060 H   0  0  0  0  0  0
    0.0667    1.6995    0.2330 H   0  0  0  0  0  0
    4.7971   -0.6886   -0.7433 H   0  0  0  0  0  0
    5.7671    1.4742   -1.4883 H   0  0  0  0  0  0
    4.4045    3.5286   -1.4879 H   0  0  0  0  0  0
  1  2  1  0  0  0
  1  5  2  0  0  0
  1 13  1  0  0  0
  2  3  2  0  0  0
  2  6  1  0  0  0
  3  4  1  0  0  0
  3  9  1  0  0  0
  4  5  1  0  0  0
  4 23  1  0  0  0
  5 10  1  0  0  0
  6  7  2  0  0  0
  6 24  1  0  0  0
  7  8  1  0  0  0
  7 21  1  0  0  0
  8  9  2  0  0  0
  8 25  1  0  0  0
  9 26  1  0  0  0
 10 11  2  0  0  0
 10 27  1  0  0  0
 11 12  1  0  0  0
 12 13  2  0  0  0
 12 14  1  0  0  0
 13 16  1  0  0  0
 14 15  2  0  0  0
 14 17  1  0  0  0
 15 16  1  0  0  0
 15 20  1  0  0  0
 16 28  1  0  0  0
 17 18  2  0  0  0
 17 29  1  0  0  0
 18 19  1  0  0  0
 18 30  1  0  0  0
 19 20  2  0  0  0
 19 31  1  0  0  0
 20 22  1  0  0  0
M  END
>  <Name>
9-31

>  <Family>
N.1

>  <IC50_uM>
0.310000

>  <set>
0

$$$$
9-32
  Cerius2 12180215293D 1   1.00000                          
 Structure written by MMmdl.
 37 41  0  0  0  0  0  0  0  0999 V2000
   -0.8972   -0.7435    1.1517 C   0  0  0  0  0  0
   -2.2060   -0.3289    1.5325 C   0  0  0  0  0  0
   -2.8213   -1.5028    1.9990 C   0  0  0  0  0  0
   -1.9090   -2.5442    1.8939 N   0  0  0  0  0  0
   -0.7237   -2.0917    1.3753 C   0  0  0  0  0  0
   -2.9499    0.8695    1.5457 C   0  0  0  0  0  0
   -4.2703    0.8461    2.0282 C   0  0  0  0  0  0
   -4.8604   -0.3368    2.4790 C   0  0  0  0  0  0
   -4.1401   -1.5330    2.4738 C   0  0  0  0  0  0
    0.4888   -2.7031    1.0718 C   0  0  0  0  0  0
    1.5227   -1.9793    0.5489 N   0  0  0  0  0  0
    1.3289   -0.6484    0.3354 C   0  0  0  0  0  0
    0.1379   -0.0304    0.6300 C   0  0  0  0  0  0
    2.1833    0.3638   -0.1858 C   0  0  0  0  0  0
    1.4496    1.5616   -0.1785 C   0  0  0  0  0  0
    0.1901    1.2775    0.3325 N   0  0  0  0  0  0
    3.5086    0.3837   -0.6642 C   0  0  0  0  0  0
    4.0473    1.5996   -1.1179 C   0  0  0  0  0  0
    3.2979    2.7790   -1.0996 C   0  0  0  0  0  0
    1.9809    2.7777   -0.6277 C   0  0  0  0  0  0
   -5.2433    2.3685    2.0242 S   0  0  0  0  0  0
   -4.6573    3.1905    0.9681 O   0  0  0  0  0  0
   -5.0555    2.9002    3.3715 O   0  0  0  0  0  0
   -6.6089    1.9388    1.7313 O   0  5  0  0  0  0
    5.7482    1.6045   -1.7226 S   0  0  0  0  0  0
    6.0509    3.0005   -2.0290 O   0  0  0  0  0  0
    5.7040    0.7395   -2.8991 O   0  0  0  0  0  0
    6.5233    1.0690   -0.6059 O   0  5  0  0  0  0
   -2.0988   -3.5018    2.1635 H   0  0  0  0  0  0
   -2.5224    1.8035    1.1972 H   0  0  0  0  0  0
   -5.8866   -0.3347    2.8426 H   0  0  0  0  0  0
   -4.5932   -2.4565    2.8271 H   0  0  0  0  0  0
    0.6657   -3.7621    1.2330 H   0  0  0  0  0  0
   -0.5413    1.9664    0.4463 H   0  0  0  0  0  0
    4.1020   -0.5272   -0.6820 H   0  0  0  0  0  0
    3.7291    3.7136   -1.4534 H   0  0  0  0  0  0
    1.3940    3.6932   -0.6125 H   0  0  0  0  0  0
  1  2  1  0  0  0
  1  5  2  0  0  0
  1 13  1  0  0  0
  2  3  2  0  0  0
  2  6  1  0  0  0
  3  4  1  0  0  0
  3  9  1  0  0  0
  4  5  1  0  0  0
  4 29  1  0  0  0
  5 10  1  0  0  0
  6  7  2  0  0  0
  6 30  1  0  0  0
  7  8  1  0  0  0
  7 21  1  0  0  0
  8  9  2  0  0  0
  8 31  1  0  0  0
  9 32  1  0  0  0
 10 11  2  0  0  0
 10 33  1  0  0  0
 11 12  1  0  0  0
 12 13  2  0  0  0
 12 14  1  0  0  0
 13 16  1  0  0  0
 14 15  2  0  0  0
 14 17  1  0  0  0
 15 16  1  0  0  0
 15 20  1  0  0  0
 16 34  1  0  0  0
 17 18  2  0  0  0
 17 35  1  0  0  0
 18 19  1  0  0  0
 18 25  1  0  0  0
 19 20  2  0  0  0
 19 36  1  0  0  0
 20 37  1  0  0  0
 21 22  2  0  0  0
 21 23  2  0  0  0
 21 24  1  0  0  0
 25 26  2  0  0  0
 25 27  2  0  0  0
 25 28  1  0  0  0
M  CHG  2  24  -1  28  -1
M  END
>  <Name>
9-32

>  <Family>
N.1

>  <IC50_uM>
5.000000

>  <set>
2

$$$$
11-11a
  Cerius2 12180215293D 1   1.00000                          
 Structure written by MMmdl.
 37 42  0  0  0  0  0  0  0  0999 V2000
   -3.4871   -3.0491   -0.7667 C   0  0  0  0  0  0
   -3.4729   -4.4204   -0.5301 C   0  0  0  0  0  0
   -2.3138   -5.0593   -0.0846 C   0  0  0  0  0  0
   -1.1694   -4.2757    0.1154 C   0  0  0  0  0  0
   -1.1521   -2.8902   -0.1146 C   0  0  0  0  0  0
   -2.3380   -2.2732   -0.5641 C   0  0  0  0  0  0
    0.0919   -4.6619    0.5480 N   0  0  0  0  0  0
    0.9294   -3.5781    0.6077 C   0  0  0  0  0  0
    0.1782   -2.4957    0.2052 C   0  0  0  0  0  0
    2.2630   -3.4104    0.9673 C   0  0  0  0  0  0
    2.8458   -2.1752    0.9268 N   0  0  0  0  0  0
    2.0836   -1.1200    0.5256 C   0  0  0  0  0  0
    0.7674   -1.2698    0.1682 C   0  0  0  0  0  0
    2.3786    0.2646    0.3759 C   0  0  0  0  0  0
    1.2038    0.8944   -0.0732 C   0  0  0  0  0  0
    0.2306   -0.0931   -0.1882 N   0  0  0  0  0  0
    3.5335    1.0460    0.5790 C   0  0  0  0  0  0
    3.4938    2.4246    0.3327 C   0  0  0  0  0  0
    2.3238    3.0506   -0.1144 C   0  0  0  0  0  0
    1.1477    2.2898   -0.3272 C   0  0  0  0  0  0
    2.2831    4.4314   -0.3613 C   0  0  0  0  0  0
    1.1089    5.0451   -0.8075 C   0  0  0  0  0  0
   -0.0441    4.2898   -1.0145 C   0  0  0  0  0  0
   -0.0324    2.9151   -0.7771 C   0  0  0  0  0  0
   -4.4023   -2.5708   -1.1139 H   0  0  0  0  0  0
   -4.3777   -5.0049   -0.6942 H   0  0  0  0  0  0
   -2.3054   -6.1311    0.0996 H   0  0  0  0  0  0
   -2.3870   -1.2062   -0.7592 H   0  0  0  0  0  0
    0.3509   -5.6120    0.7847 H   0  0  0  0  0  0
    2.8896   -4.2364    1.2900 H   0  0  0  0  0  0
   -0.7175    0.0786   -0.4932 H   0  0  0  0  0  0
    4.4542    0.5812    0.9260 H   0  0  0  0  0  0
    4.4005    3.0070    0.4975 H   0  0  0  0  0  0
    3.1698    5.0460   -0.2079 H   0  0  0  0  0  0
    1.0958    6.1179   -0.9938 H   0  0  0  0  0  0
   -0.9556    4.7734   -1.3621 H   0  0  0  0  0  0
   -0.9450    2.3479   -0.9462 H   0  0  0  0  0  0
  1  2  2  0  0  0
  1  6  1  0  0  0
  1 25  1  0  0  0
  2  3  1  0  0  0
  2 26  1  0  0  0
  3  4  2  0  0  0
  3 27  1  0  0  0
  4  5  1  0  0  0
  4  7  1  0  0  0
  5  6  2  0  0  0
  5  9  1  0  0  0
  6 28  1  0  0  0
  7  8  1  0  0  0
  7 29  1  0  0  0
  8  9  2  0  0  0
  8 10  1  0  0  0
  9 13  1  0  0  0
 10 11  2  0  0  0
 10 30  1  0  0  0
 11 12  1  0  0  0
 12 13  2  0  0  0
 12 14  1  0  0  0
 13 16  1  0  0  0
 14 15  2  0  0  0
 14 17  1  0  0  0
 15 16  1  0  0  0
 15 20  1  0  0  0
 16 31  1  0  0  0
 17 18  2  0  0  0
 17 32  1  0  0  0
 18 19  1  0  0  0
 18 33  1  0  0  0
 19 20  2  0  0  0
 19 21  1  0  0  0
 20 24  1  0  0  0
 21 22  2  0  0  0
 21 34  1  0  0  0
 22 23  1  0  0  0
 22 35  1  0  0  0
 23 24  2  0  0  0
 23 36  1  0  0  0
 24 37  1  0  0  0
M  END
>  <Name>
11-11a

>  <Family>
N.1

>  <IC50_uM>
>0.125

>  <set>
0

$$$$
11-11b
  Cerius2 12180215293D 1   1.00000                          
 Structure written by MMmdl.
 37 42  0  0  0  0  0  0  0  0999 V2000
   -4.0967   -3.0746   -0.8135 C   0  0  0  0  0  0
   -4.0848   -4.4476   -0.5865 C   0  0  0  0  0  0
   -2.9276   -5.0912   -0.1426 C   0  0  0  0  0  0
   -1.7828   -4.3105    0.0658 C   0  0  0  0  0  0
   -1.7631   -2.9235   -0.1542 C   0  0  0  0  0  0
   -2.9470   -2.3018   -0.6024 C   0  0  0  0  0  0
   -0.5230   -4.7014    0.4988 N   0  0  0  0  0  0
    0.3156   -3.6190    0.5687 C   0  0  0  0  0  0
   -0.4333   -2.5328    0.1721 C   0  0  0  0  0  0
    1.6484   -3.4558    0.9334 C   0  0  0  0  0  0
    2.2332   -2.2212    0.9043 N   0  0  0  0  0  0
    1.4738   -1.1619    0.5089 C   0  0  0  0  0  0
    0.1571   -1.3073    0.1459 C   0  0  0  0  0  0
    1.7712    0.2232    0.3714 C   0  0  0  0  0  0
    0.6001    0.8506   -0.0749 C   0  0  0  0  0  0
   -0.3774   -0.1265   -0.2033 N   0  0  0  0  0  0
    2.9209    1.0122    0.5814 C   0  0  0  0  0  0
    2.8807    2.3989    0.3446 C   0  0  0  0  0  0
    1.6847    3.0046   -0.1059 C   0  0  0  0  0  0
    0.5316    2.2285   -0.3191 C   0  0  0  0  0  0
    4.0183    3.1960    0.5504 C   0  0  0  0  0  0
    3.9809    4.5713    0.3162 C   0  0  0  0  0  0
    2.8053    5.1677   -0.1270 C   0  0  0  0  0  0
    1.6654    4.3894   -0.3364 C   0  0  0  0  0  0
   -5.0103   -2.5926   -1.1596 H   0  0  0  0  0  0
   -4.9900   -5.0297   -0.7570 H   0  0  0  0  0  0
   -2.9211   -6.1643    0.0340 H   0  0  0  0  0  0
   -2.9936   -1.2333   -0.7899 H   0  0  0  0  0  0
   -0.2657   -5.6534    0.7293 H   0  0  0  0  0  0
    2.2729   -4.2851    1.2517 H   0  0  0  0  0  0
   -1.3235    0.0558   -0.5109 H   0  0  0  0  0  0
    3.8349    0.5334    0.9281 H   0  0  0  0  0  0
   -0.3956    2.6809   -0.6653 H   0  0  0  0  0  0
    4.9497    2.7491    0.8974 H   0  0  0  0  0  0
    4.8713    5.1757    0.4806 H   0  0  0  0  0  0
    2.7728    6.2402   -0.3107 H   0  0  0  0  0  0
    0.7552    4.8780   -0.6839 H   0  0  0  0  0  0
  1  2  2  0  0  0
  1  6  1  0  0  0
  1 25  1  0  0  0
  2  3  1  0  0  0
  2 26  1  0  0  0
  3  4  2  0  0  0
  3 27  1  0  0  0
  4  5  1  0  0  0
  4  7  1  0  0  0
  5  6  2  0  0  0
  5  9  1  0  0  0
  6 28  1  0  0  0
  7  8  1  0  0  0
  7 29  1  0  0  0
  8  9  2  0  0  0
  8 10  1  0  0  0
  9 13  1  0  0  0
 10 11  2  0  0  0
 10 30  1  0  0  0
 11 12  1  0  0  0
 12 13  2  0  0  0
 12 14  1  0  0  0
 13 16  1  0  0  0
 14 15  2  0  0  0
 14 17  1  0  0  0
 15 16  1  0  0  0
 15 20  1  0  0  0
 16 31  1  0  0  0
 17 18  2  0  0  0
 17 32  1  0  0  0
 18 19  1  0  0  0
 18 21  1  0  0  0
 19 20  2  0  0  0
 19 24  1  0  0  0
 20 33  1  0  0  0
 21 22  2  0  0  0
 21 34  1  0  0  0
 22 23  1  0  0  0
 22 35  1  0  0  0
 23 24  2  0  0  0
 23 36  1  0  0  0
 24 37  1  0  0  0
M  END
>  <Name>
11-11b

>  <Family>
N.1

>  <IC50_uM>
>0.125

>  <set>
0

$$$$
5-34
  Cerius2 12180215293D 1   1.00000                          
 Structure written by MMmdl.
 35 39  0  0  0  0  0  0  0  0999 V2000
   -3.6524   -2.0279   -0.8040 C   0  0  0  0  0  0
   -3.6262   -3.3999   -0.5763 C   0  0  0  0  0  0
   -2.4499   -4.0362   -0.1758 C   0  0  0  0  0  0
   -1.3020   -3.2496   -0.0119 C   0  0  0  0  0  0
   -1.2942   -1.8631   -0.2331 C   0  0  0  0  0  0
   -2.4988   -1.2496   -0.6371 C   0  0  0  0  0  0
   -0.0271   -3.6356    0.3730 N   0  0  0  0  0  0
    0.8111   -2.5504    0.4102 C   0  0  0  0  0  0
    0.0487   -1.4662    0.0430 C   0  0  0  0  0  0
    2.1539   -2.3995    0.7254 C   0  0  0  0  0  0
    2.7094   -1.1653    0.6673 N   0  3  0  0  0  0
    1.9576   -0.0383    0.2962 C   0  0  0  0  0  0
    0.6292   -0.2350   -0.0080 C   0  0  0  0  0  0
    2.1937    1.3644    0.1307 C   0  0  0  0  0  0
    0.9762    1.9383   -0.2690 C   0  0  0  0  0  0
    0.0371    0.9231   -0.3436 N   0  0  0  0  0  0
    3.3105    2.2166    0.2763 C   0  0  0  0  0  0
    3.1764    3.5877    0.0227 C   0  0  0  0  0  0
    1.9536    4.1222   -0.3720 C   0  0  0  0  0  0
    0.8297    3.3075   -0.5255 C   0  0  0  0  0  0
    4.1312   -1.0196    1.0031 C   0  0  0  0  0  0
   -4.5805   -1.5502   -1.1161 H   0  0  0  0  0  0
   -4.5342   -3.9866   -0.7117 H   0  0  0  0  0  0
   -2.4312   -5.1091    0.0017 H   0  0  0  0  0  0
   -2.5635   -0.1825   -0.8255 H   0  0  0  0  0  0
    0.2402   -4.5875    0.5939 H   0  0  0  0  0  0
    2.7852   -3.2311    1.0187 H   0  0  0  0  0  0
   -0.9270    1.0695   -0.6106 H   0  0  0  0  0  0
    4.2791    1.8297    0.5832 H   0  0  0  0  0  0
    4.0403    4.2417    0.1362 H   0  0  0  0  0  0
    1.8703    5.1915   -0.5644 H   0  0  0  0  0  0
   -0.1246    3.7281   -0.8341 H   0  0  0  0  0  0
    4.2064   -0.3409    1.8563 H   0  0  0  0  0  0
    4.6436   -0.6181    0.1255 H   0  0  0  0  0  0
    4.5636   -1.9875    1.2674 H   0  0  0  0  0  0
  1  2  2  0  0  0
  1  6  1  0  0  0
  1 22  1  0  0  0
  2  3  1  0  0  0
  2 23  1  0  0  0
  3  4  2  0  0  0
  3 24  1  0  0  0
  4  5  1  0  0  0
  4  7  1  0  0  0
  5  6  2  0  0  0
  5  9  1  0  0  0
  6 25  1  0  0  0
  7  8  1  0  0  0
  7 26  1  0  0  0
  8  9  2  0  0  0
  8 10  1  0  0  0
  9 13  1  0  0  0
 10 11  2  0  0  0
 10 27  1  0  0  0
 11 12  1  0  0  0
 11 21  1  0  0  0
 12 13  2  0  0  0
 12 14  1  0  0  0
 13 16  1  0  0  0
 14 15  2  0  0  0
 14 17  1  0  0  0
 15 16  1  0  0  0
 15 20  1  0  0  0
 16 28  1  0  0  0
 17 18  2  0  0  0
 17 29  1  0  0  0
 18 19  1  0  0  0
 18 30  1  0  0  0
 19 20  2  0  0  0
 19 31  1  0  0  0
 20 32  1  0  0  0
 21 33  1  0  0  0
 21 34  1  0  0  0
 21 35  1  0  0  0
M  CHG  1  11   1
M  END
>  <Name>
5-34

>  <Family>
N.2

>  <IC50_uM>
4.660000

>  <set>
0

$$$$
6-17
  Cerius2 12180215293D 1   1.00000                          
 Structure written by MMmdl.
 32 36  0  0  0  0  0  0  0  0999 V2000
    0.0454   -1.0532    0.8585 C   0  0  0  0  0  0
   -1.3371   -0.9190    1.1992 C   0  0  0  0  0  0
   -1.7203   -2.1976    1.6366 C   0  0  0  0  0  0
   -0.6181   -3.0340    1.5550 N   0  0  0  0  0  0
    0.4713   -2.3497    1.0807 C   0  0  0  0  0  0
   -2.3156    0.0989    1.1998 C   0  0  0  0  0  0
   -3.6191   -0.1874    1.6285 C   0  0  0  0  0  0
   -3.9644   -1.4651    2.0555 C   0  0  0  0  0  0
   -3.0210   -2.4938    2.0673 C   0  0  0  0  0  0
    1.7947   -2.7244    0.8186 C   0  0  0  0  0  0
    2.6824   -1.7352    0.3195 C   0  0  0  0  0  0
    2.2443   -0.4087    0.0928 C   0  0  0  0  0  0
    0.9238   -0.1186    0.3762 C   0  0  0  0  0  0
    2.8199    0.8085   -0.3810 C   0  0  0  0  0  0
    1.8105    1.7805   -0.3599 C   0  0  0  0  0  0
    0.6572    1.1740    0.1118 N   0  0  0  0  0  0
    4.1046    1.1809   -0.8274 C   0  0  0  0  0  0
    4.3359    2.5004   -1.2342 C   0  0  0  0  0  0
    3.3121    3.4449   -1.2020 C   0  0  0  0  0  0
    2.0289    3.1035   -0.7641 C   0  0  0  0  0  0
   -0.6215   -4.0137    1.8111 H   0  0  0  0  0  0
   -2.0906    1.1098    0.8751 H   0  0  0  0  0  0
   -4.3694    0.6023    1.6265 H   0  0  0  0  0  0
   -4.9830   -1.6672    2.3849 H   0  0  0  0  0  0
   -3.2922   -3.4927    2.4015 H   0  0  0  0  0  0
    2.1416   -3.7408    0.9892 H   0  0  0  0  0  0
    3.7156   -2.0080    0.1097 H   0  0  0  0  0  0
   -0.2228    1.6571    0.2251 H   0  0  0  0  0  0
    4.9121    0.4526   -0.8571 H   0  0  0  0  0  0
    5.3276    2.7899   -1.5794 H   0  0  0  0  0  0
    3.5131    4.4666   -1.5230 H   0  0  0  0  0  0
    1.2324    3.8434   -0.7404 H   0  0  0  0  0  0
  1  2  1  0  0  0
  1  5  2  0  0  0
  1 13  1  0  0  0
  2  3  2  0  0  0
  2  6  1  0  0  0
  3  4  1  0  0  0
  3  9  1  0  0  0
  4  5  1  0  0  0
  4 21  1  0  0  0
  5 10  1  0  0  0
  6  7  2  0  0  0
  6 22  1  0  0  0
  7  8  1  0  0  0
  7 23  1  0  0  0
  8  9  2  0  0  0
  8 24  1  0  0  0
  9 25  1  0  0  0
 10 11  2  0  0  0
 10 26  1  0  0  0
 11 12  1  0  0  0
 11 27  1  0  0  0
 12 13  2  0  0  0
 12 14  1  0  0  0
 13 16  1  0  0  0
 14 15  2  0  0  0
 14 17  1  0  0  0
 15 16  1  0  0  0
 15 20  1  0  0  0
 16 28  1  0  0  0
 17 18  2  0  0  0
 17 29  1  0  0  0
 18 19  1  0  0  0
 18 30  1  0  0  0
 19 20  2  0  0  0
 19 31  1  0  0  0
 20 32  1  0  0  0
M  END
>  <Name>
6-17

>  <Family>
N.3

>  <IC50_uM>
1.920000

>  <set>
2

$$$$
11-1-azadiindole
  Cerius2 12180215293D 1   1.00000                          
 Structure written by MMmdl.
 30 34  0  0  0  0  0  0  0  0999 V2000
   -3.4652   -1.9761   -0.7770 C   0  0  0  0  0  0
   -3.4433   -3.3476   -0.5413 C   0  0  0  0  0  0
   -2.2784   -3.9815   -0.1035 C   0  0  0  0  0  0
   -1.1365   -3.1928    0.0897 C   0  0  0  0  0  0
   -1.1272   -1.8073   -0.1395 C   0  0  0  0  0  0
   -2.3184   -1.1952   -0.5811 C   0  0  0  0  0  0
    0.1294   -3.5734    0.5140 N   0  0  0  0  0  0
    0.9622   -2.4855    0.5693 C   0  0  0  0  0  0
    0.2029   -1.4069    0.1723 C   0  0  0  0  0  0
    2.2973   -2.3121    0.9208 C   0  0  0  0  0  0
    2.8746   -1.0742    0.8783 N   0  0  0  0  0  0
    2.1061   -0.0218    0.4831 C   0  0  0  0  0  0
    0.7848   -0.1780    0.1324 C   0  0  0  0  0  0
    2.3933    1.3611    0.3337 C   0  0  0  0  0  0
    1.2118    1.9696   -0.1053 C   0  0  0  0  0  0
    0.2397    0.9981   -0.2200 N   0  0  0  0  0  0
    3.5157    2.1868    0.5159 C   0  0  0  0  0  0
    3.3704    3.5480    0.2466 C   0  0  0  0  0  0
    2.1396    4.0252   -0.1846 C   0  0  0  0  0  0
    1.0242    3.2776   -0.3778 N   0  0  0  0  0  0
   -4.3847   -1.5019   -1.1181 H   0  0  0  0  0  0
   -4.3464   -3.9360   -0.6999 H   0  0  0  0  0  0
   -2.2641   -5.0534    0.0801 H   0  0  0  0  0  0
   -2.3729   -0.1282   -0.7751 H   0  0  0  0  0  0
    0.3945   -4.5223    0.7483 H   0  0  0  0  0  0
    2.9295   -3.1357    1.2388 H   0  0  0  0  0  0
   -0.7058    1.1842   -0.5211 H   0  0  0  0  0  0
    4.4645    1.7804    0.8547 H   0  0  0  0  0  0
    4.2075    4.2291    0.3716 H   0  0  0  0  0  0
    2.0206    5.0874   -0.3965 H   0  0  0  0  0  0
  1  2  2  0  0  0
  1  6  1  0  0  0
  1 21  1  0  0  0
  2  3  1  0  0  0
  2 22  1  0  0  0
  3  4  2  0  0  0
  3 23  1  0  0  0
  4  5  1  0  0  0
  4  7  1  0  0  0
  5  6  2  0  0  0
  5  9  1  0  0  0
  6 24  1  0  0  0
  7  8  1  0  0  0
  7 25  1  0  0  0
  8  9  2  0  0  0
  8 10  1  0  0  0
  9 13  1  0  0  0
 10 11  2  0  0  0
 10 26  1  0  0  0
 11 12  1  0  0  0
 12 13  2  0  0  0
 12 14  1  0  0  0
 13 16  1  0  0  0
 14 15  2  0  0  0
 14 17  1  0  0  0
 15 16  1  0  0  0
 15 20  1  0  0  0
 16 27  1  0  0  0
 17 18  2  0  0  0
 17 28  1  0  0  0
 18 19  1  0  0  0
 18 29  1  0  0  0
 19 20  2  0  0  0
 19 30  1  0  0  0
M  END
>  <Name>
11-1-azadiindole

>  <Family>
N.4

>  <IC50_uM>
0.010600

>  <set>
2

$$$$
11-2-azadiindole
  Cerius2 12180215293D 1   1.00000                          
 Structure written by MMmdl.
 30 34  0  0  0  0  0  0  0  0999 V2000
   -3.4928   -1.5780   -0.7857 C   0  0  0  0  0  0
   -3.4582   -2.9480   -0.5432 C   0  0  0  0  0  0
   -2.2875   -3.5688   -0.1023 C   0  0  0  0  0  0
   -1.1529   -2.7686    0.0871 C   0  0  0  0  0  0
   -1.1561   -1.3841   -0.1490 C   0  0  0  0  0  0
   -2.3532   -0.7856   -0.5938 C   0  0  0  0  0  0
    0.1163   -3.1355    0.5132 N   0  0  0  0  0  0
    0.9391   -2.0400    0.5631 C   0  0  0  0  0  0
    0.1705   -0.9697    0.1609 C   0  0  0  0  0  0
    2.2726   -1.8530    0.9138 C   0  0  0  0  0  0
    2.8385   -0.6102    0.8651 N   0  0  0  0  0  0
    2.0601    0.4328    0.4647 C   0  0  0  0  0  0
    0.7422    0.2642    0.1153 C   0  0  0  0  0  0
    2.3368    1.8194    0.3089 C   0  0  0  0  0  0
    1.1508    2.4242   -0.1342 C   0  0  0  0  0  0
    0.1867    1.4329   -0.2426 N   0  0  0  0  0  0
    3.4684    2.6258    0.4969 C   0  0  0  0  0  0
    3.3201    3.9766    0.2251 C   0  0  0  0  0  0
    2.1720    4.5563   -0.2030 N   0  0  0  0  0  0
    1.0692    3.7871   -0.3890 C   0  0  0  0  0  0
   -4.4166   -1.1139   -1.1291 H   0  0  0  0  0  0
   -4.3558   -3.5456   -0.6989 H   0  0  0  0  0  0
   -2.2631   -4.6396    0.0866 H   0  0  0  0  0  0
   -2.4179    0.2798   -0.7932 H   0  0  0  0  0  0
    0.3900   -4.0808    0.7524 H   0  0  0  0  0  0
    2.9121   -2.6692    1.2359 H   0  0  0  0  0  0
   -0.7650    1.5972   -0.5436 H   0  0  0  0  0  0
    4.4144    2.2193    0.8375 H   0  0  0  0  0  0
    4.1640    4.6527    0.3527 H   0  0  0  0  0  0
    0.1639    4.2767   -0.7321 H   0  0  0  0  0  0
  1  2  2  0  0  0
  1  6  1  0  0  0
  1 21  1  0  0  0
  2  3  1  0  0  0
  2 22  1  0  0  0
  3  4  2  0  0  0
  3 23  1  0  0  0
  4  5  1  0  0  0
  4  7  1  0  0  0
  5  6  2  0  0  0
  5  9  1  0  0  0
  6 24  1  0  0  0
  7  8  1  0  0  0
  7 25  1  0  0  0
  8  9  2  0  0  0
  8 10  1  0  0  0
  9 13  1  0  0  0
 10 11  2  0  0  0
 10 26  1  0  0  0
 11 12  1  0  0  0
 12 13  2  0  0  0
 12 14  1  0  0  0
 13 16  1  0  0  0
 14 15  2  0  0  0
 14 17  1  0  0  0
 15 16  1  0  0  0
 15 20  1  0  0  0
 16 27  1  0  0  0
 17 18  2  0  0  0
 17 28  1  0  0  0
 18 19  1  0  0  0
 18 29  1  0  0  0
 19 20  2  0  0  0
 20 30  1  0  0  0
M  END
>  <Name>
11-2-azadiindole

>  <Family>
N.4

>  <IC50_uM>
0.051500

>  <set>
0

$$$$
11-4-azadiindole
  Cerius2 12180215293D 1   1.00000                          
 Structure written by MMmdl.
 30 34  0  0  0  0  0  0  0  0999 V2000
   -3.4139   -2.0987   -0.7802 C   0  0  0  0  0  0
   -3.3717   -3.4678   -0.5349 C   0  0  0  0  0  0
   -2.1964   -4.0818   -0.0966 C   0  0  0  0  0  0
   -1.0652   -3.2754    0.0873 C   0  0  0  0  0  0
   -1.0760   -1.8914   -0.1516 C   0  0  0  0  0  0
   -2.2777   -1.3001   -0.5937 C   0  0  0  0  0  0
    0.2070   -3.6352    0.5101 N   0  0  0  0  0  0
    1.0246   -2.5355    0.5551 C   0  0  0  0  0  0
    0.2498   -1.4699    0.1531 C   0  0  0  0  0  0
    2.3580   -2.3426    0.9013 C   0  0  0  0  0  0
    2.9191   -1.0986    0.8489 N   0  0  0  0  0  0
    2.1352   -0.0555    0.4482 C   0  0  0  0  0  0
    0.8152   -0.2329    0.1030 C   0  0  0  0  0  0
    2.3914    1.3360    0.2842 C   0  0  0  0  0  0
    1.2004    1.9303   -0.1559 C   0  0  0  0  0  0
    0.2468    0.9307   -0.2570 N   0  0  0  0  0  0
    3.5359    2.0468    0.4891 N   0  0  0  0  0  0
    3.4337    3.3724    0.2345 C   0  0  0  0  0  0
    2.2901    4.0264   -0.2023 C   0  0  0  0  0  0
    1.1220    3.2992   -0.4112 C   0  0  0  0  0  0
   -4.3412   -1.6399   -1.1216 H   0  0  0  0  0  0
   -4.2667   -4.0703   -0.6864 H   0  0  0  0  0  0
   -2.1659   -5.1520    0.0944 H   0  0  0  0  0  0
   -2.3491   -0.2356   -0.7954 H   0  0  0  0  0  0
    0.4860   -4.5786    0.7503 H   0  0  0  0  0  0
    3.0015   -3.1560    1.2230 H   0  0  0  0  0  0
   -0.7073    1.0853   -0.5547 H   0  0  0  0  0  0
    4.3478    3.9422    0.3979 H   0  0  0  0  0  0
    2.3107    5.0985   -0.3788 H   0  0  0  0  0  0
    0.2069    3.7735   -0.7525 H   0  0  0  0  0  0
  1  2  2  0  0  0
  1  6  1  0  0  0
  1 21  1  0  0  0
  2  3  1  0  0  0
  2 22  1  0  0  0
  3  4  2  0  0  0
  3 23  1  0  0  0
  4  5  1  0  0  0
  4  7  1  0  0  0
  5  6  2  0  0  0
  5  9  1  0  0  0
  6 24  1  0  0  0
  7  8  1  0  0  0
  7 25  1  0  0  0
  8  9  2  0  0  0
  8 10  1  0  0  0
  9 13  1  0  0  0
 10 11  2  0  0  0
 10 26  1  0  0  0
 11 12  1  0  0  0
 12 13  2  0  0  0
 12 14  1  0  0  0
 13 16  1  0  0  0
 14 15  2  0  0  0
 14 17  1  0  0  0
 15 16  1  0  0  0
 15 20  1  0  0  0
 16 27  1  0  0  0
 17 18  2  0  0  0
 18 19  1  0  0  0
 18 28  1  0  0  0
 19 20  2  0  0  0
 19 29  1  0  0  0
 20 30  1  0  0  0
M  END
>  <Name>
11-4-azadiindole

>  <Family>
N.4

>  <IC50_uM>
0.010200

>  <set>
0

$$$$
11-11c
  Cerius2 12180215293D 1   1.00000                          
 Structure written by MMmdl.
 36 41  0  0  0  0  0  0  0  0999 V2000
   -4.7465   -2.0543   -0.9927 C   0  0  0  0  0  0
   -4.7302   -3.4273   -0.7551 C   0  0  0  0  0  0
   -3.5735   -4.0679   -0.2998 C   0  0  0  0  0  0
   -2.4336   -3.2814   -0.0912 C   0  0  0  0  0  0
   -2.4238   -1.8997   -0.3223 C   0  0  0  0  0  0
   -3.6011   -1.2779   -0.7808 C   0  0  0  0  0  0
   -1.1701   -3.6504    0.3502 N   0  0  0  0  0  0
   -0.3419   -2.5518    0.4126 C   0  0  0  0  0  0
   -1.1217   -1.4981    0.0005 C   0  0  0  0  0  0
    0.9846   -2.3974    0.7843 C   0  0  0  0  0  0
    1.5640   -1.1729    0.7514 N   0  0  0  0  0  0
    0.7820   -0.1478    0.3436 C   0  0  0  0  0  0
   -0.5434   -0.2073   -0.0442 C   0  0  0  0  0  0
    1.0971    1.1989    0.2112 N   0  0  0  0  0  0
   -0.0700    1.8315   -0.2463 C   0  0  0  0  0  0
   -1.0747    0.9876   -0.4055 N   0  0  0  0  0  0
    2.3040    1.8896    0.4575 C   0  0  0  0  0  0
    2.3062    3.2812    0.2232 C   0  0  0  0  0  0
    1.0828    3.9380   -0.2559 C   0  0  0  0  0  0
   -0.0369    3.2322   -0.4732 C   0  0  0  0  0  0
    3.4733    1.2693    0.9142 C   0  0  0  0  0  0
    4.6286    2.0246    1.1343 C   0  0  0  0  0  0
    4.6264    3.3987    0.9016 C   0  0  0  0  0  0
    3.4680    4.0279    0.4466 C   0  0  0  0  0  0
   -5.6598   -1.5782   -1.3473 H   0  0  0  0  0  0
   -5.6330   -4.0130   -0.9266 H   0  0  0  0  0  0
   -3.5655   -5.1396   -0.1158 H   0  0  0  0  0  0
   -3.6253   -0.2066   -0.9696 H   0  0  0  0  0  0
   -0.8998   -4.5962    0.5915 H   0  0  0  0  0  0
    1.6035   -3.2280    1.1102 H   0  0  0  0  0  0
    1.1023    5.0101   -0.4313 H   0  0  0  0  0  0
   -0.9388    3.7221   -0.8272 H   0  0  0  0  0  0
    3.5189    0.2011    1.1084 H   0  0  0  0  0  0
    5.5350    1.5364    1.4897 H   0  0  0  0  0  0
    5.5295    3.9815    1.0751 H   0  0  0  0  0  0
    3.4826    5.1021    0.2696 H   0  0  0  0  0  0
  1  2  2  0  0  0
  1  6  1  0  0  0
  1 25  1  0  0  0
  2  3  1  0  0  0
  2 26  1  0  0  0
  3  4  2  0  0  0
  3 27  1  0  0  0
  4  5  1  0  0  0
  4  7  1  0  0  0
  5  6  2  0  0  0
  5  9  1  0  0  0
  6 28  1  0  0  0
  7  8  1  0  0  0
  7 29  1  0  0  0
  8  9  2  0  0  0
  8 10  1  0  0  0
  9 13  1  0  0  0
 10 11  2  0  0  0
 10 30  1  0  0  0
 11 12  1  0  0  0
 12 13  2  0  0  0
 12 14  1  0  0  0
 13 16  1  0  0  0
 14 15  1  0  0  0
 14 17  1  0  0  0
 15 16  2  0  0  0
 15 20  1  0  0  0
 17 18  2  0  0  0
 17 21  1  0  0  0
 18 19  1  0  0  0
 18 24  1  0  0  0
 19 20  2  0  0  0
 19 31  1  0  0  0
 20 32  1  0  0  0
 21 22  2  0  0  0
 21 33  1  0  0  0
 22 23  1  0  0  0
 22 34  1  0  0  0
 23 24  2  0  0  0
 23 35  1  0  0  0
 24 36  1  0  0  0
M  END
>  <Name>
11-11c

>  <Family>
N.5

>  <IC50_uM>
>3

>  <set>
1

$$$$
7-2
  Cerius2 12180215293D 1   1.00000                          
 Structure written by MMmdl.
 31 35  0  0  0  0  0  0  0  0999 V2000
   -3.4430    3.5553    0.4140 C   0  0  0  0  0  0
   -3.5837    2.1629    0.4406 C   0  0  0  0  0  0
   -2.4337    1.3523    0.5357 C   0  0  0  0  0  0
   -1.1764    1.9746    0.6010 C   0  0  0  0  0  0
   -1.0238    3.3663    0.5752 C   0  0  0  0  0  0
   -2.1818    4.1444    0.4804 C   0  0  0  0  0  0
   -0.2178    0.9746    0.6884 N   0  0  0  0  0  0
   -0.8431   -0.2132    0.6783 C   0  0  0  0  0  0
   -2.2042   -0.0517    0.5866 C   0  0  0  0  0  0
   -3.0552   -1.1150    0.5591 N   0  0  0  0  0  0
   -2.5186   -2.3698    0.6260 C   0  0  0  0  0  0
   -1.1420   -2.5493    0.7189 C   0  0  0  0  0  0
   -0.3002   -1.4591    0.7450 C   0  0  0  0  0  0
   -0.3328   -3.6532    0.7992 N   0  0  0  0  0  0
    0.9999   -3.2718    0.8743 C   0  0  0  0  0  0
    1.0600   -1.8690    0.8422 C   0  0  0  0  0  0
    2.1451   -4.0740    0.9677 C   0  0  0  0  0  0
    3.3859   -3.4361    1.0302 C   0  0  0  0  0  0
    3.4779   -2.0478    1.0005 C   0  0  0  0  0  0
    2.3273   -1.2535    0.9071 C   0  0  0  0  0  0
   -4.3298    4.1835    0.3405 H   0  0  0  0  0  0
   -4.5718    1.7105    0.3884 H   0  0  0  0  0  0
   -0.0422    3.8313    0.6267 H   0  0  0  0  0  0
   -2.0950    5.2305    0.4582 H   0  0  0  0  0  0
    0.7768    1.1478    0.7485 H   0  0  0  0  0  0
   -3.2161   -3.2017    0.6026 H   0  0  0  0  0  0
   -0.6557   -4.6130    0.8033 H   0  0  0  0  0  0
    2.0759   -5.1591    0.9910 H   0  0  0  0  0  0
    4.2932   -4.0348    1.1031 H   0  0  0  0  0  0
    4.4560   -1.5706    1.0504 H   0  0  0  0  0  0
    2.4380   -0.1734    0.8864 H   0  0  0  0  0  0
  1  2  2  0  0  0
  1  6  1  0  0  0
  1 21  1  0  0  0
  2  3  1  0  0  0
  2 22  1  0  0  0
  3  4  2  0  0  0
  3  9  1  0  0  0
  4  5  1  0  0  0
  4  7  1  0  0  0
  5  6  2  0  0  0
  5 23  1  0  0  0
  6 24  1  0  0  0
  7  8  1  0  0  0
  7 25  1  0  0  0
  8  9  2  0  0  0
  8 13  1  0  0  0
  9 10  1  0  0  0
 10 11  2  0  0  0
 11 12  1  0  0  0
 11 26  1  0  0  0
 12 13  2  0  0  0
 12 14  1  0  0  0
 13 16  1  0  0  0
 14 15  1  0  0  0
 14 27  1  0  0  0
 15 16  2  0  0  0
 15 17  1  0  0  0
 16 20  1  0  0  0
 17 18  2  0  0  0
 17 28  1  0  0  0
 18 19  1  0  0  0
 18 29  1  0  0  0
 19 20  2  0  0  0
 19 30  1  0  0  0
 20 31  1  0  0  0
M  END
>  <Name>
7-2

>  <Family>
N.6

>  <IC50_uM>
0.005000

>  <set>
0

$$$$
