1-1
  Cerius2 12120216093D 1   1.00000                          
 Structure written by MMmdl.
 39 41  0  0  0  0  0  0  0  0999 V2000
   27.7051   22.0403   17.0243 C   0  0  0  0  0  0
   26.4399   22.0976   16.4318 N   0  0  0  0  0  0
   25.5381   21.4424   17.2831 C   0  0  0  0  0  0
   26.2525   20.9753   18.3748 C   0  0  0  0  0  0
   27.5943   21.3608   18.2218 C   0  0  0  0  0  0
   24.0821   21.3670   17.1082 C   0  0  0  0  0  0
   26.1324   22.6824   15.1634 C   0  0  0  0  0  0
   23.4105   22.2668   16.2675 C   0  0  0  0  0  0
   22.0220   22.2007   16.1197 C   0  0  0  0  0  0
   21.2976   21.2409   16.8307 C   0  0  0  0  0  0
   21.9509   20.3402   17.6750 C   0  0  0  0  0  0
   23.3399   20.4115   17.8175 C   0  0  0  0  0  0
   26.3695   24.0457   14.9358 C   0  0  0  0  0  0
   26.0627   24.6119   13.6959 C   0  0  0  0  0  0
   25.5236   23.8179   12.6910 C   0  0  0  0  0  0
   25.2821   22.4660   12.9010 C   0  0  0  0  0  0
   25.5848   21.8942   14.1391 C   0  0  0  0  0  0
   25.2311   24.3643   11.5034 F   0  0  0  0  0  0
   28.9655   22.5443   16.4025 C   0  0  0  0  0  0
   19.5328   21.1457   16.6315 S   0  0  0  0  0  0
   19.0413   22.4851   16.3229 O   0  0  0  0  0  0
   18.9873   20.4577   17.7975 O   0  0  0  0  0  0
   19.3258   20.1152   15.2035 C   0  0  0  0  0  0
   25.8309   20.4354   19.2156 H   0  0  0  0  0  0
   28.4100   21.1477   18.9041 H   0  0  0  0  0  0
   23.9630   23.0298   15.7210 H   0  0  0  0  0  0
   21.5209   22.9035   15.4575 H   0  0  0  0  0  0
   21.3956   19.5863   18.2287 H   0  0  0  0  0  0
   23.8404   19.7079   18.4815 H   0  0  0  0  0  0
   26.7480   24.6961   15.7203 H   0  0  0  0  0  0
   26.2341   25.6696   13.5167 H   0  0  0  0  0  0
   24.8658   21.8592   12.1019 H   0  0  0  0  0  0
   25.4187   20.8273   14.2701 H   0  0  0  0  0  0
   29.8338   22.0387   16.8401 H   0  0  0  0  0  0
   29.0870   23.6157   16.5858 H   0  0  0  0  0  0
   28.9947   22.3510   15.3261 H   0  0  0  0  0  0
   18.2555   20.0118   15.0126 H   0  0  0  0  0  0
   19.7633   19.1356   15.4046 H   0  0  0  0  0  0
   19.8115   20.5898   14.3489 H   0  0  0  0  0  0
  1  2  1  0  0  0
  1  5  2  0  0  0
  1 19  1  0  0  0
  2  3  1  0  0  0
  2  7  1  0  0  0
  3  4  2  0  0  0
  3  6  1  0  0  0
  4  5  1  0  0  0
  4 24  1  0  0  0
  5 25  1  0  0  0
  6  8  2  0  0  0
  6 12  1  0  0  0
  7 13  2  0  0  0
  7 17  1  0  0  0
  8  9  1  0  0  0
  8 26  1  0  0  0
  9 10  2  0  0  0
  9 27  1  0  0  0
 10 11  1  0  0  0
 10 20  1  0  0  0
 11 12  2  0  0  0
 11 28  1  0  0  0
 12 29  1  0  0  0
 13 14  1  0  0  0
 13 30  1  0  0  0
 14 15  2  0  0  0
 14 31  1  0  0  0
 15 16  1  0  0  0
 15 18  1  0  0  0
 16 17  2  0  0  0
 16 32  1  0  0  0
 17 33  1  0  0  0
 19 34  1  0  0  0
 19 35  1  0  0  0
 19 36  1  0  0  0
 20 21  2  0  0  0
 20 22  2  0  0  0
 20 23  1  0  0  0
 23 37  1  0  0  0
 23 38  1  0  0  0
 23 39  1  0  0  0
M  END
>  <Name>
1-1

>  <Family>
A.1

>  <IC50_uM>
0.06

>  <set>
1

$$$$
1-3
  Cerius2 12120216093D 1   1.00000                          
 Structure written by MMmdl.
 36 38  0  0  0  0  0  0  0  0999 V2000
   25.4846   21.5399   17.3071 N   0  0  0  0  0  0
   26.4312   22.0071   16.3843 C   0  0  0  0  0  0
   27.6898   21.8135   16.9406 C   0  0  0  0  0  0
   27.5295   21.3020   18.2401 C   0  0  0  0  0  0
   26.1783   21.1760   18.4535 C   0  0  0  0  0  0
   26.1536   22.6867   15.1147 C   0  0  0  0  0  0
   24.0659   21.4031   17.1540 C   0  0  0  0  0  0
   26.4311   24.0534   14.9583 C   0  0  0  0  0  0
   26.1857   24.6890   13.7390 C   0  0  0  0  0  0
   25.6735   23.9561   12.6751 C   0  0  0  0  0  0
   25.4055   22.5986   12.8052 C   0  0  0  0  0  0
   25.6508   21.9616   14.0238 C   0  0  0  0  0  0
   23.3651   22.2807   16.3089 C   0  0  0  0  0  0
   21.9786   22.1690   16.1580 C   0  0  0  0  0  0
   21.2822   21.1891   16.8664 C   0  0  0  0  0  0
   21.9622   20.3138   17.7137 C   0  0  0  0  0  0
   23.3497   20.4269   17.8619 C   0  0  0  0  0  0
   25.4396   24.5659   11.5055 F   0  0  0  0  0  0
   19.5226   21.0379   16.6582 S   0  0  0  0  0  0
   18.9783   22.3733   16.4322 O   0  0  0  0  0  0
   19.0064   20.2585   17.7792 O   0  0  0  0  0  0
   19.3542   20.0909   15.1687 C   0  0  0  0  0  0
   28.6298   22.0716   16.4649 H   0  0  0  0  0  0
   28.3110   21.0599   18.9511 H   0  0  0  0  0  0
   25.6597   20.7924   19.3222 H   0  0  0  0  0  0
   26.8422   24.6325   15.7836 H   0  0  0  0  0  0
   26.3959   25.7477   13.6175 H   0  0  0  0  0  0
   25.0098   22.0404   11.9616 H   0  0  0  0  0  0
   25.4398   20.8976   14.1183 H   0  0  0  0  0  0
   23.8763   23.0422   15.7233 H   0  0  0  0  0  0
   21.4585   22.8495   15.4866 H   0  0  0  0  0  0
   21.4277   19.5504   18.2755 H   0  0  0  0  0  0
   23.8320   19.7629   18.5737 H   0  0  0  0  0  0
   18.2885   19.9569   14.9713 H   0  0  0  0  0  0
   19.8306   19.1188   15.3084 H   0  0  0  0  0  0
   19.8186   20.6371   14.3457 H   0  0  0  0  0  0
  1  2  1  0  0  0
  1  5  1  0  0  0
  1  7  1  0  0  0
  2  3  2  0  0  0
  2  6  1  0  0  0
  3  4  1  0  0  0
  3 23  1  0  0  0
  4  5  2  0  0  0
  4 24  1  0  0  0
  5 25  1  0  0  0
  6  8  2  0  0  0
  6 12  1  0  0  0
  7 13  2  0  0  0
  7 17  1  0  0  0
  8  9  1  0  0  0
  8 26  1  0  0  0
  9 10  2  0  0  0
  9 27  1  0  0  0
 10 11  1  0  0  0
 10 18  1  0  0  0
 11 12  2  0  0  0
 11 28  1  0  0  0
 12 29  1  0  0  0
 13 14  1  0  0  0
 13 30  1  0  0  0
 14 15  2  0  0  0
 14 31  1  0  0  0
 15 16  1  0  0  0
 15 19  1  0  0  0
 16 17  2  0  0  0
 16 32  1  0  0  0
 17 33  1  0  0  0
 19 20  2  0  0  0
 19 21  2  0  0  0
 19 22  1  0  0  0
 22 34  1  0  0  0
 22 35  1  0  0  0
 22 36  1  0  0  0
M  END
>  <Name>
1-3

>  <Family>
A.1

>  <IC50_uM>
0.51

>  <set>
2

$$$$
1-4
  Cerius2 12120216093D 1   1.00000                          
 Structure written by MMmdl.
 36 38  0  0  0  0  0  0  0  0999 V2000
   26.4123   22.0400   16.3890 N   0  0  0  0  0  0
   25.4965   21.5624   17.3374 C   0  0  0  0  0  0
   26.2219   21.1444   18.4463 C   0  0  0  0  0  0
   27.5915   21.2843   18.1626 C   0  0  0  0  0  0
   27.6833   21.7985   16.8920 C   0  0  0  0  0  0
   24.0482   21.4157   17.1583 C   0  0  0  0  0  0
   26.1579   22.6924   15.1381 C   0  0  0  0  0  0
   23.3353   20.4356   17.8647 C   0  0  0  0  0  0
   21.9518   20.3108   17.7067 C   0  0  0  0  0  0
   21.2765   21.1736   16.8406 C   0  0  0  0  0  0
   21.9686   22.1713   16.1494 C   0  0  0  0  0  0
   23.3519   22.2904   16.3117 C   0  0  0  0  0  0
   25.6656   21.9517   14.0487 C   0  0  0  0  0  0
   25.4234   22.5743   12.8204 C   0  0  0  0  0  0
   25.6819   23.9302   12.6744 C   0  0  0  0  0  0
   26.1837   24.6758   13.7322 C   0  0  0  0  0  0
   26.4264   24.0582   14.9634 C   0  0  0  0  0  0
   19.5135   21.0348   16.6486 S   0  0  0  0  0  0
   18.9889   22.3669   16.3638 O   0  0  0  0  0  0
   18.9890   20.3149   17.8050 O   0  0  0  0  0  0
   19.3273   20.0191   15.2070 C   0  0  0  0  0  0
   25.4506   24.5247   11.4966 F   0  0  0  0  0  0
   25.7944   20.7282   19.3522 H   0  0  0  0  0  0
   28.4247   21.0295   18.8073 H   0  0  0  0  0  0
   28.5673   22.0696   16.3302 H   0  0  0  0  0  0
   23.8516   19.7621   18.5472 H   0  0  0  0  0  0
   21.4187   19.5414   18.2610 H   0  0  0  0  0  0
   21.4475   22.8562   15.4841 H   0  0  0  0  0  0
   23.8837   23.0687   15.7662 H   0  0  0  0  0  0
   25.4267   20.8938   14.1343 H   0  0  0  0  0  0
   25.0306   22.0042   11.9831 H   0  0  0  0  0  0
   26.3967   25.7326   13.5966 H   0  0  0  0  0  0
   26.8674   24.6642   15.7493 H   0  0  0  0  0  0
   18.2594   19.8818   15.0247 H   0  0  0  0  0  0
   19.8004   19.0524   15.3900 H   0  0  0  0  0  0
   19.7879   20.5221   14.3548 H   0  0  0  0  0  0
  1  2  1  0  0  0
  1  5  1  0  0  0
  1  7  1  0  0  0
  2  3  2  0  0  0
  2  6  1  0  0  0
  3  4  1  0  0  0
  3 23  1  0  0  0
  4  5  2  0  0  0
  4 24  1  0  0  0
  5 25  1  0  0  0
  6  8  2  0  0  0
  6 12  1  0  0  0
  7 13  2  0  0  0
  7 17  1  0  0  0
  8  9  1  0  0  0
  8 26  1  0  0  0
  9 10  2  0  0  0
  9 27  1  0  0  0
 10 11  1  0  0  0
 10 18  1  0  0  0
 11 12  2  0  0  0
 11 28  1  0  0  0
 12 29  1  0  0  0
 13 14  1  0  0  0
 13 30  1  0  0  0
 14 15  2  0  0  0
 14 31  1  0  0  0
 15 16  1  0  0  0
 15 22  1  0  0  0
 16 17  2  0  0  0
 16 32  1  0  0  0
 17 33  1  0  0  0
 18 19  2  0  0  0
 18 20  2  0  0  0
 18 21  1  0  0  0
 21 34  1  0  0  0
 21 35  1  0  0  0
 21 36  1  0  0  0
M  END
>  <Name>
1-4

>  <Family>
A.1

>  <IC50_uM>
10.2

>  <set>
1

$$$$
1-5
  Cerius2 12120216093D 1   1.00000                          
 Structure written by MMmdl.
 39 41  0  0  0  0  0  0  0  0999 V2000
   26.4453   22.0419   16.4039 N   0  0  0  0  0  0
   25.5269   21.5485   17.3427 C   0  0  0  0  0  0
   26.2457   21.0736   18.4279 C   0  0  0  0  0  0
   27.6134   21.2464   18.1609 C   0  0  0  0  0  0
   27.7294   21.8513   16.9246 C   0  0  0  0  0  0
   24.0737   21.4469   17.1601 C   0  0  0  0  0  0
   26.1287   22.6664   15.1566 C   0  0  0  0  0  0
   23.3982   22.2972   16.2727 C   0  0  0  0  0  0
   22.0154   22.1886   16.0978 C   0  0  0  0  0  0
   21.3046   21.2210   16.8114 C   0  0  0  0  0  0
   21.9670   20.3484   17.6782 C   0  0  0  0  0  0
   23.3495   20.4632   17.8488 C   0  0  0  0  0  0
   25.5577   21.9217   14.1165 C   0  0  0  0  0  0
   25.2440   22.5382   12.9023 C   0  0  0  0  0  0
   25.4991   23.8960   12.7193 C   0  0  0  0  0  0
   26.0666   24.6420   13.7503 C   0  0  0  0  0  0
   26.3808   24.0323   14.9672 C   0  0  0  0  0  0
   28.9924   22.3221   16.2820 C   0  0  0  0  0  0
   19.5469   21.0683   16.5880 S   0  0  0  0  0  0
   19.0116   22.4017   16.3317 O   0  0  0  0  0  0
   19.0123   20.3106   17.7154 O   0  0  0  0  0  0
   19.3950   20.0905   15.1163 C   0  0  0  0  0  0
   25.8160   20.6172   19.3131 H   0  0  0  0  0  0
   28.4379   20.9800   18.8131 H   0  0  0  0  0  0
   23.9438   23.0521   15.7084 H   0  0  0  0  0  0
   21.5103   22.8624   15.4094 H   0  0  0  0  0  0
   21.4223   19.5828   18.2266 H   0  0  0  0  0  0
   23.8570   19.7829   18.5315 H   0  0  0  0  0  0
   25.3047   20.8719   14.2413 H   0  0  0  0  0  0
   24.7899   21.9579   12.1008 H   0  0  0  0  0  0
   25.2531   24.3741   11.7727 H   0  0  0  0  0  0
   26.2714   25.7015   13.6059 H   0  0  0  0  0  0
   26.8537   24.6348   15.7395 H   0  0  0  0  0  0
   29.7825   22.4329   17.0333 H   0  0  0  0  0  0
   28.8679   23.2993   15.8062 H   0  0  0  0  0  0
   29.3454   21.5968   15.5434 H   0  0  0  0  0  0
   18.3317   19.9478   14.9123 H   0  0  0  0  0  0
   19.8752   19.1240   15.2802 H   0  0  0  0  0  0
   19.8643   20.6213   14.2859 H   0  0  0  0  0  0
  1  2  1  0  0  0
  1  5  1  0  0  0
  1  7  1  0  0  0
  2  3  2  0  0  0
  2  6  1  0  0  0
  3  4  1  0  0  0
  3 23  1  0  0  0
  4  5  2  0  0  0
  4 24  1  0  0  0
  5 18  1  0  0  0
  6  8  2  0  0  0
  6 12  1  0  0  0
  7 13  2  0  0  0
  7 17  1  0  0  0
  8  9  1  0  0  0
  8 25  1  0  0  0
  9 10  2  0  0  0
  9 26  1  0  0  0
 10 11  1  0  0  0
 10 19  1  0  0  0
 11 12  2  0  0  0
 11 27  1  0  0  0
 12 28  1  0  0  0
 13 14  1  0  0  0
 13 29  1  0  0  0
 14 15  2  0  0  0
 14 30  1  0  0  0
 15 16  1  0  0  0
 15 31  1  0  0  0
 16 17  2  0  0  0
 16 32  1  0  0  0
 17 33  1  0  0  0
 18 34  1  0  0  0
 18 35  1  0  0  0
 18 36  1  0  0  0
 19 20  2  0  0  0
 19 21  2  0  0  0
 19 22  1  0  0  0
 22 37  1  0  0  0
 22 38  1  0  0  0
 22 39  1  0  0  0
M  END
>  <Name>
1-5

>  <Family>
A.1

>  <IC50_uM>
0.06

>  <set>
1

$$$$
1-6
  Cerius2 12120216093D 1   1.00000                          
 Structure written by MMmdl.
 42 44  0  0  0  0  0  0  0  0999 V2000
   26.4453   22.0412   16.4042 N   0  0  0  0  0  0
   25.5275   21.5482   17.3436 C   0  0  0  0  0  0
   26.2477   21.0747   18.4287 C   0  0  0  0  0  0
   27.6152   21.2485   18.1603 C   0  0  0  0  0  0
   27.7299   21.8516   16.9228 C   0  0  0  0  0  0
   24.0744   21.4454   17.1603 C   0  0  0  0  0  0
   26.1277   22.6659   15.1576 C   0  0  0  0  0  0
   23.3989   22.2972   16.2739 C   0  0  0  0  0  0
   22.0161   22.1891   16.0981 C   0  0  0  0  0  0
   21.3045   21.2214   16.8108 C   0  0  0  0  0  0
   21.9664   20.3476   17.6768 C   0  0  0  0  0  0
   23.3493   20.4613   17.8477 C   0  0  0  0  0  0
   25.5570   21.9218   14.1186 C   0  0  0  0  0  0
   25.2431   22.5378   12.9022 C   0  0  0  0  0  0
   25.5019   23.9013   12.7003 C   0  0  0  0  0  0
   26.0648   24.6420   13.7496 C   0  0  0  0  0  0
   26.3777   24.0310   14.9686 C   0  0  0  0  0  0
   28.9910   22.3228   16.2768 C   0  0  0  0  0  0
   19.5466   21.0701   16.5862 S   0  0  0  0  0  0
   19.0123   22.4043   16.3303 O   0  0  0  0  0  0
   19.0106   20.3119   17.7120 O   0  0  0  0  0  0
   19.3954   20.0937   15.1134 C   0  0  0  0  0  0
   25.1417   24.5660   11.3957 C   0  0  0  0  0  0
   25.9353   25.6370   11.0880 F   0  0  0  0  0  0
   23.8613   25.0455   11.3824 F   0  0  0  0  0  0
   25.2303   23.7327   10.3140 F   0  0  0  0  0  0
   25.8197   20.6192   19.3150 H   0  0  0  0  0  0
   28.4409   20.9833   18.8118 H   0  0  0  0  0  0
   23.9446   23.0522   15.7101 H   0  0  0  0  0  0
   21.5115   22.8633   15.4095 H   0  0  0  0  0  0
   21.4213   19.5815   18.2242 H   0  0  0  0  0  0
   23.8560   19.7795   18.5293 H   0  0  0  0  0  0
   25.3018   20.8724   14.2450 H   0  0  0  0  0  0
   24.7851   21.9441   12.1108 H   0  0  0  0  0  0
   26.2714   25.7045   13.6215 H   0  0  0  0  0  0
   26.8478   24.6344   15.7424 H   0  0  0  0  0  0
   29.7852   22.4279   17.0247 H   0  0  0  0  0  0
   28.8659   23.3027   15.8065 H   0  0  0  0  0  0
   29.3391   21.6010   15.5325 H   0  0  0  0  0  0
   18.3322   19.9520   14.9083 H   0  0  0  0  0  0
   19.8744   19.1267   15.2778 H   0  0  0  0  0  0
   19.8660   20.6249   14.2840 H   0  0  0  0  0  0
  1  2  1  0  0  0
  1  5  1  0  0  0
  1  7  1  0  0  0
  2  3  2  0  0  0
  2  6  1  0  0  0
  3  4  1  0  0  0
  3 27  1  0  0  0
  4  5  2  0  0  0
  4 28  1  0  0  0
  5 18  1  0  0  0
  6  8  2  0  0  0
  6 12  1  0  0  0
  7 13  2  0  0  0
  7 17  1  0  0  0
  8  9  1  0  0  0
  8 29  1  0  0  0
  9 10  2  0  0  0
  9 30  1  0  0  0
 10 11  1  0  0  0
 10 19  1  0  0  0
 11 12  2  0  0  0
 11 31  1  0  0  0
 12 32  1  0  0  0
 13 14  1  0  0  0
 13 33  1  0  0  0
 14 15  2  0  0  0
 14 34  1  0  0  0
 15 16  1  0  0  0
 15 23  1  0  0  0
 16 17  2  0  0  0
 16 35  1  0  0  0
 17 36  1  0  0  0
 18 37  1  0  0  0
 18 38  1  0  0  0
 18 39  1  0  0  0
 19 20  2  0  0  0
 19 21  2  0  0  0
 19 22  1  0  0  0
 22 40  1  0  0  0
 22 41  1  0  0  0
 22 42  1  0  0  0
 23 24  1  0  0  0
 23 25  1  0  0  0
 23 26  1  0  0  0
M  END
>  <Name>
1-6

>  <Family>
A.1

>  <IC50_uM>
0.08

>  <set>
1

$$$$
1-7
  Cerius2 12120216093D 1   1.00000                          
 Structure written by MMmdl.
 42 44  0  0  0  0  0  0  0  0999 V2000
   26.4455   22.0421   16.4043 N   0  0  0  0  0  0
   25.5277   21.5481   17.3435 C   0  0  0  0  0  0
   26.2481   21.0706   18.4268 C   0  0  0  0  0  0
   27.6156   21.2438   18.1583 C   0  0  0  0  0  0
   27.7300   21.8516   16.9231 C   0  0  0  0  0  0
   24.0744   21.4473   17.1616 C   0  0  0  0  0  0
   26.1284   22.6661   15.1575 C   0  0  0  0  0  0
   23.3993   22.2983   16.2744 C   0  0  0  0  0  0
   22.0165   22.1903   16.0990 C   0  0  0  0  0  0
   21.3049   21.2228   16.8119 C   0  0  0  0  0  0
   21.9664   20.3509   17.6801 C   0  0  0  0  0  0
   23.3490   20.4650   17.8512 C   0  0  0  0  0  0
   25.5556   21.9221   14.1198 C   0  0  0  0  0  0
   25.2392   22.5373   12.9048 C   0  0  0  0  0  0
   25.5030   23.8967   12.7052 C   0  0  0  0  0  0
   26.0625   24.6407   13.7494 C   0  0  0  0  0  0
   26.3775   24.0311   14.9674 C   0  0  0  0  0  0
   28.9911   22.3246   16.2787 C   0  0  0  0  0  0
   19.5482   21.0678   16.5817 S   0  0  0  0  0  0
   19.0127   22.4000   16.3184 O   0  0  0  0  0  0
   19.0096   20.3139   17.7094 O   0  0  0  0  0  0
   19.4026   20.0852   15.1129 C   0  0  0  0  0  0
   25.1318   24.5614   11.4117 C   0  0  0  0  0  0
   25.8199   20.6128   19.3118 H   0  0  0  0  0  0
   28.4414   20.9755   18.8085 H   0  0  0  0  0  0
   23.9449   23.0534   15.7102 H   0  0  0  0  0  0
   21.5120   22.8641   15.4100 H   0  0  0  0  0  0
   21.4214   19.5857   18.2286 H   0  0  0  0  0  0
   23.8557   19.7850   18.5346 H   0  0  0  0  0  0
   25.2994   20.8731   14.2475 H   0  0  0  0  0  0
   24.7761   21.9454   12.1159 H   0  0  0  0  0  0
   26.2646   25.7036   13.6210 H   0  0  0  0  0  0
   26.8469   24.6355   15.7407 H   0  0  0  0  0  0
   29.7819   22.4372   17.0289 H   0  0  0  0  0  0
   28.8641   23.3013   15.8024 H   0  0  0  0  0  0
   29.3444   21.5997   15.5397 H   0  0  0  0  0  0
   18.3401   19.9431   14.9041 H   0  0  0  0  0  0
   19.8801   19.1186   15.2832 H   0  0  0  0  0  0
   19.8768   20.6125   14.2830 H   0  0  0  0  0  0
   24.1087   24.9451   11.4686 H   0  0  0  0  0  0
   25.1998   23.8564   10.5767 H   0  0  0  0  0  0
   25.8104   25.3921   11.1913 H   0  0  0  0  0  0
  1  2  1  0  0  0
  1  5  1  0  0  0
  1  7  1  0  0  0
  2  3  2  0  0  0
  2  6  1  0  0  0
  3  4  1  0  0  0
  3 24  1  0  0  0
  4  5  2  0  0  0
  4 25  1  0  0  0
  5 18  1  0  0  0
  6  8  2  0  0  0
  6 12  1  0  0  0
  7 13  2  0  0  0
  7 17  1  0  0  0
  8  9  1  0  0  0
  8 26  1  0  0  0
  9 10  2  0  0  0
  9 27  1  0  0  0
 10 11  1  0  0  0
 10 19  1  0  0  0
 11 12  2  0  0  0
 11 28  1  0  0  0
 12 29  1  0  0  0
 13 14  1  0  0  0
 13 30  1  0  0  0
 14 15  2  0  0  0
 14 31  1  0  0  0
 15 16  1  0  0  0
 15 23  1  0  0  0
 16 17  2  0  0  0
 16 32  1  0  0  0
 17 33  1  0  0  0
 18 34  1  0  0  0
 18 35  1  0  0  0
 18 36  1  0  0  0
 19 20  2  0  0  0
 19 21  2  0  0  0
 19 22  1  0  0  0
 22 37  1  0  0  0
 22 38  1  0  0  0
 22 39  1  0  0  0
 23 40  1  0  0  0
 23 41  1  0  0  0
 23 42  1  0  0  0
M  END
>  <Name>
1-7

>  <Family>
A.1

>  <IC50_uM>
0.04

>  <set>
0

$$$$
1-8
  Cerius2 12120216093D 1   1.00000                          
 Structure written by MMmdl.
 44 46  0  0  0  0  0  0  0  0999 V2000
   26.4454   22.0414   16.4043 N   0  0  0  0  0  0
   25.5276   21.5479   17.3432 C   0  0  0  0  0  0
   26.2476   21.0712   18.4269 C   0  0  0  0  0  0
   27.6151   21.2440   18.1583 C   0  0  0  0  0  0
   27.7299   21.8504   16.9227 C   0  0  0  0  0  0
   24.0739   21.4483   17.1621 C   0  0  0  0  0  0
   26.1281   22.6663   15.1577 C   0  0  0  0  0  0
   23.3985   22.2984   16.2741 C   0  0  0  0  0  0
   22.0157   22.1902   16.0986 C   0  0  0  0  0  0
   21.3042   21.2233   16.8121 C   0  0  0  0  0  0
   21.9658   20.3521   17.6811 C   0  0  0  0  0  0
   23.3483   20.4667   17.8524 C   0  0  0  0  0  0
   25.5572   21.9232   14.1179 C   0  0  0  0  0  0
   25.2418   22.5369   12.8990 C   0  0  0  0  0  0
   25.4944   23.8998   12.7060 C   0  0  0  0  0  0
   26.0644   24.6411   13.7493 C   0  0  0  0  0  0
   26.3789   24.0306   14.9684 C   0  0  0  0  0  0
   28.9918   22.3227   16.2790 C   0  0  0  0  0  0
   19.5476   21.0654   16.5828 S   0  0  0  0  0  0
   19.0102   22.3976   16.3240 O   0  0  0  0  0  0
   19.0112   20.3072   17.7088 O   0  0  0  0  0  0
   19.4026   20.0865   15.1113 C   0  0  0  0  0  0
   25.1737   24.5931   11.4202 C   0  0  0  0  0  0
   24.6700   23.9648   10.4856 O   0  0  0  0  0  0
   25.4763   26.0639   11.2905 C   0  0  0  0  0  0
   25.8192   20.6143   19.3123 H   0  0  0  0  0  0
   28.4406   20.9761   18.8089 H   0  0  0  0  0  0
   23.9443   23.0518   15.7080 H   0  0  0  0  0  0
   21.5112   22.8628   15.4084 H   0  0  0  0  0  0
   21.4204   19.5871   18.2295 H   0  0  0  0  0  0
   23.8548   19.7866   18.5360 H   0  0  0  0  0  0
   25.3037   20.8733   14.2439 H   0  0  0  0  0  0
   24.7904   21.9256   12.1215 H   0  0  0  0  0  0
   26.2763   25.7014   13.6234 H   0  0  0  0  0  0
   26.8519   24.6339   15.7403 H   0  0  0  0  0  0
   29.7843   22.4279   17.0287 H   0  0  0  0  0  0
   28.8671   23.3029   15.8094 H   0  0  0  0  0  0
   29.3421   21.6015   15.5352 H   0  0  0  0  0  0
   18.3403   19.9361   14.9078 H   0  0  0  0  0  0
   19.8896   19.1234   15.2757 H   0  0  0  0  0  0
   19.8677   20.6205   14.2808 H   0  0  0  0  0  0
   25.1725   26.4064   10.2963 H   0  0  0  0  0  0
   26.5498   26.2410   11.3956 H   0  0  0  0  0  0
   24.9104   26.6345   12.0314 H   0  0  0  0  0  0
  1  2  1  0  0  0
  1  5  1  0  0  0
  1  7  1  0  0  0
  2  3  2  0  0  0
  2  6  1  0  0  0
  3  4  1  0  0  0
  3 26  1  0  0  0
  4  5  2  0  0  0
  4 27  1  0  0  0
  5 18  1  0  0  0
  6  8  2  0  0  0
  6 12  1  0  0  0
  7 13  2  0  0  0
  7 17  1  0  0  0
  8  9  1  0  0  0
  8 28  1  0  0  0
  9 10  2  0  0  0
  9 29  1  0  0  0
 10 11  1  0  0  0
 10 19  1  0  0  0
 11 12  2  0  0  0
 11 30  1  0  0  0
 12 31  1  0  0  0
 13 14  1  0  0  0
 13 32  1  0  0  0
 14 15  2  0  0  0
 14 33  1  0  0  0
 15 16  1  0  0  0
 15 23  1  0  0  0
 16 17  2  0  0  0
 16 34  1  0  0  0
 17 35  1  0  0  0
 18 36  1  0  0  0
 18 37  1  0  0  0
 18 38  1  0  0  0
 19 20  2  0  0  0
 19 21  2  0  0  0
 19 22  1  0  0  0
 22 39  1  0  0  0
 22 40  1  0  0  0
 22 41  1  0  0  0
 23 24  2  0  0  0
 23 25  1  0  0  0
 25 42  1  0  0  0
 25 43  1  0  0  0
 25 44  1  0  0  0
M  END
>  <Name>
1-8

>  <Family>
A.1

>  <IC50_uM>
2.87

>  <set>
2

$$$$
1-9
  Cerius2 12120216093D 1   1.00000                          
 Structure written by MMmdl.
 39 41  0  0  0  0  0  0  0  0999 V2000
   26.4441   22.0459   16.4057 N   0  0  0  0  0  0
   25.5275   21.5468   17.3423 C   0  0  0  0  0  0
   26.2483   21.0701   18.4252 C   0  0  0  0  0  0
   27.6155   21.2457   18.1561 C   0  0  0  0  0  0
   27.7290   21.8553   16.9217 C   0  0  0  0  0  0
   24.0747   21.4441   17.1588 C   0  0  0  0  0  0
   26.1230   22.6736   15.1616 C   0  0  0  0  0  0
   23.3996   22.2969   16.2733 C   0  0  0  0  0  0
   22.0166   22.1906   16.0993 C   0  0  0  0  0  0
   21.3049   21.2227   16.8117 C   0  0  0  0  0  0
   21.9667   20.3482   17.6771 C   0  0  0  0  0  0
   23.3495   20.4610   17.8473 C   0  0  0  0  0  0
   26.3730   24.0393   14.9744 C   0  0  0  0  0  0
   26.0634   24.6310   13.7530 C   0  0  0  0  0  0
   25.5090   23.8828   12.7217 C   0  0  0  0  0  0
   25.2559   22.5282   12.8946 C   0  0  0  0  0  0
   25.5631   21.9204   14.1155 C   0  0  0  0  0  0
   28.9901   22.3303   16.2788 C   0  0  0  0  0  0
   19.5470   21.0716   16.5866 S   0  0  0  0  0  0
   19.0145   22.4037   16.3179 O   0  0  0  0  0  0
   19.0094   20.3248   17.7197 O   0  0  0  0  0  0
   19.3960   20.0819   15.1230 C   0  0  0  0  0  0
   26.3150   25.9358   13.5712 F   0  0  0  0  0  0
   25.2158   24.4671   11.5512 F   0  0  0  0  0  0
   25.8208   20.6107   19.3096 H   0  0  0  0  0  0
   28.4417   20.9778   18.8059 H   0  0  0  0  0  0
   23.9455   23.0511   15.7085 H   0  0  0  0  0  0
   21.5117   22.8656   15.4119 H   0  0  0  0  0  0
   21.4214   19.5826   18.2247 H   0  0  0  0  0  0
   23.8563   19.7799   18.5294 H   0  0  0  0  0  0
   26.8458   24.6496   15.7366 H   0  0  0  0  0  0
   24.8164   21.9502   12.0868 H   0  0  0  0  0  0
   25.3245   20.8660   14.2403 H   0  0  0  0  0  0
   29.7834   22.4335   17.0278 H   0  0  0  0  0  0
   28.8641   23.3117   15.8121 H   0  0  0  0  0  0
   29.3395   21.6117   15.5318 H   0  0  0  0  0  0
   18.3329   19.9409   14.9175 H   0  0  0  0  0  0
   19.8725   19.1153   15.2967 H   0  0  0  0  0  0
   19.8691   20.6042   14.2894 H   0  0  0  0  0  0
  1  2  1  0  0  0
  1  5  1  0  0  0
  1  7  1  0  0  0
  2  3  2  0  0  0
  2  6  1  0  0  0
  3  4  1  0  0  0
  3 25  1  0  0  0
  4  5  2  0  0  0
  4 26  1  0  0  0
  5 18  1  0  0  0
  6  8  2  0  0  0
  6 12  1  0  0  0
  7 13  2  0  0  0
  7 17  1  0  0  0
  8  9  1  0  0  0
  8 27  1  0  0  0
  9 10  2  0  0  0
  9 28  1  0  0  0
 10 11  1  0  0  0
 10 19  1  0  0  0
 11 12  2  0  0  0
 11 29  1  0  0  0
 12 30  1  0  0  0
 13 14  1  0  0  0
 13 31  1  0  0  0
 14 15  2  0  0  0
 14 23  1  0  0  0
 15 16  1  0  0  0
 15 24  1  0  0  0
 16 17  2  0  0  0
 16 32  1  0  0  0
 17 33  1  0  0  0
 18 34  1  0  0  0
 18 35  1  0  0  0
 18 36  1  0  0  0
 19 20  2  0  0  0
 19 21  2  0  0  0
 19 22  1  0  0  0
 22 37  1  0  0  0
 22 38  1  0  0  0
 22 39  1  0  0  0
M  END
>  <Name>
1-9

>  <Family>
A.1

>  <IC50_uM>
0.25

>  <set>
1

$$$$
1-10
  Cerius2 12120216093D 1   1.00000                          
 Structure written by MMmdl.
 42 44  0  0  0  0  0  0  0  0999 V2000
   26.4489   22.0543   16.4135 N   0  0  0  0  0  0
   25.5318   21.5430   17.3420 C   0  0  0  0  0  0
   26.2524   21.0345   18.4090 C   0  0  0  0  0  0
   27.6197   21.2206   18.1456 C   0  0  0  0  0  0
   27.7380   21.8809   16.9355 C   0  0  0  0  0  0
   24.0783   21.4479   17.1598 C   0  0  0  0  0  0
   26.1245   22.6671   15.1628 C   0  0  0  0  0  0
   23.4064   22.3003   16.2715 C   0  0  0  0  0  0
   22.0236   22.1950   16.0940 C   0  0  0  0  0  0
   21.3086   21.2298   16.8069 C   0  0  0  0  0  0
   21.9670   20.3574   17.6770 C   0  0  0  0  0  0
   23.3497   20.4686   17.8498 C   0  0  0  0  0  0
   25.5439   21.9077   14.1364 C   0  0  0  0  0  0
   25.2171   22.5119   12.9202 C   0  0  0  0  0  0
   25.4694   23.8659   12.7349 C   0  0  0  0  0  0
   26.0431   24.6311   13.7429 C   0  0  0  0  0  0
   26.3717   24.0335   14.9617 C   0  0  0  0  0  0
   19.5518   21.0786   16.5737 S   0  0  0  0  0  0
   19.0250   22.4054   16.2696 O   0  0  0  0  0  0
   19.0046   20.3611   17.7211 O   0  0  0  0  0  0
   19.4065   20.0550   15.1331 C   0  0  0  0  0  0
   25.1528   24.4423   11.5678 F   0  0  0  0  0  0
   30.0835   22.7767   17.2756 C   0  0  0  0  0  0
   28.9907   22.4042   16.2814 C   0  0  0  0  0  0
   25.8260   20.5486   19.2797 H   0  0  0  0  0  0
   28.4390   20.9296   18.7934 H   0  0  0  0  0  0
   23.9551   23.0526   15.7069 H   0  0  0  0  0  0
   21.5213   22.8682   15.4030 H   0  0  0  0  0  0
   21.4194   19.5941   18.2255 H   0  0  0  0  0  0
   23.8542   19.7877   18.5342 H   0  0  0  0  0  0
   25.3003   20.8570   14.2759 H   0  0  0  0  0  0
   24.7591   21.9322   12.1235 H   0  0  0  0  0  0
   26.2380   25.6870   13.5777 H   0  0  0  0  0  0
   26.8496   24.6426   15.7259 H   0  0  0  0  0  0
   18.3440   19.9090   14.9268 H   0  0  0  0  0  0
   19.8823   19.0929   15.3314 H   0  0  0  0  0  0
   19.8827   20.5577   14.2892 H   0  0  0  0  0  0
   30.9386   23.2117   16.7481 H   0  0  0  0  0  0
   30.4440   21.8997   17.8232 H   0  0  0  0  0  0
   29.7251   23.5115   18.0045 H   0  0  0  0  0  0
   28.7686   23.3038   15.6977 H   0  0  0  0  0  0
   29.3818   21.6437   15.5962 H   0  0  0  0  0  0
  1  2  1  0  0  0
  1  5  1  0  0  0
  1  7  1  0  0  0
  2  3  2  0  0  0
  2  6  1  0  0  0
  3  4  1  0  0  0
  3 25  1  0  0  0
  4  5  2  0  0  0
  4 26  1  0  0  0
  5 24  1  0  0  0
  6  8  2  0  0  0
  6 12  1  0  0  0
  7 13  2  0  0  0
  7 17  1  0  0  0
  8  9  1  0  0  0
  8 27  1  0  0  0
  9 10  2  0  0  0
  9 28  1  0  0  0
 10 11  1  0  0  0
 10 18  1  0  0  0
 11 12  2  0  0  0
 11 29  1  0  0  0
 12 30  1  0  0  0
 13 14  1  0  0  0
 13 31  1  0  0  0
 14 15  2  0  0  0
 14 32  1  0  0  0
 15 16  1  0  0  0
 15 22  1  0  0  0
 16 17  2  0  0  0
 16 33  1  0  0  0
 17 34  1  0  0  0
 18 19  2  0  0  0
 18 20  2  0  0  0
 18 21  1  0  0  0
 21 35  1  0  0  0
 21 36  1  0  0  0
 21 37  1  0  0  0
 23 24  1  0  0  0
 23 38  1  0  0  0
 23 39  1  0  0  0
 23 40  1  0  0  0
 24 41  1  0  0  0
 24 42  1  0  0  0
M  END
>  <Name>
1-10

>  <Family>
A.1

>  <IC50_uM>
>100

>  <set>
1

$$$$
1-16
  Cerius2 12120216093D 1   1.00000                          
 Structure written by MMmdl.
 42 44  0  0  0  0  0  0  0  0999 V2000
   26.4190   22.0338   16.3890 N   0  0  0  0  0  0
   25.5010   21.5644   17.3392 C   0  0  0  0  0  0
   26.2233   21.1520   18.4523 C   0  0  0  0  0  0
   27.5935   21.2907   18.1716 C   0  0  0  0  0  0
   27.6888   21.7998   16.8992 C   0  0  0  0  0  0
   24.0527   21.4202   17.1592 C   0  0  0  0  0  0
   26.1681   22.6715   15.1292 C   0  0  0  0  0  0
   23.3380   20.4405   17.8639 C   0  0  0  0  0  0
   21.9551   20.3156   17.7019 C   0  0  0  0  0  0
   21.2823   21.1783   16.8333 C   0  0  0  0  0  0
   21.9764   22.1760   16.1444 C   0  0  0  0  0  0
   23.3592   22.2951   16.3107 C   0  0  0  0  0  0
   26.4245   24.0441   14.9752 C   0  0  0  0  0  0
   26.1638   24.6720   13.7496 C   0  0  0  0  0  0
   25.6556   23.9493   12.6697 C   0  0  0  0  0  0
   25.3862   22.5915   12.8247 C   0  0  0  0  0  0
   25.6347   21.9569   14.0469 C   0  0  0  0  0  0
   19.5203   21.0354   16.6359 S   0  0  0  0  0  0
   18.9933   22.3644   16.3423 O   0  0  0  0  0  0
   18.9939   20.3204   17.7945 O   0  0  0  0  0  0
   19.3414   20.0124   15.1986 C   0  0  0  0  0  0
   26.5288   26.4031   13.5593 S   0  0  0  0  0  0
   26.5921   27.0012   14.8893 O   0  0  0  0  0  0
   25.5821   26.9544   12.5949 O   0  0  0  0  0  0
   28.1532   26.4142   12.8483 C   0  0  0  0  0  0
   25.7930   20.7411   19.3592 H   0  0  0  0  0  0
   28.4250   21.0394   18.8199 H   0  0  0  0  0  0
   28.5751   22.0702   16.3404 H   0  0  0  0  0  0
   23.8527   19.7662   18.5469 H   0  0  0  0  0  0
   21.4203   19.5459   18.2539 H   0  0  0  0  0  0
   21.4576   22.8609   15.4770 H   0  0  0  0  0  0
   23.8931   23.0727   15.7660 H   0  0  0  0  0  0
   26.8548   24.6322   15.7821 H   0  0  0  0  0  0
   25.4575   24.4295   11.7141 H   0  0  0  0  0  0
   24.9704   22.0223   11.9946 H   0  0  0  0  0  0
   25.3577   20.9097   14.1296 H   0  0  0  0  0  0
   18.2743   19.8776   15.0094 H   0  0  0  0  0  0
   19.8099   19.0452   15.3899 H   0  0  0  0  0  0
   19.8097   20.5097   14.3472 H   0  0  0  0  0  0
   28.4508   27.4543   12.6991 H   0  0  0  0  0  0
   28.1258   25.8947   11.8887 H   0  0  0  0  0  0
   28.8454   25.9245   13.5359 H   0  0  0  0  0  0
  1  2  1  0  0  0
  1  5  1  0  0  0
  1  7  1  0  0  0
  2  3  2  0  0  0
  2  6  1  0  0  0
  3  4  1  0  0  0
  3 26  1  0  0  0
  4  5  2  0  0  0
  4 27  1  0  0  0
  5 28  1  0  0  0
  6  8  2  0  0  0
  6 12  1  0  0  0
  7 13  2  0  0  0
  7 17  1  0  0  0
  8  9  1  0  0  0
  8 29  1  0  0  0
  9 10  2  0  0  0
  9 30  1  0  0  0
 10 11  1  0  0  0
 10 18  1  0  0  0
 11 12  2  0  0  0
 11 31  1  0  0  0
 12 32  1  0  0  0
 13 14  1  0  0  0
 13 33  1  0  0  0
 14 15  2  0  0  0
 14 22  1  0  0  0
 15 16  1  0  0  0
 15 34  1  0  0  0
 16 17  2  0  0  0
 16 35  1  0  0  0
 17 36  1  0  0  0
 18 19  2  0  0  0
 18 20  2  0  0  0
 18 21  1  0  0  0
 21 37  1  0  0  0
 21 38  1  0  0  0
 21 39  1  0  0  0
 22 23  2  0  0  0
 22 24  2  0  0  0
 22 25  1  0  0  0
 25 40  1  0  0  0
 25 41  1  0  0  0
 25 42  1  0  0  0
M  END
>  <Name>
1-16

>  <Family>
A.1

>  <IC50_uM>
>100

>  <set>
2

$$$$
1-17
  Cerius2 12120216093D 1   1.00000                          
 Structure written by MMmdl.
 45 47  0  0  0  0  0  0  0  0999 V2000
   26.4130   22.0402   16.3898 N   0  0  0  0  0  0
   25.4977   21.5623   17.3384 C   0  0  0  0  0  0
   26.2237   21.1428   18.4465 C   0  0  0  0  0  0
   27.5933   21.2828   18.1615 C   0  0  0  0  0  0
   27.6843   21.7985   16.8914 C   0  0  0  0  0  0
   24.0494   21.4169   17.1589 C   0  0  0  0  0  0
   26.1568   22.6907   15.1387 C   0  0  0  0  0  0
   23.3352   20.4371   17.8645 C   0  0  0  0  0  0
   21.9520   20.3122   17.7050 C   0  0  0  0  0  0
   21.2780   21.1754   16.8379 C   0  0  0  0  0  0
   21.9711   22.1728   16.1475 C   0  0  0  0  0  0
   23.3542   22.2916   16.3113 C   0  0  0  0  0  0
   25.6610   21.9492   14.0526 C   0  0  0  0  0  0
   25.4092   22.5680   12.8233 C   0  0  0  0  0  0
   25.6586   23.9323   12.6724 C   0  0  0  0  0  0
   26.1791   24.6767   13.7325 C   0  0  0  0  0  0
   26.4271   24.0557   14.9621 C   0  0  0  0  0  0
   19.5151   21.0353   16.6455 S   0  0  0  0  0  0
   18.9890   22.3652   16.3533 O   0  0  0  0  0  0
   18.9911   20.3214   17.8055 O   0  0  0  0  0  0
   19.3317   20.0137   15.2080 C   0  0  0  0  0  0
   25.3587   24.7237   11.1055 S   0  0  0  0  0  0
   25.2639   26.1598   11.3453 O   0  0  0  0  0  0
   24.2274   24.0442   10.4833 O   0  0  0  0  0  0
   26.7899   24.9786    8.7877 C   0  0  0  0  0  0
   26.8441   24.3789   10.1786 C   0  0  0  0  0  0
   25.7968   20.7255   19.3519 H   0  0  0  0  0  0
   28.4270   21.0269   18.8051 H   0  0  0  0  0  0
   28.5676   22.0710   16.3286 H   0  0  0  0  0  0
   23.8508   19.7639   18.5480 H   0  0  0  0  0  0
   21.4179   19.5434   18.2588 H   0  0  0  0  0  0
   21.4509   22.8577   15.4816 H   0  0  0  0  0  0
   23.8867   23.0701   15.7666 H   0  0  0  0  0  0
   25.4262   20.8903   14.1417 H   0  0  0  0  0  0
   25.0126   21.9761   12.0008 H   0  0  0  0  0  0
   26.4029   25.7350   13.6153 H   0  0  0  0  0  0
   26.8754   24.6584   15.7472 H   0  0  0  0  0  0
   18.2641   19.8827   15.0192 H   0  0  0  0  0  0
   19.7977   19.0451   15.3979 H   0  0  0  0  0  0
   19.8008   20.5098   14.3562 H   0  0  0  0  0  0
   27.7076   24.7489    8.2378 H   0  0  0  0  0  0
   26.6813   26.0672    8.8327 H   0  0  0  0  0  0
   25.9422   24.5819    8.2199 H   0  0  0  0  0  0
   26.9522   23.2919   10.1188 H   0  0  0  0  0  0
   27.6872   24.7948   10.7381 H   0  0  0  0  0  0
  1  2  1  0  0  0
  1  5  1  0  0  0
  1  7  1  0  0  0
  2  3  2  0  0  0
  2  6  1  0  0  0
  3  4  1  0  0  0
  3 27  1  0  0  0
  4  5  2  0  0  0
  4 28  1  0  0  0
  5 29  1  0  0  0
  6  8  2  0  0  0
  6 12  1  0  0  0
  7 13  2  0  0  0
  7 17  1  0  0  0
  8  9  1  0  0  0
  8 30  1  0  0  0
  9 10  2  0  0  0
  9 31  1  0  0  0
 10 11  1  0  0  0
 10 18  1  0  0  0
 11 12  2  0  0  0
 11 32  1  0  0  0
 12 33  1  0  0  0
 13 14  1  0  0  0
 13 34  1  0  0  0
 14 15  2  0  0  0
 14 35  1  0  0  0
 15 16  1  0  0  0
 15 22  1  0  0  0
 16 17  2  0  0  0
 16 36  1  0  0  0
 17 37  1  0  0  0
 18 19  2  0  0  0
 18 20  2  0  0  0
 18 21  1  0  0  0
 21 38  1  0  0  0
 21 39  1  0  0  0
 21 40  1  0  0  0
 22 23  2  0  0  0
 22 24  2  0  0  0
 22 26  1  0  0  0
 25 26  1  0  0  0
 25 41  1  0  0  0
 25 42  1  0  0  0
 25 43  1  0  0  0
 26 44  1  0  0  0
 26 45  1  0  0  0
M  END
>  <Name>
1-17

>  <Family>
A.1

>  <IC50_uM>
>100

>  <set>
1

$$$$
1-18
  Cerius2 12120216093D 1   1.00000                          
 Structure written by MMmdl.
 49 52  0  0  0  0  0  0  0  0999 V2000
   26.4156   22.0331   16.3896 N   0  0  0  0  0  0
   25.5036   21.5672   17.3465 C   0  0  0  0  0  0
   26.2343   21.1487   18.4515 C   0  0  0  0  0  0
   27.6032   21.2713   18.1525 C   0  0  0  0  0  0
   27.6888   21.7758   16.8771 C   0  0  0  0  0  0
   24.0537   21.4338   17.1702 C   0  0  0  0  0  0
   26.1504   22.6835   15.1414 C   0  0  0  0  0  0
   23.3351   20.4574   17.8765 C   0  0  0  0  0  0
   21.9541   20.3299   17.7060 C   0  0  0  0  0  0
   21.2863   21.1867   16.8276 C   0  0  0  0  0  0
   21.9826   22.1830   16.1397 C   0  0  0  0  0  0
   23.3644   22.3054   16.3151 C   0  0  0  0  0  0
   25.6353   21.9463   14.0619 C   0  0  0  0  0  0
   25.3601   22.5725   12.8412 C   0  0  0  0  0  0
   25.6165   23.9359   12.6923 C   0  0  0  0  0  0
   26.1563   24.6755   13.7463 C   0  0  0  0  0  0
   26.4243   24.0480   14.9668 C   0  0  0  0  0  0
   19.5286   21.0208   16.6165 S   0  0  0  0  0  0
   18.9827   22.3372   16.3004 O   0  0  0  0  0  0
   19.0065   20.3135   17.7814 O   0  0  0  0  0  0
   19.3751   19.9812   15.1877 C   0  0  0  0  0  0
   25.2364   24.7588   11.1628 S   0  0  0  0  0  0
   25.1798   26.1959   11.4100 O   0  0  0  0  0  0
   24.0573   24.0908   10.6211 O   0  0  0  0  0  0
   26.5988   24.4985   10.0489 C   0  0  0  0  0  0
   26.3768   23.9517    8.7820 C   0  0  0  0  0  0
   27.4607   23.7351    7.9296 C   0  0  0  0  0  0
   28.7536   24.0629    8.3430 C   0  0  0  0  0  0
   28.9691   24.6113    9.6086 C   0  0  0  0  0  0
   27.8914   24.8332   10.4666 C   0  0  0  0  0  0
   25.8109   20.7416   19.3633 H   0  0  0  0  0  0
   28.4396   21.0098   18.7904 H   0  0  0  0  0  0
   28.5686   22.0320   16.3015 H   0  0  0  0  0  0
   23.8462   19.7852   18.5642 H   0  0  0  0  0  0
   21.4155   19.5617   18.2567 H   0  0  0  0  0  0
   21.4690   22.8626   15.4633 H   0  0  0  0  0  0
   23.9011   23.0793   15.7682 H   0  0  0  0  0  0
   25.3966   20.8885   14.1542 H   0  0  0  0  0  0
   24.9407   21.9881   12.0249 H   0  0  0  0  0  0
   26.3803   25.7341   13.6310 H   0  0  0  0  0  0
   26.8855   24.6453   15.7486 H   0  0  0  0  0  0
   18.3116   19.8367   14.9867 H   0  0  0  0  0  0
   19.8479   19.0191   15.3933 H   0  0  0  0  0  0
   19.8504   20.4739   14.3373 H   0  0  0  0  0  0
   25.3746   23.6904    8.4497 H   0  0  0  0  0  0
   27.2986   23.3087    6.9409 H   0  0  0  0  0  0
   29.5967   23.8914    7.6754 H   0  0  0  0  0  0
   29.9788   24.8664    9.9257 H   0  0  0  0  0  0
   28.0684   25.2632   11.4503 H   0  0  0  0  0  0
  1  2  1  0  0  0
  1  5  1  0  0  0
  1  7  1  0  0  0
  2  3  2  0  0  0
  2  6  1  0  0  0
  3  4  1  0  0  0
  3 31  1  0  0  0
  4  5  2  0  0  0
  4 32  1  0  0  0
  5 33  1  0  0  0
  6  8  2  0  0  0
  6 12  1  0  0  0
  7 13  2  0  0  0
  7 17  1  0  0  0
  8  9  1  0  0  0
  8 34  1  0  0  0
  9 10  2  0  0  0
  9 35  1  0  0  0
 10 11  1  0  0  0
 10 18  1  0  0  0
 11 12  2  0  0  0
 11 36  1  0  0  0
 12 37  1  0  0  0
 13 14  1  0  0  0
 13 38  1  0  0  0
 14 15  2  0  0  0
 14 39  1  0  0  0
 15 16  1  0  0  0
 15 22  1  0  0  0
 16 17  2  0  0  0
 16 40  1  0  0  0
 17 41  1  0  0  0
 18 19  2  0  0  0
 18 20  2  0  0  0
 18 21  1  0  0  0
 21 42  1  0  0  0
 21 43  1  0  0  0
 21 44  1  0  0  0
 22 23  2  0  0  0
 22 24  2  0  0  0
 22 25  1  0  0  0
 25 26  2  0  0  0
 25 30  1  0  0  0
 26 27  1  0  0  0
 26 45  1  0  0  0
 27 28  2  0  0  0
 27 46  1  0  0  0
 28 29  1  0  0  0
 28 47  1  0  0  0
 29 30  2  0  0  0
 29 48  1  0  0  0
 30 49  1  0  0  0
M  END
>  <Name>
1-18

>  <Family>
A.1

>  <IC50_uM>
>100

>  <set>
1

$$$$
1-19
  Cerius2 12120216093D 1   1.00000                          
 Structure written by MMmdl.
 42 44  0  0  0  0  0  0  0  0999 V2000
   26.4182   22.0318   16.3878 N   0  0  0  0  0  0
   25.4998   21.5645   17.3386 C   0  0  0  0  0  0
   26.2220   21.1574   18.4537 C   0  0  0  0  0  0
   27.5923   21.2966   18.1733 C   0  0  0  0  0  0
   27.6878   21.8008   16.8990 C   0  0  0  0  0  0
   24.0517   21.4173   17.1578 C   0  0  0  0  0  0
   26.1666   22.6661   15.1272 C   0  0  0  0  0  0
   23.3378   20.4367   17.8622 C   0  0  0  0  0  0
   21.9548   20.3116   17.7015 C   0  0  0  0  0  0
   21.2805   21.1750   16.8351 C   0  0  0  0  0  0
   21.9738   22.1730   16.1456 C   0  0  0  0  0  0
   23.3569   22.2920   16.3099 C   0  0  0  0  0  0
   26.4202   24.0385   14.9682 C   0  0  0  0  0  0
   26.1733   24.6858   13.7459 C   0  0  0  0  0  0
   25.6526   23.9599   12.6734 C   0  0  0  0  0  0
   25.3878   22.5923   12.8289 C   0  0  0  0  0  0
   25.6373   21.9523   14.0484 C   0  0  0  0  0  0
   19.5179   21.0370   16.6411 S   0  0  0  0  0  0
   18.9946   22.3683   16.3509 O   0  0  0  0  0  0
   18.9909   20.3215   17.7991 O   0  0  0  0  0  0
   19.3316   20.0169   15.2029 C   0  0  0  0  0  0
   26.5457   26.3727   13.6863 Cl  0  0  0  0  0  0
   25.3262   24.7046   11.0941 S   0  0  0  0  0  0
   25.5834   26.1382   11.2118 O   0  0  0  0  0  0
   23.9992   24.2918   10.6542 O   0  0  0  0  0  0
   26.5568   24.0355   10.0062 C   0  0  0  0  0  0
   25.7921   20.7493   19.3622 H   0  0  0  0  0  0
   28.4234   21.0489   18.8236 H   0  0  0  0  0  0
   28.5740   22.0703   16.3397 H   0  0  0  0  0  0
   23.8529   19.7631   18.5457 H   0  0  0  0  0  0
   21.4211   19.5414   18.2541 H   0  0  0  0  0  0
   21.4536   22.8588   15.4802 H   0  0  0  0  0  0
   23.8897   23.0703   15.7654 H   0  0  0  0  0  0
   26.8491   24.6223   15.7802 H   0  0  0  0  0  0
   24.9726   22.0044   12.0121 H   0  0  0  0  0  0
   25.3627   20.9042   14.1292 H   0  0  0  0  0  0
   18.2635   19.8803   15.0210 H   0  0  0  0  0  0
   19.8035   19.0504   15.3886 H   0  0  0  0  0  0
   19.7928   20.5170   14.3492 H   0  0  0  0  0  0
   26.4476   24.5251    9.0356 H   0  0  0  0  0  0
   26.4124   22.9623    9.8889 H   0  0  0  0  0  0
   27.5454   24.2508   10.4166 H   0  0  0  0  0  0
  1  2  1  0  0  0
  1  5  1  0  0  0
  1  7  1  0  0  0
  2  3  2  0  0  0
  2  6  1  0  0  0
  3  4  1  0  0  0
  3 27  1  0  0  0
  4  5  2  0  0  0
  4 28  1  0  0  0
  5 29  1  0  0  0
  6  8  2  0  0  0
  6 12  1  0  0  0
  7 13  2  0  0  0
  7 17  1  0  0  0
  8  9  1  0  0  0
  8 30  1  0  0  0
  9 10  2  0  0  0
  9 31  1  0  0  0
 10 11  1  0  0  0
 10 18  1  0  0  0
 11 12  2  0  0  0
 11 32  1  0  0  0
 12 33  1  0  0  0
 13 14  1  0  0  0
 13 34  1  0  0  0
 14 15  2  0  0  0
 14 22  1  0  0  0
 15 16  1  0  0  0
 15 23  1  0  0  0
 16 17  2  0  0  0
 16 35  1  0  0  0
 17 36  1  0  0  0
 18 19  2  0  0  0
 18 20  2  0  0  0
 18 21  1  0  0  0
 21 37  1  0  0  0
 21 38  1  0  0  0
 21 39  1  0  0  0
 23 24  2  0  0  0
 23 25  2  0  0  0
 23 26  1  0  0  0
 26 40  1  0  0  0
 26 41  1  0  0  0
 26 42  1  0  0  0
M  END
>  <Name>
1-19

>  <Family>
A.1

>  <IC50_uM>
>100

>  <set>
2

$$$$
1-20
  Cerius2 12120216093D 1   1.00000                          
 Structure written by MMmdl.
 35 37  0  0  0  0  0  0  0  0999 V2000
   25.4847   21.5541   17.3075 N   0  0  0  0  0  0
   26.4419   21.9956   16.3831 C   0  0  0  0  0  0
   27.6952   21.7837   16.9444 C   0  0  0  0  0  0
   27.5222   21.2865   18.2480 C   0  0  0  0  0  0
   26.1683   21.1879   18.4590 C   0  0  0  0  0  0
   26.1790   22.6694   15.1072 C   0  0  0  0  0  0
   24.0641   21.4429   17.1513 C   0  0  0  0  0  0
   25.6245   21.9656   14.0270 C   0  0  0  0  0  0
   25.3566   22.6181   12.8215 C   0  0  0  0  0  0
   25.6319   23.9748   12.7010 C   0  0  0  0  0  0
   26.1673   24.6931   13.7634 C   0  0  0  0  0  0
   26.4363   24.0417   14.9693 C   0  0  0  0  0  0
   23.3580   20.4511   17.8535 C   0  0  0  0  0  0
   21.9727   20.3237   17.7040 C   0  0  0  0  0  0
   21.2871   21.1760   16.8365 C   0  0  0  0  0  0
   21.9758   22.1593   16.1255 C   0  0  0  0  0  0
   23.3617   22.2868   16.2785 C   0  0  0  0  0  0
   25.3727   24.6004   11.5450 F   0  0  0  0  0  0
   19.5298   21.0224   16.6744 S   0  0  0  0  0  0
   18.9532   22.3252   16.3916 O   0  0  0  0  0  0
   19.0233   20.2142   17.7694 O   0  0  0  0  0  0
   19.3834   20.1138   15.2746 N   0  0  0  0  0  0
   28.6411   22.0203   16.4692 H   0  0  0  0  0  0
   28.2972   21.0360   18.9630 H   0  0  0  0  0  0
   25.6400   20.8221   19.3296 H   0  0  0  0  0  0
   25.3954   20.9049   14.1169 H   0  0  0  0  0  0
   24.9326   22.0735   11.9830 H   0  0  0  0  0  0
   26.3719   25.7542   13.6527 H   0  0  0  0  0  0
   26.8548   24.6110   15.7979 H   0  0  0  0  0  0
   23.8535   19.7828   18.5548 H   0  0  0  0  0  0
   21.4401   19.5589   18.2658 H   0  0  0  0  0  0
   21.4525   22.8220   15.4395 H   0  0  0  0  0  0
   23.8664   23.0281   15.6653 H   0  0  0  0  0  0
   18.8901   20.6364   14.5460 H   0  0  0  0  0  0
   18.9289   19.2166   15.4630 H   0  0  0  0  0  0
  1  2  1  0  0  0
  1  5  1  0  0  0
  1  7  1  0  0  0
  2  3  2  0  0  0
  2  6  1  0  0  0
  3  4  1  0  0  0
  3 23  1  0  0  0
  4  5  2  0  0  0
  4 24  1  0  0  0
  5 25  1  0  0  0
  6  8  2  0  0  0
  6 12  1  0  0  0
  7 13  2  0  0  0
  7 17  1  0  0  0
  8  9  1  0  0  0
  8 26  1  0  0  0
  9 10  2  0  0  0
  9 27  1  0  0  0
 10 11  1  0  0  0
 10 18  1  0  0  0
 11 12  2  0  0  0
 11 28  1  0  0  0
 12 29  1  0  0  0
 13 14  1  0  0  0
 13 30  1  0  0  0
 14 15  2  0  0  0
 14 31  1  0  0  0
 15 16  1  0  0  0
 15 19  1  0  0  0
 16 17  2  0  0  0
 16 32  1  0  0  0
 17 33  1  0  0  0
 19 20  2  0  0  0
 19 21  2  0  0  0
 19 22  1  0  0  0
 22 34  1  0  0  0
 22 35  1  0  0  0
M  END
>  <Name>
1-20

>  <Family>
A.1

>  <IC50_uM>
0.014000

>  <set>
2

$$$$
1-21
  Cerius2 12120216093D 1   1.00000                          
 Structure written by MMmdl.
 44 46  0  0  0  0  0  0  0  0999 V2000
   26.4132   22.0398   16.3901 N   0  0  0  0  0  0
   25.4980   21.5637   17.3391 C   0  0  0  0  0  0
   26.2237   21.1445   18.4473 C   0  0  0  0  0  0
   27.5935   21.2821   18.1616 C   0  0  0  0  0  0
   27.6847   21.7966   16.8909 C   0  0  0  0  0  0
   24.0499   21.4178   17.1582 C   0  0  0  0  0  0
   26.1564   22.6896   15.1388 C   0  0  0  0  0  0
   23.3359   20.4370   17.8630 C   0  0  0  0  0  0
   21.9530   20.3123   17.7030 C   0  0  0  0  0  0
   21.2794   21.1760   16.8365 C   0  0  0  0  0  0
   21.9727   22.1731   16.1458 C   0  0  0  0  0  0
   23.3556   22.2921   16.3100 C   0  0  0  0  0  0
   25.6581   21.9485   14.0536 C   0  0  0  0  0  0
   25.4026   22.5685   12.8253 C   0  0  0  0  0  0
   25.6540   23.9327   12.6743 C   0  0  0  0  0  0
   26.1767   24.6761   13.7346 C   0  0  0  0  0  0
   26.4267   24.0545   14.9628 C   0  0  0  0  0  0
   19.5169   21.0357   16.6453 S   0  0  0  0  0  0
   18.9896   22.3652   16.3541 O   0  0  0  0  0  0
   18.9945   20.3208   17.8060 O   0  0  0  0  0  0
   19.3326   20.0139   15.2078 C   0  0  0  0  0  0
   25.3419   24.7354   11.1239 S   0  0  0  0  0  0
   25.5666   26.1641   11.2696 O   0  0  0  0  0  0
   24.0720   24.2565   10.6039 O   0  0  0  0  0  0
   26.5491   24.1334   10.1132 N   0  0  0  0  0  0
   27.9481   24.3350   10.5107 C   0  0  0  0  0  0
   25.7962   20.7284   19.3531 H   0  0  0  0  0  0
   28.4265   21.0254   18.8058 H   0  0  0  0  0  0
   28.5679   22.0668   16.3271 H   0  0  0  0  0  0
   23.8511   19.7627   18.5454 H   0  0  0  0  0  0
   21.4185   19.5428   18.2560 H   0  0  0  0  0  0
   21.4532   22.8579   15.4789 H   0  0  0  0  0  0
   23.8887   23.0694   15.7644 H   0  0  0  0  0  0
   25.4217   20.8899   14.1433 H   0  0  0  0  0  0
   25.0010   21.9785   12.0042 H   0  0  0  0  0  0
   26.3976   25.7350   13.6155 H   0  0  0  0  0  0
   26.8756   24.6571   15.7477 H   0  0  0  0  0  0
   18.2647   19.8856   15.0185 H   0  0  0  0  0  0
   19.7959   19.0441   15.3985 H   0  0  0  0  0  0
   19.8041   20.5087   14.3565 H   0  0  0  0  0  0
   26.3354   23.1847    9.7879 H   0  0  0  0  0  0
   28.2290   23.6343   11.3009 H   0  0  0  0  0  0
   28.1270   25.3626   10.8368 H   0  0  0  0  0  0
   28.5883   24.1406    9.6451 H   0  0  0  0  0  0
  1  2  1  0  0  0
  1  5  1  0  0  0
  1  7  1  0  0  0
  2  3  2  0  0  0
  2  6  1  0  0  0
  3  4  1  0  0  0
  3 27  1  0  0  0
  4  5  2  0  0  0
  4 28  1  0  0  0
  5 29  1  0  0  0
  6  8  2  0  0  0
  6 12  1  0  0  0
  7 13  2  0  0  0
  7 17  1  0  0  0
  8  9  1  0  0  0
  8 30  1  0  0  0
  9 10  2  0  0  0
  9 31  1  0  0  0
 10 11  1  0  0  0
 10 18  1  0  0  0
 11 12  2  0  0  0
 11 32  1  0  0  0
 12 33  1  0  0  0
 13 14  1  0  0  0
 13 34  1  0  0  0
 14 15  2  0  0  0
 14 35  1  0  0  0
 15 16  1  0  0  0
 15 22  1  0  0  0
 16 17  2  0  0  0
 16 36  1  0  0  0
 17 37  1  0  0  0
 18 19  2  0  0  0
 18 20  2  0  0  0
 18 21  1  0  0  0
 21 38  1  0  0  0
 21 39  1  0  0  0
 21 40  1  0  0  0
 22 23  2  0  0  0
 22 24  2  0  0  0
 22 25  1  0  0  0
 25 26  1  0  0  0
 25 41  1  0  0  0
 26 42  1  0  0  0
 26 43  1  0  0  0
 26 44  1  0  0  0
M  END
>  <Name>
1-21

>  <Family>
A.1

>  <IC50_uM>
>100

>  <set>
1

$$$$
1-22
  Cerius2 12120216093D 1   1.00000                          
 Structure written by MMmdl.
 47 49  0  0  0  0  0  0  0  0999 V2000
   26.4145   22.0369   16.3898 N   0  0  0  0  0  0
   25.4998   21.5672   17.3428 C   0  0  0  0  0  0
   26.2274   21.1453   18.4486 C   0  0  0  0  0  0
   27.5968   21.2739   18.1565 C   0  0  0  0  0  0
   27.6863   21.7838   16.8838 C   0  0  0  0  0  0
   24.0505   21.4280   17.1627 C   0  0  0  0  0  0
   26.1540   22.6871   15.1399 C   0  0  0  0  0  0
   23.3346   20.4498   17.8687 C   0  0  0  0  0  0
   21.9524   20.3237   17.7045 C   0  0  0  0  0  0
   21.2810   21.1834   16.8315 C   0  0  0  0  0  0
   21.9751   22.1796   16.1410 C   0  0  0  0  0  0
   23.3580   22.3006   16.3109 C   0  0  0  0  0  0
   25.6510   21.9486   14.0560 C   0  0  0  0  0  0
   25.3899   22.5732   12.8310 C   0  0  0  0  0  0
   25.6332   23.9401   12.6828 C   0  0  0  0  0  0
   26.1714   24.6761   13.7402 C   0  0  0  0  0  0
   26.4279   24.0510   14.9651 C   0  0  0  0  0  0
   19.5208   21.0213   16.6373 S   0  0  0  0  0  0
   18.9721   22.3394   16.3336 O   0  0  0  0  0  0
   19.0123   20.3078   17.8046 O   0  0  0  0  0  0
   19.3483   19.9902   15.2047 C   0  0  0  0  0  0
   25.3371   24.7302   11.1183 S   0  0  0  0  0  0
   25.3723   26.1713   11.3139 O   0  0  0  0  0  0
   24.1555   24.1336   10.5162 O   0  0  0  0  0  0
   26.6880   24.3027   10.1621 N   0  0  0  0  0  0
   26.8029   22.8711    9.7904 C   0  0  0  0  0  0
   27.9930   24.8610   10.5923 C   0  0  0  0  0  0
   25.8013   20.7317   19.3564 H   0  0  0  0  0  0
   28.4319   21.0124   18.7960 H   0  0  0  0  0  0
   28.5687   22.0450   16.3140 H   0  0  0  0  0  0
   23.8480   19.7775   18.5547 H   0  0  0  0  0  0
   21.4154   19.5574   18.2591 H   0  0  0  0  0  0
   21.4589   22.8620   15.4695 H   0  0  0  0  0  0
   23.8919   23.0770   15.7647 H   0  0  0  0  0  0
   25.4167   20.8895   14.1433 H   0  0  0  0  0  0
   24.9908   21.9839   12.0078 H   0  0  0  0  0  0
   26.4014   25.7335   13.6252 H   0  0  0  0  0  0
   26.8838   24.6504   15.7481 H   0  0  0  0  0  0
   18.2819   19.8562   15.0117 H   0  0  0  0  0  0
   19.8144   19.0227   15.4016 H   0  0  0  0  0  0
   19.8209   20.4835   14.3535 H   0  0  0  0  0  0
   27.5061   22.7680    8.9576 H   0  0  0  0  0  0
   25.8427   22.4768    9.4466 H   0  0  0  0  0  0
   27.1666   22.2722   10.6297 H   0  0  0  0  0  0
   28.7281   24.7317    9.7909 H   0  0  0  0  0  0
   28.3628   24.3544   11.4880 H   0  0  0  0  0  0
   27.9142   25.9348   10.7823 H   0  0  0  0  0  0
  1  2  1  0  0  0
  1  5  1  0  0  0
  1  7  1  0  0  0
  2  3  2  0  0  0
  2  6  1  0  0  0
  3  4  1  0  0  0
  3 28  1  0  0  0
  4  5  2  0  0  0
  4 29  1  0  0  0
  5 30  1  0  0  0
  6  8  2  0  0  0
  6 12  1  0  0  0
  7 13  2  0  0  0
  7 17  1  0  0  0
  8  9  1  0  0  0
  8 31  1  0  0  0
  9 10  2  0  0  0
  9 32  1  0  0  0
 10 11  1  0  0  0
 10 18  1  0  0  0
 11 12  2  0  0  0
 11 33  1  0  0  0
 12 34  1  0  0  0
 13 14  1  0  0  0
 13 35  1  0  0  0
 14 15  2  0  0  0
 14 36  1  0  0  0
 15 16  1  0  0  0
 15 22  1  0  0  0
 16 17  2  0  0  0
 16 37  1  0  0  0
 17 38  1  0  0  0
 18 19  2  0  0  0
 18 20  2  0  0  0
 18 21  1  0  0  0
 21 39  1  0  0  0
 21 40  1  0  0  0
 21 41  1  0  0  0
 22 23  2  0  0  0
 22 24  2  0  0  0
 22 25  1  0  0  0
 25 26  1  0  0  0
 25 27  1  0  0  0
 26 42  1  0  0  0
 26 43  1  0  0  0
 26 44  1  0  0  0
 27 45  1  0  0  0
 27 46  1  0  0  0
 27 47  1  0  0  0
M  END
>  <Name>
1-22

>  <Family>
A.1

>  <IC50_uM>
>100

>  <set>
2

$$$$
1-26
  Cerius2 12120216093D 1   1.00000                          
 Structure written by MMmdl.
 45 47  0  0  0  0  0  0  0  0999 V2000
   26.4489   22.0561   16.4146 N   0  0  0  0  0  0
   25.5315   21.5429   17.3416 C   0  0  0  0  0  0
   26.2517   21.0306   18.4072 C   0  0  0  0  0  0
   27.6189   21.2173   18.1453 C   0  0  0  0  0  0
   27.7373   21.8834   16.9382 C   0  0  0  0  0  0
   24.0786   21.4473   17.1586 C   0  0  0  0  0  0
   26.1252   22.6675   15.1632 C   0  0  0  0  0  0
   23.4074   22.3003   16.2704 C   0  0  0  0  0  0
   22.0247   22.1961   16.0933 C   0  0  0  0  0  0
   21.3097   21.2309   16.8058 C   0  0  0  0  0  0
   21.9675   20.3574   17.6754 C   0  0  0  0  0  0
   23.3501   20.4672   17.8480 C   0  0  0  0  0  0
   25.5438   21.9069   14.1381 C   0  0  0  0  0  0
   25.2153   22.5096   12.9214 C   0  0  0  0  0  0
   25.4670   23.8636   12.7342 C   0  0  0  0  0  0
   26.0415   24.6299   13.7409 C   0  0  0  0  0  0
   26.3715   24.0337   14.9603 C   0  0  0  0  0  0
   19.5526   21.0795   16.5757 S   0  0  0  0  0  0
   19.0302   22.4022   16.2475 O   0  0  0  0  0  0
   19.0029   20.3844   17.7357 O   0  0  0  0  0  0
   19.4048   20.0288   15.1548 C   0  0  0  0  0  0
   25.1498   24.4384   11.5663 F   0  0  0  0  0  0
   28.9938   22.4115   16.2891 C   0  0  0  0  0  0
   30.0776   22.7940   17.2920 C   0  0  0  0  0  0
   31.2439   23.4264   16.5881 C   0  0  0  0  0  0
   31.5084   24.6206   16.5706 O   0  0  0  0  0  0
   32.0125   22.5231   15.9450 O   0  0  0  0  0  0
   25.8244   20.5407   19.2753 H   0  0  0  0  0  0
   28.4370   20.9224   18.7928 H   0  0  0  0  0  0
   23.9566   23.0529   15.7065 H   0  0  0  0  0  0
   21.5231   22.8705   15.4027 H   0  0  0  0  0  0
   21.4189   19.5942   18.2232 H   0  0  0  0  0  0
   23.8545   19.7857   18.5316 H   0  0  0  0  0  0
   25.2997   20.8565   14.2788 H   0  0  0  0  0  0
   24.7566   21.9291   12.1257 H   0  0  0  0  0  0
   26.2360   25.6855   13.5741 H   0  0  0  0  0  0
   26.8492   24.6444   15.7234 H   0  0  0  0  0  0
   18.3421   19.8867   14.9471 H   0  0  0  0  0  0
   19.8728   19.0671   15.3738 H   0  0  0  0  0  0
   19.8880   20.5111   14.3030 H   0  0  0  0  0  0
   28.7661   23.3000   15.6890 H   0  0  0  0  0  0
   29.3838   21.6478   15.6053 H   0  0  0  0  0  0
   30.4415   21.9284   17.8574 H   0  0  0  0  0  0
   29.6968   23.5125   18.0279 H   0  0  0  0  0  0
   32.7457   23.0353   15.5260 H   0  0  0  0  0  0
  1  2  1  0  0  0
  1  5  1  0  0  0
  1  7  1  0  0  0
  2  3  2  0  0  0
  2  6  1  0  0  0
  3  4  1  0  0  0
  3 28  1  0  0  0
  4  5  2  0  0  0
  4 29  1  0  0  0
  5 23  1  0  0  0
  6  8  2  0  0  0
  6 12  1  0  0  0
  7 13  2  0  0  0
  7 17  1  0  0  0
  8  9  1  0  0  0
  8 30  1  0  0  0
  9 10  2  0  0  0
  9 31  1  0  0  0
 10 11  1  0  0  0
 10 18  1  0  0  0
 11 12  2  0  0  0
 11 32  1  0  0  0
 12 33  1  0  0  0
 13 14  1  0  0  0
 13 34  1  0  0  0
 14 15  2  0  0  0
 14 35  1  0  0  0
 15 16  1  0  0  0
 15 22  1  0  0  0
 16 17  2  0  0  0
 16 36  1  0  0  0
 17 37  1  0  0  0
 18 19  2  0  0  0
 18 20  2  0  0  0
 18 21  1  0  0  0
 21 38  1  0  0  0
 21 39  1  0  0  0
 21 40  1  0  0  0
 23 24  1  0  0  0
 23 41  1  0  0  0
 23 42  1  0  0  0
 24 25  1  0  0  0
 24 43  1  0  0  0
 24 44  1  0  0  0
 25 26  2  0  0  0
 25 27  1  0  0  0
 27 45  1  0  0  0
M  END
>  <Name>
1-26

>  <Family>
A.1

>  <IC50_uM>
>100

>  <set>
2

$$$$
1-27
  Cerius2 12120216093D 1   1.00000                          
 Structure written by MMmdl.
 39 41  0  0  0  0  0  0  0  0999 V2000
   26.4532   22.0463   16.4092 N   0  0  0  0  0  0
   25.5356   21.5393   17.3409 C   0  0  0  0  0  0
   26.2556   21.0537   18.4199 C   0  0  0  0  0  0
   27.6213   21.2498   18.1574 C   0  0  0  0  0  0
   27.7320   21.8815   16.9311 C   0  0  0  0  0  0
   24.0827   21.4425   17.1538 C   0  0  0  0  0  0
   26.1203   22.6601   15.1642 C   0  0  0  0  0  0
   23.4121   22.2979   16.2674 C   0  0  0  0  0  0
   22.0292   22.1961   16.0907 C   0  0  0  0  0  0
   21.3128   21.2308   16.8018 C   0  0  0  0  0  0
   21.9699   20.3543   17.6686 C   0  0  0  0  0  0
   23.3529   20.4620   17.8409 C   0  0  0  0  0  0
   25.5315   21.9062   14.1398 C   0  0  0  0  0  0
   25.2027   22.5176   12.9274 C   0  0  0  0  0  0
   25.4599   23.8716   12.7459 C   0  0  0  0  0  0
   26.0381   24.6314   13.7559 C   0  0  0  0  0  0
   26.3685   24.0277   14.9709 C   0  0  0  0  0  0
   19.5552   21.0863   16.5727 S   0  0  0  0  0  0
   19.0332   22.4145   16.2659 O   0  0  0  0  0  0
   19.0072   20.3736   17.7226 O   0  0  0  0  0  0
   19.4037   20.0589   15.1352 C   0  0  0  0  0  0
   25.1421   24.4533   11.5817 F   0  0  0  0  0  0
   28.9647   22.4005   16.2941 C   0  0  0  0  0  0
   29.4332   21.5779   15.3173 F   0  0  0  0  0  0
   29.9837   22.5230   17.1947 F   0  0  0  0  0  0
   28.8123   23.6343   15.7427 F   0  0  0  0  0  0
   25.8294   20.5819   19.2988 H   0  0  0  0  0  0
   28.4497   20.9893   18.8078 H   0  0  0  0  0  0
   23.9611   23.0508   15.7038 H   0  0  0  0  0  0
   21.5279   22.8726   15.4019 H   0  0  0  0  0  0
   21.4207   19.5910   18.2156 H   0  0  0  0  0  0
   23.8557   19.7786   18.5239 H   0  0  0  0  0  0
   25.2715   20.8595   14.2758 H   0  0  0  0  0  0
   24.7367   21.9443   12.1307 H   0  0  0  0  0  0
   26.2343   25.6876   13.5946 H   0  0  0  0  0  0
   26.8454   24.6325   15.7396 H   0  0  0  0  0  0
   18.3404   19.9186   14.9299 H   0  0  0  0  0  0
   19.8742   19.0946   15.3359 H   0  0  0  0  0  0
   19.8825   20.5566   14.2898 H   0  0  0  0  0  0
  1  2  1  0  0  0
  1  5  1  0  0  0
  1  7  1  0  0  0
  2  3  2  0  0  0
  2  6  1  0  0  0
  3  4  1  0  0  0
  3 27  1  0  0  0
  4  5  2  0  0  0
  4 28  1  0  0  0
  5 23  1  0  0  0
  6  8  2  0  0  0
  6 12  1  0  0  0
  7 13  2  0  0  0
  7 17  1  0  0  0
  8  9  1  0  0  0
  8 29  1  0  0  0
  9 10  2  0  0  0
  9 30  1  0  0  0
 10 11  1  0  0  0
 10 18  1  0  0  0
 11 12  2  0  0  0
 11 31  1  0  0  0
 12 32  1  0  0  0
 13 14  1  0  0  0
 13 33  1  0  0  0
 14 15  2  0  0  0
 14 34  1  0  0  0
 15 16  1  0  0  0
 15 22  1  0  0  0
 16 17  2  0  0  0
 16 35  1  0  0  0
 17 36  1  0  0  0
 18 19  2  0  0  0
 18 20  2  0  0  0
 18 21  1  0  0  0
 21 37  1  0  0  0
 21 38  1  0  0  0
 21 39  1  0  0  0
 23 24  1  0  0  0
 23 25  1  0  0  0
 23 26  1  0  0  0
M  END
>  <Name>
1-27

>  <Family>
A.1

>  <IC50_uM>
>100

>  <set>
2

$$$$
1-28
  Cerius2 12120216093D 1   1.00000                          
 Structure written by MMmdl.
 44 46  0  0  0  0  0  0  0  0999 V2000
   26.4473   22.0588   16.4178 N   0  0  0  0  0  0
   25.5313   21.5433   17.3381 C   0  0  0  0  0  0
   26.2532   21.0212   18.3970 C   0  0  0  0  0  0
   27.6391   21.2004   18.1538 C   0  0  0  0  0  0
   27.7337   21.8933   16.9455 C   0  0  0  0  0  0
   24.0782   21.4472   17.1556 C   0  0  0  0  0  0
   26.1266   22.6681   15.1646 C   0  0  0  0  0  0
   23.4058   22.2998   16.2679 C   0  0  0  0  0  0
   22.0225   22.1968   16.0939 C   0  0  0  0  0  0
   21.3082   21.2318   16.8076 C   0  0  0  0  0  0
   21.9678   20.3573   17.6751 C   0  0  0  0  0  0
   23.3509   20.4669   17.8456 C   0  0  0  0  0  0
   25.5486   21.9039   14.1397 C   0  0  0  0  0  0
   25.2225   22.5035   12.9211 C   0  0  0  0  0  0
   25.4732   23.8573   12.7313 C   0  0  0  0  0  0
   26.0437   24.6270   13.7380 C   0  0  0  0  0  0
   26.3719   24.0341   14.9593 C   0  0  0  0  0  0
   19.5505   21.0807   16.5814 S   0  0  0  0  0  0
   19.0228   22.4104   16.2917 O   0  0  0  0  0  0
   19.0081   20.3525   17.7243 O   0  0  0  0  0  0
   19.3982   20.0686   15.1333 C   0  0  0  0  0  0
   25.1591   24.4292   11.5612 F   0  0  0  0  0  0
   28.9615   22.4696   16.3053 C   0  0  0  0  0  0
   28.7618   20.7634   19.0109 C   0  0  0  0  0  0
   28.5514   20.1512   20.0683 O   0  0  0  0  0  0
   30.1810   21.1149   18.5544 C   0  0  0  0  0  0
   30.4178   22.4644   18.5204 F   0  0  0  0  0  0
   31.1523   20.5961   19.3730 F   0  0  0  0  0  0
   30.4790   20.6525   17.2992 F   0  0  0  0  0  0
   25.8020   20.5210   19.2477 H   0  0  0  0  0  0
   23.9540   23.0521   15.7026 H   0  0  0  0  0  0
   21.5200   22.8719   15.4047 H   0  0  0  0  0  0
   21.4203   19.5935   18.2233 H   0  0  0  0  0  0
   23.8558   19.7848   18.5283 H   0  0  0  0  0  0
   25.3080   20.8526   14.2825 H   0  0  0  0  0  0
   24.7667   21.9208   12.1254 H   0  0  0  0  0  0
   26.2368   25.6826   13.5697 H   0  0  0  0  0  0
   26.8470   24.6472   15.7218 H   0  0  0  0  0  0
   18.3346   19.9240   14.9312 H   0  0  0  0  0  0
   19.8750   19.1047   15.3213 H   0  0  0  0  0  0
   19.8699   20.5780   14.2910 H   0  0  0  0  0  0
   29.6791   22.7951   17.0649 H   0  0  0  0  0  0
   28.7421   23.3593   15.7083 H   0  0  0  0  0  0
   29.4490   21.7216   15.6731 H   0  0  0  0  0  0
  1  2  1  0  0  0
  1  5  1  0  0  0
  1  7  1  0  0  0
  2  3  2  0  0  0
  2  6  1  0  0  0
  3  4  1  0  0  0
  3 30  1  0  0  0
  4  5  2  0  0  0
  4 24  1  0  0  0
  5 23  1  0  0  0
  6  8  2  0  0  0
  6 12  1  0  0  0
  7 13  2  0  0  0
  7 17  1  0  0  0
  8  9  1  0  0  0
  8 31  1  0  0  0
  9 10  2  0  0  0
  9 32  1  0  0  0
 10 11  1  0  0  0
 10 18  1  0  0  0
 11 12  2  0  0  0
 11 33  1  0  0  0
 12 34  1  0  0  0
 13 14  1  0  0  0
 13 35  1  0  0  0
 14 15  2  0  0  0
 14 36  1  0  0  0
 15 16  1  0  0  0
 15 22  1  0  0  0
 16 17  2  0  0  0
 16 37  1  0  0  0
 17 38  1  0  0  0
 18 19  2  0  0  0
 18 20  2  0  0  0
 18 21  1  0  0  0
 21 39  1  0  0  0
 21 40  1  0  0  0
 21 41  1  0  0  0
 23 42  1  0  0  0
 23 43  1  0  0  0
 23 44  1  0  0  0
 24 25  2  0  0  0
 24 26  1  0  0  0
 26 27  1  0  0  0
 26 28  1  0  0  0
 26 29  1  0  0  0
M  END
>  <Name>
1-28

>  <Family>
A.1

>  <IC50_uM>
0.120000

>  <set>
1

$$$$
1-29
  Cerius2 12120216093D 1   1.00000                          
 Structure written by MMmdl.
 44 46  0  0  0  0  0  0  0  0999 V2000
   26.4473   22.0595   16.4184 N   0  0  0  0  0  0
   25.5307   21.5430   17.3379 C   0  0  0  0  0  0
   26.2529   21.0205   18.3957 C   0  0  0  0  0  0
   27.6381   21.2011   18.1514 C   0  0  0  0  0  0
   27.7335   21.8945   16.9457 C   0  0  0  0  0  0
   24.0780   21.4470   17.1553 C   0  0  0  0  0  0
   26.1269   22.6685   15.1651 C   0  0  0  0  0  0
   23.4053   22.3001   16.2683 C   0  0  0  0  0  0
   22.0222   22.1958   16.0937 C   0  0  0  0  0  0
   21.3084   21.2306   16.8077 C   0  0  0  0  0  0
   21.9682   20.3561   17.6748 C   0  0  0  0  0  0
   23.3511   20.4660   17.8450 C   0  0  0  0  0  0
   25.5494   21.9035   14.1403 C   0  0  0  0  0  0
   25.2225   22.5026   12.9214 C   0  0  0  0  0  0
   25.4729   23.8564   12.7313 C   0  0  0  0  0  0
   26.0438   24.6266   13.7373 C   0  0  0  0  0  0
   26.3721   24.0346   14.9591 C   0  0  0  0  0  0
   19.5504   21.0824   16.5824 S   0  0  0  0  0  0
   19.0246   22.4107   16.2830 O   0  0  0  0  0  0
   19.0071   20.3633   17.7304 O   0  0  0  0  0  0
   19.3978   20.0614   15.1404 C   0  0  0  0  0  0
   25.1586   24.4275   11.5609 F   0  0  0  0  0  0
   28.9620   22.4699   16.3088 C   0  0  0  0  0  0
   28.7511   20.7644   19.0098 C   0  0  0  0  0  0
   28.5654   20.1518   20.0663 O   0  0  0  0  0  0
   30.1571   21.1039   18.5764 C   0  0  0  0  0  0
   25.8094   20.5190   19.2493 H   0  0  0  0  0  0
   23.9531   23.0537   15.7045 H   0  0  0  0  0  0
   21.5190   22.8706   15.4047 H   0  0  0  0  0  0
   21.4213   19.5925   18.2236 H   0  0  0  0  0  0
   23.8565   19.7841   18.5275 H   0  0  0  0  0  0
   25.3097   20.8521   14.2833 H   0  0  0  0  0  0
   24.7667   21.9191   12.1264 H   0  0  0  0  0  0
   26.2376   25.6820   13.5679 H   0  0  0  0  0  0
   26.8475   24.6479   15.7213 H   0  0  0  0  0  0
   18.3343   19.9178   14.9378 H   0  0  0  0  0  0
   19.8723   19.0980   15.3351 H   0  0  0  0  0  0
   19.8719   20.5648   14.2958 H   0  0  0  0  0  0
   29.6819   22.7884   17.0694 H   0  0  0  0  0  0
   28.7450   23.3633   15.7164 H   0  0  0  0  0  0
   29.4472   21.7241   15.6720 H   0  0  0  0  0  0
   30.8717   20.6656   19.2797 H   0  0  0  0  0  0
   30.2952   22.1883   18.5713 H   0  0  0  0  0  0
   30.3548   20.6904   17.5838 H   0  0  0  0  0  0
  1  2  1  0  0  0
  1  5  1  0  0  0
  1  7  1  0  0  0
  2  3  2  0  0  0
  2  6  1  0  0  0
  3  4  1  0  0  0
  3 27  1  0  0  0
  4  5  2  0  0  0
  4 24  1  0  0  0
  5 23  1  0  0  0
  6  8  2  0  0  0
  6 12  1  0  0  0
  7 13  2  0  0  0
  7 17  1  0  0  0
  8  9  1  0  0  0
  8 28  1  0  0  0
  9 10  2  0  0  0
  9 29  1  0  0  0
 10 11  1  0  0  0
 10 18  1  0  0  0
 11 12  2  0  0  0
 11 30  1  0  0  0
 12 31  1  0  0  0
 13 14  1  0  0  0
 13 32  1  0  0  0
 14 15  2  0  0  0
 14 33  1  0  0  0
 15 16  1  0  0  0
 15 22  1  0  0  0
 16 17  2  0  0  0
 16 34  1  0  0  0
 17 35  1  0  0  0
 18 19  2  0  0  0
 18 20  2  0  0  0
 18 21  1  0  0  0
 21 36  1  0  0  0
 21 37  1  0  0  0
 21 38  1  0  0  0
 23 39  1  0  0  0
 23 40  1  0  0  0
 23 41  1  0  0  0
 24 25  2  0  0  0
 24 26  1  0  0  0
 26 42  1  0  0  0
 26 43  1  0  0  0
 26 44  1  0  0  0
M  END
>  <Name>
1-29

>  <Family>
A.1

>  <IC50_uM>
1.610000

>  <set>
1

$$$$
1-30
  Cerius2 12120216093D 1   1.00000                          
 Structure written by MMmdl.
 51 54  0  0  0  0  0  0  0  0999 V2000
   26.4454   22.0514   16.4134 N   0  0  0  0  0  0
   25.5289   21.5409   17.3376 C   0  0  0  0  0  0
   26.2513   21.0373   18.4041 C   0  0  0  0  0  0
   27.6355   21.1931   18.1430 C   0  0  0  0  0  0
   27.7328   21.8898   16.9409 C   0  0  0  0  0  0
   24.0762   21.4434   17.1562 C   0  0  0  0  0  0
   26.1274   22.6679   15.1625 C   0  0  0  0  0  0
   23.4030   22.2975   16.2707 C   0  0  0  0  0  0
   22.0198   22.1936   16.0969 C   0  0  0  0  0  0
   21.3063   21.2277   16.8101 C   0  0  0  0  0  0
   21.9663   20.3526   17.6762 C   0  0  0  0  0  0
   23.3494   20.4623   17.8457 C   0  0  0  0  0  0
   25.5545   21.9080   14.1318 C   0  0  0  0  0  0
   25.2340   22.5119   12.9138 C   0  0  0  0  0  0
   25.4861   23.8662   12.7299 C   0  0  0  0  0  0
   26.0527   24.6318   13.7416 C   0  0  0  0  0  0
   26.3746   24.0345   14.9626 C   0  0  0  0  0  0
   19.5481   21.0808   16.5854 S   0  0  0  0  0  0
   19.0218   22.4103   16.2918 O   0  0  0  0  0  0
   19.0057   20.3570   17.7309 O   0  0  0  0  0  0
   19.3945   20.0660   15.1394 C   0  0  0  0  0  0
   25.1777   24.4420   11.5603 F   0  0  0  0  0  0
   28.9535   22.5023   16.3233 C   0  0  0  0  0  0
   28.7148   20.7701   19.0377 C   0  0  0  0  0  0
   28.4791   20.1542   20.0786 O   0  0  0  0  0  0
   30.1312   21.0488   18.6746 C   0  0  0  0  0  0
   31.0446   21.3432   19.6957 C   0  0  0  0  0  0
   32.3829   21.5933   19.3869 C   0  0  0  0  0  0
   32.8151   21.5386   18.0619 C   0  0  0  0  0  0
   31.9137   21.2280   17.0437 C   0  0  0  0  0  0
   30.5739   20.9772   17.3471 C   0  0  0  0  0  0
   25.8208   20.5535   19.2746 H   0  0  0  0  0  0
   23.9505   23.0515   15.7071 H   0  0  0  0  0  0
   21.5162   22.8694   15.4093 H   0  0  0  0  0  0
   21.4194   19.5888   18.2250 H   0  0  0  0  0  0
   23.8550   19.7805   18.5280 H   0  0  0  0  0  0
   25.3105   20.8571   14.2693 H   0  0  0  0  0  0
   24.7815   21.9320   12.1142 H   0  0  0  0  0  0
   26.2484   25.6877   13.5772 H   0  0  0  0  0  0
   26.8481   24.6451   15.7281 H   0  0  0  0  0  0
   18.3310   19.9239   14.9364 H   0  0  0  0  0  0
   19.8682   19.1012   15.3300 H   0  0  0  0  0  0
   19.8690   20.5724   14.2970 H   0  0  0  0  0  0
   29.7052   22.7254   17.0874 H   0  0  0  0  0  0
   28.7281   23.4551   15.8344 H   0  0  0  0  0  0
   29.4041   21.8232   15.5940 H   0  0  0  0  0  0
   30.7182   21.3873   20.7332 H   0  0  0  0  0  0
   33.0896   21.8297   20.1805 H   0  0  0  0  0  0
   33.8593   21.7333   17.8225 H   0  0  0  0  0  0
   32.2560   21.1771   16.0115 H   0  0  0  0  0  0
   29.8900   20.7207   16.5407 H   0  0  0  0  0  0
  1  2  1  0  0  0
  1  5  1  0  0  0
  1  7  1  0  0  0
  2  3  2  0  0  0
  2  6  1  0  0  0
  3  4  1  0  0  0
  3 32  1  0  0  0
  4  5  2  0  0  0
  4 24  1  0  0  0
  5 23  1  0  0  0
  6  8  2  0  0  0
  6 12  1  0  0  0
  7 13  2  0  0  0
  7 17  1  0  0  0
  8  9  1  0  0  0
  8 33  1  0  0  0
  9 10  2  0  0  0
  9 34  1  0  0  0
 10 11  1  0  0  0
 10 18  1  0  0  0
 11 12  2  0  0  0
 11 35  1  0  0  0
 12 36  1  0  0  0
 13 14  1  0  0  0
 13 37  1  0  0  0
 14 15  2  0  0  0
 14 38  1  0  0  0
 15 16  1  0  0  0
 15 22  1  0  0  0
 16 17  2  0  0  0
 16 39  1  0  0  0
 17 40  1  0  0  0
 18 19  2  0  0  0
 18 20  2  0  0  0
 18 21  1  0  0  0
 21 41  1  0  0  0
 21 42  1  0  0  0
 21 43  1  0  0  0
 23 44  1  0  0  0
 23 45  1  0  0  0
 23 46  1  0  0  0
 24 25  2  0  0  0
 24 26  1  0  0  0
 26 27  2  0  0  0
 26 31  1  0  0  0
 27 28  1  0  0  0
 27 47  1  0  0  0
 28 29  2  0  0  0
 28 48  1  0  0  0
 29 30  1  0  0  0
 29 49  1  0  0  0
 30 31  2  0  0  0
 30 50  1  0  0  0
 31 51  1  0  0  0
M  END
>  <Name>
1-30

>  <Family>
A.1

>  <IC50_uM>
1.020000

>  <set>
1

$$$$
1-31
  Cerius2 12120216093D 1   1.00000                          
 Structure written by MMmdl.
 45 47  0  0  0  0  0  0  0  0999 V2000
   26.4494   22.0529   16.4150 N   0  0  0  0  0  0
   25.5318   21.5434   17.3421 C   0  0  0  0  0  0
   26.2510   21.0347   18.4098 C   0  0  0  0  0  0
   27.6265   21.2204   18.1508 C   0  0  0  0  0  0
   27.7413   21.8859   16.9339 C   0  0  0  0  0  0
   24.0790   21.4459   17.1567 C   0  0  0  0  0  0
   26.1233   22.6661   15.1647 C   0  0  0  0  0  0
   23.4075   22.2994   16.2689 C   0  0  0  0  0  0
   22.0246   22.1961   16.0929 C   0  0  0  0  0  0
   21.3096   21.2305   16.8051 C   0  0  0  0  0  0
   21.9679   20.3555   17.6725 C   0  0  0  0  0  0
   23.3507   20.4649   17.8446 C   0  0  0  0  0  0
   25.5423   21.9059   14.1391 C   0  0  0  0  0  0
   25.2131   22.5099   12.9234 C   0  0  0  0  0  0
   25.4653   23.8640   12.7372 C   0  0  0  0  0  0
   26.0406   24.6293   13.7443 C   0  0  0  0  0  0
   26.3702   24.0324   14.9634 C   0  0  0  0  0  0
   19.5521   21.0820   16.5757 S   0  0  0  0  0  0
   19.0267   22.4106   16.2776 O   0  0  0  0  0  0
   19.0063   20.3608   17.7215 O   0  0  0  0  0  0
   19.4018   20.0625   15.1326 C   0  0  0  0  0  0
   25.1481   24.4398   11.5699 F   0  0  0  0  0  0
   28.9704   22.4298   16.2707 C   0  0  0  0  0  0
   28.8944   20.6989   19.2381 S   0  0  0  0  0  0
   30.0119   20.3861   18.3465 O   0  0  0  0  0  0
   28.2723   19.6070   19.9901 O   0  0  0  0  0  0
   29.2008   22.1669   20.2717 C   0  0  0  0  0  0
   29.6072   23.2624   19.5503 F   0  0  0  0  0  0
   28.0946   22.5708   20.9785 F   0  0  0  0  0  0
   30.1832   21.9556   21.2097 F   0  0  0  0  0  0
   25.8177   20.5437   19.2747 H   0  0  0  0  0  0
   23.9561   23.0524   15.7050 H   0  0  0  0  0  0
   21.5225   22.8718   15.4039 H   0  0  0  0  0  0
   21.4201   19.5913   18.2198 H   0  0  0  0  0  0
   23.8546   19.7825   18.5277 H   0  0  0  0  0  0
   25.2989   20.8551   14.2788 H   0  0  0  0  0  0
   24.7535   21.9306   12.1274 H   0  0  0  0  0  0
   26.2363   25.6849   13.5780 H   0  0  0  0  0  0
   26.8479   24.6422   15.7270 H   0  0  0  0  0  0
   18.3386   19.9255   14.9245 H   0  0  0  0  0  0
   19.8697   19.0960   15.3292 H   0  0  0  0  0  0
   19.8833   20.5634   14.2908 H   0  0  0  0  0  0
   29.7348   22.6755   17.0147 H   0  0  0  0  0  0
   28.7691   23.3578   15.7277 H   0  0  0  0  0  0
   29.3951   21.6911   15.5847 H   0  0  0  0  0  0
  1  2  1  0  0  0
  1  5  1  0  0  0
  1  7  1  0  0  0
  2  3  2  0  0  0
  2  6  1  0  0  0
  3  4  1  0  0  0
  3 31  1  0  0  0
  4  5  2  0  0  0
  4 24  1  0  0  0
  5 23  1  0  0  0
  6  8  2  0  0  0
  6 12  1  0  0  0
  7 13  2  0  0  0
  7 17  1  0  0  0
  8  9  1  0  0  0
  8 32  1  0  0  0
  9 10  2  0  0  0
  9 33  1  0  0  0
 10 11  1  0  0  0
 10 18  1  0  0  0
 11 12  2  0  0  0
 11 34  1  0  0  0
 12 35  1  0  0  0
 13 14  1  0  0  0
 13 36  1  0  0  0
 14 15  2  0  0  0
 14 37  1  0  0  0
 15 16  1  0  0  0
 15 22  1  0  0  0
 16 17  2  0  0  0
 16 38  1  0  0  0
 17 39  1  0  0  0
 18 19  2  0  0  0
 18 20  2  0  0  0
 18 21  1  0  0  0
 21 40  1  0  0  0
 21 41  1  0  0  0
 21 42  1  0  0  0
 23 43  1  0  0  0
 23 44  1  0  0  0
 23 45  1  0  0  0
 24 25  2  0  0  0
 24 26  2  0  0  0
 24 27  1  0  0  0
 27 28  1  0  0  0
 27 29  1  0  0  0
 27 30  1  0  0  0
M  END
>  <Name>
1-31

>  <Family>
A.1

>  <IC50_uM>
0.060000

>  <set>
2

$$$$
1-32
  Cerius2 12120216093D 1   1.00000                          
 Structure written by MMmdl.
 41 43  0  0  0  0  0  0  0  0999 V2000
   26.4475   22.0582   16.4174 N   0  0  0  0  0  0
   25.5305   21.5433   17.3395 C   0  0  0  0  0  0
   26.2524   21.0265   18.4007 C   0  0  0  0  0  0
   27.6332   21.2095   18.1512 C   0  0  0  0  0  0
   27.7347   21.8904   16.9421 C   0  0  0  0  0  0
   24.0781   21.4453   17.1555 C   0  0  0  0  0  0
   26.1265   22.6684   15.1645 C   0  0  0  0  0  0
   23.4058   22.2990   16.2690 C   0  0  0  0  0  0
   22.0226   22.1956   16.0944 C   0  0  0  0  0  0
   21.3085   21.2298   16.8072 C   0  0  0  0  0  0
   21.9680   20.3541   17.6733 C   0  0  0  0  0  0
   23.3510   20.4635   17.8438 C   0  0  0  0  0  0
   25.5486   21.9049   14.1394 C   0  0  0  0  0  0
   25.2215   22.5048   12.9211 C   0  0  0  0  0  0
   25.4722   23.8586   12.7318 C   0  0  0  0  0  0
   26.0437   24.6277   13.7384 C   0  0  0  0  0  0
   26.3720   24.0345   14.9597 C   0  0  0  0  0  0
   19.5506   21.0832   16.5815 S   0  0  0  0  0  0
   19.0256   22.4124   16.2846 O   0  0  0  0  0  0
   19.0068   20.3623   17.7282 O   0  0  0  0  0  0
   19.3976   20.0647   15.1378 C   0  0  0  0  0  0
   25.1575   24.4306   11.5620 F   0  0  0  0  0  0
   28.9675   22.4494   16.3009 C   0  0  0  0  0  0
   28.7154   20.7748   19.0269 C   0  0  0  0  0  0
   28.5585   20.1726   20.0900 O   0  0  0  0  0  0
   25.8185   20.5286   19.2617 H   0  0  0  0  0  0
   23.9537   23.0526   15.7052 H   0  0  0  0  0  0
   21.5198   22.8717   15.4064 H   0  0  0  0  0  0
   21.4205   19.5899   18.2209 H   0  0  0  0  0  0
   23.8560   19.7807   18.5257 H   0  0  0  0  0  0
   25.3073   20.8538   14.2814 H   0  0  0  0  0  0
   24.7651   21.9220   12.1257 H   0  0  0  0  0  0
   26.2376   25.6832   13.5698 H   0  0  0  0  0  0
   26.8477   24.6471   15.7224 H   0  0  0  0  0  0
   18.3341   19.9224   14.9347 H   0  0  0  0  0  0
   19.8714   19.1006   15.3310 H   0  0  0  0  0  0
   19.8724   20.5694   14.2943 H   0  0  0  0  0  0
   29.7048   22.7359   17.0572 H   0  0  0  0  0  0
   28.7609   23.3580   15.7280 H   0  0  0  0  0  0
   29.4284   21.7050   15.6449 H   0  0  0  0  0  0
   29.7292   21.0348   18.6762 H   0  0  0  0  0  0
  1  2  1  0  0  0
  1  5  1  0  0  0
  1  7  1  0  0  0
  2  3  2  0  0  0
  2  6  1  0  0  0
  3  4  1  0  0  0
  3 26  1  0  0  0
  4  5  2  0  0  0
  4 24  1  0  0  0
  5 23  1  0  0  0
  6  8  2  0  0  0
  6 12  1  0  0  0
  7 13  2  0  0  0
  7 17  1  0  0  0
  8  9  1  0  0  0
  8 27  1  0  0  0
  9 10  2  0  0  0
  9 28  1  0  0  0
 10 11  1  0  0  0
 10 18  1  0  0  0
 11 12  2  0  0  0
 11 29  1  0  0  0
 12 30  1  0  0  0
 13 14  1  0  0  0
 13 31  1  0  0  0
 14 15  2  0  0  0
 14 32  1  0  0  0
 15 16  1  0  0  0
 15 22  1  0  0  0
 16 17  2  0  0  0
 16 33  1  0  0  0
 17 34  1  0  0  0
 18 19  2  0  0  0
 18 20  2  0  0  0
 18 21  1  0  0  0
 21 35  1  0  0  0
 21 36  1  0  0  0
 21 37  1  0  0  0
 23 38  1  0  0  0
 23 39  1  0  0  0
 23 40  1  0  0  0
 24 25  2  0  0  0
 24 41  1  0  0  0
M  END
>  <Name>
1-32

>  <Family>
A.1

>  <IC50_uM>
3.230000

>  <set>
2

$$$$
1-33
  Cerius2 12120216093D 1   1.00000                          
 Structure written by MMmdl.
 40 42  0  0  0  0  0  0  0  0999 V2000
   26.4478   22.0473   16.4095 N   0  0  0  0  0  0
   25.5287   21.5451   17.3412 C   0  0  0  0  0  0
   26.2480   21.0560   18.4194 C   0  0  0  0  0  0
   27.6181   21.2399   18.1571 C   0  0  0  0  0  0
   27.7353   21.8685   16.9280 C   0  0  0  0  0  0
   24.0761   21.4463   17.1571 C   0  0  0  0  0  0
   26.1267   22.6659   15.1609 C   0  0  0  0  0  0
   23.4024   22.2979   16.2693 C   0  0  0  0  0  0
   22.0194   22.1928   16.0949 C   0  0  0  0  0  0
   21.3067   21.2265   16.8080 C   0  0  0  0  0  0
   21.9671   20.3528   17.6753 C   0  0  0  0  0  0
   23.3498   20.4645   17.8462 C   0  0  0  0  0  0
   25.5501   21.9126   14.1280 C   0  0  0  0  0  0
   25.2286   22.5231   12.9133 C   0  0  0  0  0  0
   25.4840   23.8775   12.7347 C   0  0  0  0  0  0
   26.0550   24.6367   13.7489 C   0  0  0  0  0  0
   26.3767   24.0331   14.9667 C   0  0  0  0  0  0
   19.5491   21.0736   16.5835 S   0  0  0  0  0  0
   19.0171   22.4057   16.3138 O   0  0  0  0  0  0
   19.0111   20.3275   17.7169 O   0  0  0  0  0  0
   19.3979   20.0817   15.1214 C   0  0  0  0  0  0
   25.1742   24.4596   11.5687 F   0  0  0  0  0  0
   28.9832   22.3698   16.2728 C   0  0  0  0  0  0
   28.6976   20.8640   19.0214 C   0  0  0  0  0  0
   29.5751   20.5593   19.7227 N   0  0  0  0  0  0
   25.8163   20.5844   19.2956 H   0  0  0  0  0  0
   23.9489   23.0514   15.7039 H   0  0  0  0  0  0
   21.5156   22.8680   15.4067 H   0  0  0  0  0  0
   21.4205   19.5885   18.2235 H   0  0  0  0  0  0
   23.8549   19.7832   18.5294 H   0  0  0  0  0  0
   25.3012   20.8625   14.2604 H   0  0  0  0  0  0
   24.7719   21.9483   12.1124 H   0  0  0  0  0  0
   26.2532   25.6927   13.5883 H   0  0  0  0  0  0
   26.8516   24.6388   15.7354 H   0  0  0  0  0  0
   18.3345   19.9381   14.9182 H   0  0  0  0  0  0
   19.8768   19.1163   15.2958 H   0  0  0  0  0  0
   19.8683   20.6038   14.2862 H   0  0  0  0  0  0
   29.7709   22.5411   17.0144 H   0  0  0  0  0  0
   28.8222   23.3259   15.7659 H   0  0  0  0  0  0
   29.3624   21.6362   15.5553 H   0  0  0  0  0  0
  1  2  1  0  0  0
  1  5  1  0  0  0
  1  7  1  0  0  0
  2  3  2  0  0  0
  2  6  1  0  0  0
  3  4  1  0  0  0
  3 26  1  0  0  0
  4  5  2  0  0  0
  4 24  1  0  0  0
  5 23  1  0  0  0
  6  8  2  0  0  0
  6 12  1  0  0  0
  7 13  2  0  0  0
  7 17  1  0  0  0
  8  9  1  0  0  0
  8 27  1  0  0  0
  9 10  2  0  0  0
  9 28  1  0  0  0
 10 11  1  0  0  0
 10 18  1  0  0  0
 11 12  2  0  0  0
 11 29  1  0  0  0
 12 30  1  0  0  0
 13 14  1  0  0  0
 13 31  1  0  0  0
 14 15  2  0  0  0
 14 32  1  0  0  0
 15 16  1  0  0  0
 15 22  1  0  0  0
 16 17  2  0  0  0
 16 33  1  0  0  0
 17 34  1  0  0  0
 18 19  2  0  0  0
 18 20  2  0  0  0
 18 21  1  0  0  0
 21 35  1  0  0  0
 21 36  1  0  0  0
 21 37  1  0  0  0
 23 38  1  0  0  0
 23 39  1  0  0  0
 23 40  1  0  0  0
 24 25  3  0  0  0
M  END
>  <Name>
1-33

>  <Family>
A.1

>  <IC50_uM>
0.750000

>  <set>
2

$$$$
1-34
  Cerius2 12120216093D 1   1.00000                          
 Structure written by MMmdl.
 39 41  0  0  0  0  0  0  0  0999 V2000
   26.4488   22.0479   16.4095 N   0  0  0  0  0  0
   25.5296   21.5460   17.3443 C   0  0  0  0  0  0
   26.2493   21.0539   18.4214 C   0  0  0  0  0  0
   27.6068   21.2397   18.1432 C   0  0  0  0  0  0
   27.7384   21.8667   16.9244 C   0  0  0  0  0  0
   24.0769   21.4470   17.1603 C   0  0  0  0  0  0
   26.1250   22.6659   15.1612 C   0  0  0  0  0  0
   23.4043   22.2994   16.2726 C   0  0  0  0  0  0
   22.0216   22.1934   16.0958 C   0  0  0  0  0  0
   21.3077   21.2270   16.8080 C   0  0  0  0  0  0
   21.9671   20.3537   17.6763 C   0  0  0  0  0  0
   23.3498   20.4653   17.8487 C   0  0  0  0  0  0
   25.5456   21.9122   14.1299 C   0  0  0  0  0  0
   25.2220   22.5224   12.9155 C   0  0  0  0  0  0
   25.4774   23.8765   12.7360 C   0  0  0  0  0  0
   26.0500   24.6363   13.7486 C   0  0  0  0  0  0
   26.3749   24.0328   14.9656 C   0  0  0  0  0  0
   19.5511   21.0747   16.5751 S   0  0  0  0  0  0
   19.0214   22.4034   16.2843 O   0  0  0  0  0  0
   19.0065   20.3452   17.7162 O   0  0  0  0  0  0
   19.4058   20.0644   15.1251 C   0  0  0  0  0  0
   25.1655   24.4581   11.5702 F   0  0  0  0  0  0
   28.9856   22.3635   16.2699 C   0  0  0  0  0  0
   28.9690   20.7109   19.3228 Br  0  0  0  0  0  0
   25.8191   20.5820   19.2973 H   0  0  0  0  0  0
   23.9518   23.0531   15.7086 H   0  0  0  0  0  0
   21.5186   22.8674   15.4059 H   0  0  0  0  0  0
   21.4201   19.5892   18.2242 H   0  0  0  0  0  0
   23.8546   19.7837   18.5320 H   0  0  0  0  0  0
   25.2970   20.8622   14.2633 H   0  0  0  0  0  0
   24.7638   21.9472   12.1158 H   0  0  0  0  0  0
   26.2474   25.6925   13.5881 H   0  0  0  0  0  0
   26.8524   24.6388   15.7325 H   0  0  0  0  0  0
   18.3434   19.9227   14.9159 H   0  0  0  0  0  0
   19.8789   19.0992   15.3149 H   0  0  0  0  0  0
   19.8846   20.5738   14.2867 H   0  0  0  0  0  0
   29.7693   22.5526   17.0106 H   0  0  0  0  0  0
   28.8234   23.3110   15.7472 H   0  0  0  0  0  0
   29.3719   21.6217   15.5645 H   0  0  0  0  0  0
  1  2  1  0  0  0
  1  5  1  0  0  0
  1  7  1  0  0  0
  2  3  2  0  0  0
  2  6  1  0  0  0
  3  4  1  0  0  0
  3 25  1  0  0  0
  4  5  2  0  0  0
  4 24  1  0  0  0
  5 23  1  0  0  0
  6  8  2  0  0  0
  6 12  1  0  0  0
  7 13  2  0  0  0
  7 17  1  0  0  0
  8  9  1  0  0  0
  8 26  1  0  0  0
  9 10  2  0  0  0
  9 27  1  0  0  0
 10 11  1  0  0  0
 10 18  1  0  0  0
 11 12  2  0  0  0
 11 28  1  0  0  0
 12 29  1  0  0  0
 13 14  1  0  0  0
 13 30  1  0  0  0
 14 15  2  0  0  0
 14 31  1  0  0  0
 15 16  1  0  0  0
 15 22  1  0  0  0
 16 17  2  0  0  0
 16 32  1  0  0  0
 17 33  1  0  0  0
 18 19  2  0  0  0
 18 20  2  0  0  0
 18 21  1  0  0  0
 21 34  1  0  0  0
 21 35  1  0  0  0
 21 36  1  0  0  0
 23 37  1  0  0  0
 23 38  1  0  0  0
 23 39  1  0  0  0
M  END
>  <Name>
1-34

>  <Family>
A.1

>  <IC50_uM>
0.020000

>  <set>
1

$$$$
1-35
  Cerius2 12120216093D 1   1.00000                          
 Structure written by MMmdl.
 39 41  0  0  0  0  0  0  0  0999 V2000
   26.4484   22.0465   16.4091 N   0  0  0  0  0  0
   25.5283   21.5461   17.3416 C   0  0  0  0  0  0
   26.2486   21.0592   18.4200 C   0  0  0  0  0  0
   27.6132   21.2421   18.1522 C   0  0  0  0  0  0
   27.7353   21.8654   16.9269 C   0  0  0  0  0  0
   24.0760   21.4467   17.1574 C   0  0  0  0  0  0
   26.1272   22.6652   15.1607 C   0  0  0  0  0  0
   23.4021   22.2985   16.2701 C   0  0  0  0  0  0
   22.0191   22.1926   16.0952 C   0  0  0  0  0  0
   21.3066   21.2258   16.8083 C   0  0  0  0  0  0
   21.9673   20.3525   17.6756 C   0  0  0  0  0  0
   23.3499   20.4647   17.8466 C   0  0  0  0  0  0
   25.5490   21.9130   14.1278 C   0  0  0  0  0  0
   25.2264   22.5249   12.9140 C   0  0  0  0  0  0
   25.4826   23.8792   12.7362 C   0  0  0  0  0  0
   26.0550   24.6374   13.7500 C   0  0  0  0  0  0
   26.3783   24.0324   14.9669 C   0  0  0  0  0  0
   19.5492   21.0729   16.5822 S   0  0  0  0  0  0
   19.0174   22.4039   16.3060 O   0  0  0  0  0  0
   19.0101   20.3320   17.7186 O   0  0  0  0  0  0
   19.3994   20.0754   15.1235 C   0  0  0  0  0  0
   25.1719   24.4625   11.5709 F   0  0  0  0  0  0
   28.9853   22.3587   16.2749 C   0  0  0  0  0  0
   28.8593   20.7771   19.2123 Cl  0  0  0  0  0  0
   25.8194   20.5895   19.2972 H   0  0  0  0  0  0
   23.9486   23.0523   15.7052 H   0  0  0  0  0  0
   21.5152   22.8671   15.4066 H   0  0  0  0  0  0
   21.4211   19.5882   18.2242 H   0  0  0  0  0  0
   23.8554   19.7838   18.5299 H   0  0  0  0  0  0
   25.2997   20.8629   14.2592 H   0  0  0  0  0  0
   24.7683   21.9512   12.1132 H   0  0  0  0  0  0
   26.2536   25.6935   13.5908 H   0  0  0  0  0  0
   26.8553   24.6374   15.7349 H   0  0  0  0  0  0
   18.3363   19.9298   14.9203 H   0  0  0  0  0  0
   19.8793   19.1112   15.3012 H   0  0  0  0  0  0
   19.8694   20.5954   14.2868 H   0  0  0  0  0  0
   29.7702   22.5352   17.0179 H   0  0  0  0  0  0
   28.8294   23.3110   15.7593 H   0  0  0  0  0  0
   29.3666   21.6189   15.5650 H   0  0  0  0  0  0
  1  2  1  0  0  0
  1  5  1  0  0  0
  1  7  1  0  0  0
  2  3  2  0  0  0
  2  6  1  0  0  0
  3  4  1  0  0  0
  3 25  1  0  0  0
  4  5  2  0  0  0
  4 24  1  0  0  0
  5 23  1  0  0  0
  6  8  2  0  0  0
  6 12  1  0  0  0
  7 13  2  0  0  0
  7 17  1  0  0  0
  8  9  1  0  0  0
  8 26  1  0  0  0
  9 10  2  0  0  0
  9 27  1  0  0  0
 10 11  1  0  0  0
 10 18  1  0  0  0
 11 12  2  0  0  0
 11 28  1  0  0  0
 12 29  1  0  0  0
 13 14  1  0  0  0
 13 30  1  0  0  0
 14 15  2  0  0  0
 14 31  1  0  0  0
 15 16  1  0  0  0
 15 22  1  0  0  0
 16 17  2  0  0  0
 16 32  1  0  0  0
 17 33  1  0  0  0
 18 19  2  0  0  0
 18 20  2  0  0  0
 18 21  1  0  0  0
 21 34  1  0  0  0
 21 35  1  0  0  0
 21 36  1  0  0  0
 23 37  1  0  0  0
 23 38  1  0  0  0
 23 39  1  0  0  0
M  END
>  <Name>
1-35

>  <Family>
A.1

>  <IC50_uM>
0.050000

>  <set>
0

$$$$
1-36
  Cerius2 12120216093D 1   1.00000                          
 Structure written by MMmdl.
 50 52  0  0  0  0  0  0  0  0999 V2000
   26.4501   22.0427   16.4102 N   0  0  0  0  0  0
   25.5318   21.5516   17.3428 C   0  0  0  0  0  0
   26.2511   21.0693   18.4207 C   0  0  0  0  0  0
   27.6351   21.2676   18.1854 C   0  0  0  0  0  0
   27.7382   21.8492   16.9235 C   0  0  0  0  0  0
   24.0790   21.4532   17.1584 C   0  0  0  0  0  0
   26.1232   22.6611   15.1626 C   0  0  0  0  0  0
   23.4052   22.3031   16.2685 C   0  0  0  0  0  0
   22.0226   22.1951   16.0907 C   0  0  0  0  0  0
   21.3101   21.2284   16.8035 C   0  0  0  0  0  0
   21.9700   20.3584   17.6750 C   0  0  0  0  0  0
   23.3521   20.4728   17.8491 C   0  0  0  0  0  0
   25.5365   21.9126   14.1324 C   0  0  0  0  0  0
   25.2093   22.5278   12.9215 C   0  0  0  0  0  0
   25.4682   23.8819   12.7447 C   0  0  0  0  0  0
   26.0465   24.6373   13.7573 C   0  0  0  0  0  0
   26.3752   24.0287   14.9707 C   0  0  0  0  0  0
   19.5541   21.0671   16.5730 S   0  0  0  0  0  0
   19.0169   22.3977   16.3070 O   0  0  0  0  0  0
   19.0161   20.3134   17.7016 O   0  0  0  0  0  0
   19.4111   20.0792   15.1074 C   0  0  0  0  0  0
   25.1535   24.4676   11.5816 F   0  0  0  0  0  0
   28.9838   22.2872   16.2181 C   0  0  0  0  0  0
   28.7474   20.8604   19.1161 C   0  0  0  0  0  0
   29.0057   21.8079   20.2175 N   0  0  0  0  0  0
   27.8940   21.9299   21.1585 C   0  0  0  0  0  0
   29.4594   23.1205   19.7636 C   0  0  0  0  0  0
   25.8138   20.5979   19.2946 H   0  0  0  0  0  0
   23.9521   23.0560   15.7031 H   0  0  0  0  0  0
   21.5199   22.8676   15.3994 H   0  0  0  0  0  0
   21.4232   19.5942   18.2231 H   0  0  0  0  0  0
   23.8574   19.7943   18.5350 H   0  0  0  0  0  0
   25.2826   20.8639   14.2647 H   0  0  0  0  0  0
   24.7449   21.9567   12.1226 H   0  0  0  0  0  0
   26.2448   25.6937   13.6000 H   0  0  0  0  0  0
   26.8553   24.6303   15.7397 H   0  0  0  0  0  0
   18.3490   19.9288   14.9029 H   0  0  0  0  0  0
   19.8970   19.1170   15.2787 H   0  0  0  0  0  0
   19.8778   20.6078   14.2742 H   0  0  0  0  0  0
   28.8488   23.2480   15.7128 H   0  0  0  0  0  0
   29.2977   21.5324   15.4913 H   0  0  0  0  0  0
   29.8120   22.4204   16.9191 H   0  0  0  0  0  0
   29.6743   20.7080   18.5498 H   0  0  0  0  0  0
   28.5124   19.8754   19.5409 H   0  0  0  0  0  0
   28.2215   22.4652   22.0571 H   0  0  0  0  0  0
   27.5534   20.9436   21.4926 H   0  0  0  0  0  0
   27.0410   22.4746   20.7408 H   0  0  0  0  0  0
   29.7550   23.7366   20.6206 H   0  0  0  0  0  0
   28.6905   23.6676   19.2083 H   0  0  0  0  0  0
   30.3502   23.0253   19.1343 H   0  0  0  0  0  0
  1  2  1  0  0  0
  1  5  1  0  0  0
  1  7  1  0  0  0
  2  3  2  0  0  0
  2  6  1  0  0  0
  3  4  1  0  0  0
  3 28  1  0  0  0
  4  5  2  0  0  0
  4 24  1  0  0  0
  5 23  1  0  0  0
  6  8  2  0  0  0
  6 12  1  0  0  0
  7 13  2  0  0  0
  7 17  1  0  0  0
  8  9  1  0  0  0
  8 29  1  0  0  0
  9 10  2  0  0  0
  9 30  1  0  0  0
 10 11  1  0  0  0
 10 18  1  0  0  0
 11 12  2  0  0  0
 11 31  1  0  0  0
 12 32  1  0  0  0
 13 14  1  0  0  0
 13 33  1  0  0  0
 14 15  2  0  0  0
 14 34  1  0  0  0
 15 16  1  0  0  0
 15 22  1  0  0  0
 16 17  2  0  0  0
 16 35  1  0  0  0
 17 36  1  0  0  0
 18 19  2  0  0  0
 18 20  2  0  0  0
 18 21  1  0  0  0
 21 37  1  0  0  0
 21 38  1  0  0  0
 21 39  1  0  0  0
 23 40  1  0  0  0
 23 41  1  0  0  0
 23 42  1  0  0  0
 24 25  1  0  0  0
 24 43  1  0  0  0
 24 44  1  0  0  0
 25 26  1  0  0  0
 25 27  1  0  0  0
 26 45  1  0  0  0
 26 46  1  0  0  0
 26 47  1  0  0  0
 27 48  1  0  0  0
 27 49  1  0  0  0
 27 50  1  0  0  0
M  END
>  <Name>
1-36

>  <Family>
A.1

>  <IC50_uM>
>100

>  <set>
1

$$$$
1-37
  Cerius2 12120216093D 1   1.00000                          
 Structure written by MMmdl.
 48 50  0  0  0  0  0  0  0  0999 V2000
   26.4471   22.0430   16.4079 N   0  0  0  0  0  0
   25.5300   21.5476   17.3420 C   0  0  0  0  0  0
   26.2490   21.0684   18.4228 C   0  0  0  0  0  0
   27.6288   21.2400   18.1674 C   0  0  0  0  0  0
   27.7333   21.8580   16.9267 C   0  0  0  0  0  0
   24.0773   21.4468   17.1579 C   0  0  0  0  0  0
   26.1251   22.6635   15.1601 C   0  0  0  0  0  0
   23.4036   22.2992   16.2708 C   0  0  0  0  0  0
   22.0209   22.1929   16.0946 C   0  0  0  0  0  0
   21.3084   21.2254   16.8066 C   0  0  0  0  0  0
   21.9687   20.3520   17.6745 C   0  0  0  0  0  0
   23.3511   20.4644   17.8466 C   0  0  0  0  0  0
   25.5459   21.9141   14.1260 C   0  0  0  0  0  0
   25.2254   22.5284   12.9126 C   0  0  0  0  0  0
   25.4825   23.8829   12.7375 C   0  0  0  0  0  0
   26.0547   24.6390   13.7532 C   0  0  0  0  0  0
   26.3778   24.0307   14.9683 C   0  0  0  0  0  0
   19.5512   21.0722   16.5810 S   0  0  0  0  0  0
   19.0186   22.4043   16.3123 O   0  0  0  0  0  0
   19.0127   20.3245   17.7129 O   0  0  0  0  0  0
   19.4022   20.0819   15.1175 C   0  0  0  0  0  0
   25.1727   24.4684   11.5731 F   0  0  0  0  0  0
   28.9835   22.3477   16.2653 C   0  0  0  0  0  0
   28.7424   20.8478   19.0912 C   0  0  0  0  0  0
   29.0370   21.9272   19.9883 O   0  0  0  0  0  0
   30.2882   22.8543   21.7395 C   0  0  0  0  0  0
   30.0515   21.6686   20.8554 C   0  0  0  0  0  0
   30.6868   20.6215   20.9125 O   0  0  0  0  0  0
   25.8138   20.6071   19.3035 H   0  0  0  0  0  0
   23.9506   23.0534   15.7072 H   0  0  0  0  0  0
   21.5178   22.8680   15.4059 H   0  0  0  0  0  0
   21.4220   19.5877   18.2223 H   0  0  0  0  0  0
   23.8571   19.7839   18.5300 H   0  0  0  0  0  0
   25.2942   20.8645   14.2563 H   0  0  0  0  0  0
   24.7684   21.9562   12.1100 H   0  0  0  0  0  0
   26.2537   25.6954   13.5966 H   0  0  0  0  0  0
   26.8561   24.6334   15.7375 H   0  0  0  0  0  0
   18.3394   19.9390   14.9118 H   0  0  0  0  0  0
   19.8806   19.1163   15.2917 H   0  0  0  0  0  0
   19.8745   20.6047   14.2839 H   0  0  0  0  0  0
   29.7766   22.5070   17.0036 H   0  0  0  0  0  0
   28.8304   23.3065   15.7615 H   0  0  0  0  0  0
   29.3513   21.6106   15.5456 H   0  0  0  0  0  0
   29.6352   20.5999   18.5041 H   0  0  0  0  0  0
   28.4467   19.9648   19.6714 H   0  0  0  0  0  0
   31.1083   22.6343   22.4288 H   0  0  0  0  0  0
   29.3895   23.0668   22.3237 H   0  0  0  0  0  0
   30.5667   23.7193   21.1322 H   0  0  0  0  0  0
  1  2  1  0  0  0
  1  5  1  0  0  0
  1  7  1  0  0  0
  2  3  2  0  0  0
  2  6  1  0  0  0
  3  4  1  0  0  0
  3 29  1  0  0  0
  4  5  2  0  0  0
  4 24  1  0  0  0
  5 23  1  0  0  0
  6  8  2  0  0  0
  6 12  1  0  0  0
  7 13  2  0  0  0
  7 17  1  0  0  0
  8  9  1  0  0  0
  8 30  1  0  0  0
  9 10  2  0  0  0
  9 31  1  0  0  0
 10 11  1  0  0  0
 10 18  1  0  0  0
 11 12  2  0  0  0
 11 32  1  0  0  0
 12 33  1  0  0  0
 13 14  1  0  0  0
 13 34  1  0  0  0
 14 15  2  0  0  0
 14 35  1  0  0  0
 15 16  1  0  0  0
 15 22  1  0  0  0
 16 17  2  0  0  0
 16 36  1  0  0  0
 17 37  1  0  0  0
 18 19  2  0  0  0
 18 20  2  0  0  0
 18 21  1  0  0  0
 21 38  1  0  0  0
 21 39  1  0  0  0
 21 40  1  0  0  0
 23 41  1  0  0  0
 23 42  1  0  0  0
 23 43  1  0  0  0
 24 25  1  0  0  0
 24 44  1  0  0  0
 24 45  1  0  0  0
 25 27  1  0  0  0
 26 27  1  0  0  0
 26 46  1  0  0  0
 26 47  1  0  0  0
 26 48  1  0  0  0
 27 28  2  0  0  0
M  END
>  <Name>
1-37

>  <Family>
A.1

>  <IC50_uM>
0.470000

>  <set>
2

$$$$
1-38
  Cerius2 12120216093D 1   1.00000                          
 Structure written by MMmdl.
 43 45  0  0  0  0  0  0  0  0999 V2000
   26.4469   22.0465   16.4099 N   0  0  0  0  0  0
   25.5298   21.5459   17.3410 C   0  0  0  0  0  0
   26.2503   21.0612   18.4187 C   0  0  0  0  0  0
   27.6310   21.2372   18.1656 C   0  0  0  0  0  0
   27.7328   21.8654   16.9298 C   0  0  0  0  0  0
   24.0771   21.4452   17.1566 C   0  0  0  0  0  0
   26.1262   22.6653   15.1609 C   0  0  0  0  0  0
   23.4028   22.2977   16.2700 C   0  0  0  0  0  0
   22.0198   22.1922   16.0952 C   0  0  0  0  0  0
   21.3071   21.2254   16.8080 C   0  0  0  0  0  0
   21.9679   20.3506   17.6738 C   0  0  0  0  0  0
   23.3507   20.4623   17.8443 C   0  0  0  0  0  0
   25.5489   21.9125   14.1278 C   0  0  0  0  0  0
   25.2277   22.5235   12.9133 C   0  0  0  0  0  0
   25.4839   23.8779   12.7352 C   0  0  0  0  0  0
   26.0545   24.6369   13.7496 C   0  0  0  0  0  0
   26.3764   24.0326   14.9670 C   0  0  0  0  0  0
   19.5493   21.0759   16.5834 S   0  0  0  0  0  0
   19.0195   22.4074   16.3062 O   0  0  0  0  0  0
   19.0097   20.3373   17.7209 O   0  0  0  0  0  0
   19.3965   20.0770   15.1261 C   0  0  0  0  0  0
   25.1745   24.4603   11.5691 F   0  0  0  0  0  0
   28.9805   22.3683   16.2740 C   0  0  0  0  0  0
   28.7410   20.8348   19.0819 C   0  0  0  0  0  0
   29.0502   21.8914   19.9903 O   0  0  0  0  0  0
   25.8167   20.5934   19.2966 H   0  0  0  0  0  0
   23.9495   23.0521   15.7062 H   0  0  0  0  0  0
   21.5160   22.8676   15.4073 H   0  0  0  0  0  0
   21.4217   19.5856   18.2216 H   0  0  0  0  0  0
   23.8568   19.7803   18.5264 H   0  0  0  0  0  0
   25.2992   20.8626   14.2609 H   0  0  0  0  0  0
   24.7711   21.9490   12.1123 H   0  0  0  0  0  0
   26.2529   25.6930   13.5901 H   0  0  0  0  0  0
   26.8519   24.6376   15.7360 H   0  0  0  0  0  0
   18.3330   19.9373   14.9209 H   0  0  0  0  0  0
   19.8704   19.1103   15.3064 H   0  0  0  0  0  0
   19.8712   20.5927   14.2894 H   0  0  0  0  0  0
   29.7691   22.5332   17.0158 H   0  0  0  0  0  0
   28.8203   23.3275   15.7729 H   0  0  0  0  0  0
   29.3572   21.6377   15.5522 H   0  0  0  0  0  0
   29.6426   20.5900   18.5105 H   0  0  0  0  0  0
   28.4562   19.9525   19.6651 H   0  0  0  0  0  0
   29.7754   21.5375   20.5465 H   0  0  0  0  0  0
  1  2  1  0  0  0
  1  5  1  0  0  0
  1  7  1  0  0  0
  2  3  2  0  0  0
  2  6  1  0  0  0
  3  4  1  0  0  0
  3 26  1  0  0  0
  4  5  2  0  0  0
  4 24  1  0  0  0
  5 23  1  0  0  0
  6  8  2  0  0  0
  6 12  1  0  0  0
  7 13  2  0  0  0
  7 17  1  0  0  0
  8  9  1  0  0  0
  8 27  1  0  0  0
  9 10  2  0  0  0
  9 28  1  0  0  0
 10 11  1  0  0  0
 10 18  1  0  0  0
 11 12  2  0  0  0
 11 29  1  0  0  0
 12 30  1  0  0  0
 13 14  1  0  0  0
 13 31  1  0  0  0
 14 15  2  0  0  0
 14 32  1  0  0  0
 15 16  1  0  0  0
 15 22  1  0  0  0
 16 17  2  0  0  0
 16 33  1  0  0  0
 17 34  1  0  0  0
 18 19  2  0  0  0
 18 20  2  0  0  0
 18 21  1  0  0  0
 21 35  1  0  0  0
 21 36  1  0  0  0
 21 37  1  0  0  0
 23 38  1  0  0  0
 23 39  1  0  0  0
 23 40  1  0  0  0
 24 25  1  0  0  0
 24 41  1  0  0  0
 24 42  1  0  0  0
 25 43  1  0  0  0
M  END
>  <Name>
1-38

>  <Family>
A.1

>  <IC50_uM>
3.880000

>  <set>
1

$$$$
1-39
  Cerius2 12120216093D 1   1.00000                          
 Structure written by MMmdl.
 53 56  0  0  0  0  0  0  0  0999 V2000
   26.4467   22.0440   16.4084 N   0  0  0  0  0  0
   25.5305   21.5499   17.3440 C   0  0  0  0  0  0
   26.2513   21.0646   18.4214 C   0  0  0  0  0  0
   27.6314   21.2281   18.1603 C   0  0  0  0  0  0
   27.7335   21.8537   16.9231 C   0  0  0  0  0  0
   24.0774   21.4505   17.1627 C   0  0  0  0  0  0
   26.1240   22.6644   15.1607 C   0  0  0  0  0  0
   23.4041   22.3013   16.2738 C   0  0  0  0  0  0
   22.0216   22.1930   16.0957 C   0  0  0  0  0  0
   21.3088   21.2260   16.8081 C   0  0  0  0  0  0
   21.9685   20.3550   17.6786 C   0  0  0  0  0  0
   23.3510   20.4688   17.8519 C   0  0  0  0  0  0
   25.5448   21.9142   14.1270 C   0  0  0  0  0  0
   25.2228   22.5276   12.9138 C   0  0  0  0  0  0
   25.4795   23.8818   12.7376 C   0  0  0  0  0  0
   26.0523   24.6386   13.7524 C   0  0  0  0  0  0
   26.3755   24.0317   14.9683 C   0  0  0  0  0  0
   19.5527   21.0697   16.5729 S   0  0  0  0  0  0
   19.0201   22.3973   16.2830 O   0  0  0  0  0  0
   19.0086   20.3372   17.7122 O   0  0  0  0  0  0
   19.4116   20.0612   15.1212 C   0  0  0  0  0  0
   25.1684   24.4666   11.5731 F   0  0  0  0  0  0
   28.9834   22.3442   16.2620 C   0  0  0  0  0  0
   28.7505   20.8154   19.0742 C   0  0  0  0  0  0
   29.0673   21.8820   19.9770 O   0  0  0  0  0  0
   30.1083   21.6778   20.8394 C   0  0  0  0  0  0
   30.8403   20.4973   20.9792 C   0  0  0  0  0  0
   31.8850   20.4236   21.9084 C   0  0  0  0  0  0
   32.1973   21.5286   22.6974 C   0  0  0  0  0  0
   31.4723   22.7092   22.5659 C   0  0  0  0  0  0
   30.4293   22.7802   21.6385 C   0  0  0  0  0  0
   33.4824   21.4327   23.8376 Cl  0  0  0  0  0  0
   25.8168   20.6012   19.3012 H   0  0  0  0  0  0
   23.9514   23.0547   15.7094 H   0  0  0  0  0  0
   21.5184   22.8651   15.4042 H   0  0  0  0  0  0
   21.4224   19.5904   18.2268 H   0  0  0  0  0  0
   23.8567   19.7890   18.5361 H   0  0  0  0  0  0
   25.2943   20.8644   14.2580 H   0  0  0  0  0  0
   24.7647   21.9546   12.1122 H   0  0  0  0  0  0
   26.2516   25.6946   13.5943 H   0  0  0  0  0  0
   26.8534   24.6351   15.7370 H   0  0  0  0  0  0
   18.3498   19.9170   14.9111 H   0  0  0  0  0  0
   19.8872   19.0969   15.3102 H   0  0  0  0  0  0
   19.8897   20.5728   14.2838 H   0  0  0  0  0  0
   29.7772   22.5009   17.0000 H   0  0  0  0  0  0
   28.8306   23.3049   15.7617 H   0  0  0  0  0  0
   29.3500   21.6096   15.5391 H   0  0  0  0  0  0
   29.6270   20.5617   18.4646 H   0  0  0  0  0  0
   28.4387   19.9304   19.6429 H   0  0  0  0  0  0
   30.6285   19.6111   20.3870 H   0  0  0  0  0  0
   32.4472   19.4976   22.0077 H   0  0  0  0  0  0
   31.7081   23.5771   23.1771 H   0  0  0  0  0  0
   29.8654   23.7065   21.5403 H   0  0  0  0  0  0
  1  2  1  0  0  0
  1  5  1  0  0  0
  1  7  1  0  0  0
  2  3  2  0  0  0
  2  6  1  0  0  0
  3  4  1  0  0  0
  3 33  1  0  0  0
  4  5  2  0  0  0
  4 24  1  0  0  0
  5 23  1  0  0  0
  6  8  2  0  0  0
  6 12  1  0  0  0
  7 13  2  0  0  0
  7 17  1  0  0  0
  8  9  1  0  0  0
  8 34  1  0  0  0
  9 10  2  0  0  0
  9 35  1  0  0  0
 10 11  1  0  0  0
 10 18  1  0  0  0
 11 12  2  0  0  0
 11 36  1  0  0  0
 12 37  1  0  0  0
 13 14  1  0  0  0
 13 38  1  0  0  0
 14 15  2  0  0  0
 14 39  1  0  0  0
 15 16  1  0  0  0
 15 22  1  0  0  0
 16 17  2  0  0  0
 16 40  1  0  0  0
 17 41  1  0  0  0
 18 19  2  0  0  0
 18 20  2  0  0  0
 18 21  1  0  0  0
 21 42  1  0  0  0
 21 43  1  0  0  0
 21 44  1  0  0  0
 23 45  1  0  0  0
 23 46  1  0  0  0
 23 47  1  0  0  0
 24 25  1  0  0  0
 24 48  1  0  0  0
 24 49  1  0  0  0
 25 26  1  0  0  0
 26 27  2  0  0  0
 26 31  1  0  0  0
 27 28  1  0  0  0
 27 50  1  0  0  0
 28 29  2  0  0  0
 28 51  1  0  0  0
 29 30  1  0  0  0
 29 32  1  0  0  0
 30 31  2  0  0  0
 30 52  1  0  0  0
 31 53  1  0  0  0
M  END
>  <Name>
1-39

>  <Family>
A.1

>  <IC50_uM>
0.030000

>  <set>
2

$$$$
1-40
  Cerius2 12120216093D 1   1.00000                          
 Structure written by MMmdl.
 53 56  0  0  0  0  0  0  0  0999 V2000
   26.4464   22.0432   16.4082 N   0  0  0  0  0  0
   25.5306   21.5504   17.3445 C   0  0  0  0  0  0
   26.2508   21.0656   18.4221 C   0  0  0  0  0  0
   27.6309   21.2280   18.1605 C   0  0  0  0  0  0
   27.7329   21.8515   16.9222 C   0  0  0  0  0  0
   24.0776   21.4515   17.1633 C   0  0  0  0  0  0
   26.1231   22.6639   15.1606 C   0  0  0  0  0  0
   23.4046   22.3018   16.2734 C   0  0  0  0  0  0
   22.0226   22.1931   16.0950 C   0  0  0  0  0  0
   21.3099   21.2258   16.8070 C   0  0  0  0  0  0
   21.9693   20.3559   17.6788 C   0  0  0  0  0  0
   23.3512   20.4707   17.8535 C   0  0  0  0  0  0
   25.5436   21.9145   14.1266 C   0  0  0  0  0  0
   25.2225   22.5288   12.9136 C   0  0  0  0  0  0
   25.4799   23.8831   12.7382 C   0  0  0  0  0  0
   26.0522   24.6391   13.7534 C   0  0  0  0  0  0
   26.3745   24.0314   14.9689 C   0  0  0  0  0  0
   19.5542   21.0686   16.5720 S   0  0  0  0  0  0
   19.0202   22.3963   16.2862 O   0  0  0  0  0  0
   19.0112   20.3317   17.7092 O   0  0  0  0  0  0
   19.4166   20.0635   15.1178 C   0  0  0  0  0  0
   25.1697   24.4688   11.5740 F   0  0  0  0  0  0
   28.9828   22.3385   16.2590 C   0  0  0  0  0  0
   28.7502   20.8143   19.0735 C   0  0  0  0  0  0
   29.0709   21.8813   19.9750 O   0  0  0  0  0  0
   30.1226   21.6800   20.8266 C   0  0  0  0  0  0
   30.8522   20.4969   20.9630 C   0  0  0  0  0  0
   31.9063   20.4222   21.8793 C   0  0  0  0  0  0
   32.2350   21.5276   22.6628 C   0  0  0  0  0  0
   31.5074   22.7065   22.5269 C   0  0  0  0  0  0
   30.4550   22.7854   21.6155 C   0  0  0  0  0  0
   31.9104   24.0758   23.4898 Cl  0  0  0  0  0  0
   25.8159   20.6032   19.3022 H   0  0  0  0  0  0
   23.9520   23.0547   15.7083 H   0  0  0  0  0  0
   21.5192   22.8650   15.4033 H   0  0  0  0  0  0
   21.4227   19.5917   18.2269 H   0  0  0  0  0  0
   23.8569   19.7921   18.5391 H   0  0  0  0  0  0
   25.2912   20.8652   14.2578 H   0  0  0  0  0  0
   24.7643   21.9566   12.1115 H   0  0  0  0  0  0
   26.2519   25.6954   13.5966 H   0  0  0  0  0  0
   26.8509   24.6346   15.7384 H   0  0  0  0  0  0
   18.3555   19.9088   14.9111 H   0  0  0  0  0  0
   19.9035   19.1038   15.3021 H   0  0  0  0  0  0
   19.8861   20.5831   14.2803 H   0  0  0  0  0  0
   29.7802   22.4900   16.9940 H   0  0  0  0  0  0
   28.8316   23.3015   15.7623 H   0  0  0  0  0  0
   29.3439   21.6053   15.5321 H   0  0  0  0  0  0
   29.6249   20.5580   18.4622 H   0  0  0  0  0  0
   28.4384   19.9307   19.6443 H   0  0  0  0  0  0
   30.6301   19.6088   20.3771 H   0  0  0  0  0  0
   32.4711   19.4970   21.9814 H   0  0  0  0  0  0
   33.0560   21.4594   23.3727 H   0  0  0  0  0  0
   29.8900   23.7092   21.5145 H   0  0  0  0  0  0
  1  2  1  0  0  0
  1  5  1  0  0  0
  1  7  1  0  0  0
  2  3  2  0  0  0
  2  6  1  0  0  0
  3  4  1  0  0  0
  3 33  1  0  0  0
  4  5  2  0  0  0
  4 24  1  0  0  0
  5 23  1  0  0  0
  6  8  2  0  0  0
  6 12  1  0  0  0
  7 13  2  0  0  0
  7 17  1  0  0  0
  8  9  1  0  0  0
  8 34  1  0  0  0
  9 10  2  0  0  0
  9 35  1  0  0  0
 10 11  1  0  0  0
 10 18  1  0  0  0
 11 12  2  0  0  0
 11 36  1  0  0  0
 12 37  1  0  0  0
 13 14  1  0  0  0
 13 38  1  0  0  0
 14 15  2  0  0  0
 14 39  1  0  0  0
 15 16  1  0  0  0
 15 22  1  0  0  0
 16 17  2  0  0  0
 16 40  1  0  0  0
 17 41  1  0  0  0
 18 19  2  0  0  0
 18 20  2  0  0  0
 18 21  1  0  0  0
 21 42  1  0  0  0
 21 43  1  0  0  0
 21 44  1  0  0  0
 23 45  1  0  0  0
 23 46  1  0  0  0
 23 47  1  0  0  0
 24 25  1  0  0  0
 24 48  1  0  0  0
 24 49  1  0  0  0
 25 26  1  0  0  0
 26 27  2  0  0  0
 26 31  1  0  0  0
 27 28  1  0  0  0
 27 50  1  0  0  0
 28 29  2  0  0  0
 28 51  1  0  0  0
 29 30  1  0  0  0
 29 52  1  0  0  0
 30 31  2  0  0  0
 30 32  1  0  0  0
 31 53  1  0  0  0
M  END
>  <Name>
1-40

>  <Family>
A.1

>  <IC50_uM>
0.080000

>  <set>
0

$$$$
1-41
  Cerius2 12120216093D 1   1.00000                          
 Structure written by MMmdl.
 46 48  0  0  0  0  0  0  0  0999 V2000
   26.4475   22.0489   16.4119 N   0  0  0  0  0  0
   25.5304   21.5461   17.3403 C   0  0  0  0  0  0
   26.2505   21.0486   18.4115 C   0  0  0  0  0  0
   27.6350   21.2325   18.1675 C   0  0  0  0  0  0
   27.7347   21.8738   16.9347 C   0  0  0  0  0  0
   24.0775   21.4474   17.1570 C   0  0  0  0  0  0
   26.1255   22.6653   15.1621 C   0  0  0  0  0  0
   23.4036   22.2995   16.2698 C   0  0  0  0  0  0
   22.0206   22.1936   16.0946 C   0  0  0  0  0  0
   21.3078   21.2271   16.8073 C   0  0  0  0  0  0
   21.9680   20.3538   17.6750 C   0  0  0  0  0  0
   23.3507   20.4657   17.8462 C   0  0  0  0  0  0
   25.5475   21.9099   14.1313 C   0  0  0  0  0  0
   25.2257   22.5179   12.9154 C   0  0  0  0  0  0
   25.4809   23.8720   12.7344 C   0  0  0  0  0  0
   26.0507   24.6339   13.7471 C   0  0  0  0  0  0
   26.3742   24.0324   14.9656 C   0  0  0  0  0  0
   19.5504   21.0762   16.5813 S   0  0  0  0  0  0
   19.0203   22.4068   16.3000 O   0  0  0  0  0  0
   19.0101   20.3403   17.7205 O   0  0  0  0  0  0
   19.4003   20.0728   15.1266 C   0  0  0  0  0  0
   25.1722   24.4513   11.5665 F   0  0  0  0  0  0
   28.9748   22.3863   16.2678 C   0  0  0  0  0  0
   28.7380   20.8029   19.1138 C   0  0  0  0  0  0
   29.8577   20.2635   18.3673 O   0  0  0  0  0  0
   29.1527   21.9133   20.1093 C   0  0  0  0  0  0
   28.1270   22.3092   20.9062 F   0  0  0  0  0  0
   30.1385   21.4707   20.9391 F   0  0  0  0  0  0
   29.6358   23.0223   19.4941 F   0  0  0  0  0  0
   25.8126   20.5676   19.2805 H   0  0  0  0  0  0
   23.9506   23.0535   15.7056 H   0  0  0  0  0  0
   21.5169   22.8682   15.4059 H   0  0  0  0  0  0
   21.4214   19.5895   18.2233 H   0  0  0  0  0  0
   23.8562   19.7846   18.5298 H   0  0  0  0  0  0
   25.2996   20.8599   14.2668 H   0  0  0  0  0  0
   24.7700   21.9411   12.1154 H   0  0  0  0  0  0
   26.2479   25.6900   13.5852 H   0  0  0  0  0  0
   26.8492   24.6394   15.7332 H   0  0  0  0  0  0
   18.3371   19.9293   14.9223 H   0  0  0  0  0  0
   19.8775   19.1082   15.3094 H   0  0  0  0  0  0
   19.8731   20.5880   14.2885 H   0  0  0  0  0  0
   29.7617   22.5812   17.0030 H   0  0  0  0  0  0
   28.7994   23.3336   15.7496 H   0  0  0  0  0  0
   29.3623   21.6490   15.5587 H   0  0  0  0  0  0
   28.3575   19.9609   19.7063 H   0  0  0  0  0  0
   30.5175   20.0046   19.0442 H   0  0  0  0  0  0
  1  2  1  0  0  0
  1  5  1  0  0  0
  1  7  1  0  0  0
  2  3  2  0  0  0
  2  6  1  0  0  0
  3  4  1  0  0  0
  3 30  1  0  0  0
  4  5  2  0  0  0
  4 24  1  0  0  0
  5 23  1  0  0  0
  6  8  2  0  0  0
  6 12  1  0  0  0
  7 13  2  0  0  0
  7 17  1  0  0  0
  8  9  1  0  0  0
  8 31  1  0  0  0
  9 10  2  0  0  0
  9 32  1  0  0  0
 10 11  1  0  0  0
 10 18  1  0  0  0
 11 12  2  0  0  0
 11 33  1  0  0  0
 12 34  1  0  0  0
 13 14  1  0  0  0
 13 35  1  0  0  0
 14 15  2  0  0  0
 14 36  1  0  0  0
 15 16  1  0  0  0
 15 22  1  0  0  0
 16 17  2  0  0  0
 16 37  1  0  0  0
 17 38  1  0  0  0
 18 19  2  0  0  0
 18 20  2  0  0  0
 18 21  1  0  0  0
 21 39  1  0  0  0
 21 40  1  0  0  0
 21 41  1  0  0  0
 23 42  1  0  0  0
 23 43  1  0  0  0
 23 44  1  0  0  0
 24 25  1  0  0  0
 24 26  1  0  0  0
 24 45  1  0  0  0
 25 46  1  0  0  0
 26 27  1  0  0  0
 26 28  1  0  0  0
 26 29  1  0  0  0
M  END
>  <Name>
1-41

>  <Family>
A.1

>  <IC50_uM>
1.440000

>  <set>
1

$$$$
1-42
  Cerius2 12120216093D 1   1.00000                          
 Structure written by MMmdl.
 45 47  0  0  0  0  0  0  0  0999 V2000
   26.4467   22.0463   16.4091 N   0  0  0  0  0  0
   25.5297   21.5466   17.3406 C   0  0  0  0  0  0
   26.2499   21.0563   18.4159 C   0  0  0  0  0  0
   27.6303   21.2407   18.1674 C   0  0  0  0  0  0
   27.7336   21.8667   16.9308 C   0  0  0  0  0  0
   24.0762   21.4482   17.1581 C   0  0  0  0  0  0
   26.1259   22.6652   15.1605 C   0  0  0  0  0  0
   23.4013   22.2992   16.2706 C   0  0  0  0  0  0
   22.0181   22.1930   16.0960 C   0  0  0  0  0  0
   21.3057   21.2268   16.8098 C   0  0  0  0  0  0
   21.9667   20.3545   17.6778 C   0  0  0  0  0  0
   23.3496   20.4673   17.8485 C   0  0  0  0  0  0
   25.5507   21.9128   14.1260 C   0  0  0  0  0  0
   25.2328   22.5242   12.9106 C   0  0  0  0  0  0
   25.4897   23.8784   12.7334 C   0  0  0  0  0  0
   26.0572   24.6372   13.7497 C   0  0  0  0  0  0
   26.3761   24.0325   14.9678 C   0  0  0  0  0  0
   19.5487   21.0707   16.5822 S   0  0  0  0  0  0
   19.0144   22.4018   16.3118 O   0  0  0  0  0  0
   19.0105   20.3236   17.7148 O   0  0  0  0  0  0
   19.4009   20.0791   15.1197 C   0  0  0  0  0  0
   25.1851   24.4610   11.5660 F   0  0  0  0  0  0
   28.9786   22.3682   16.2660 C   0  0  0  0  0  0
   28.7452   20.8272   19.0912 C   0  0  0  0  0  0
   29.0705   21.8429   20.1719 C   0  0  0  0  0  0
   28.0165   22.0852   20.9913 F   0  0  0  0  0  0
   30.0846   21.4031   20.9641 F   0  0  0  0  0  0
   29.4673   23.0354   19.6610 F   0  0  0  0  0  0
   25.8136   20.5818   19.2892 H   0  0  0  0  0  0
   23.9478   23.0520   15.7043 H   0  0  0  0  0  0
   21.5143   22.8666   15.4064 H   0  0  0  0  0  0
   21.4207   19.5898   18.2260 H   0  0  0  0  0  0
   23.8556   19.7864   18.5314 H   0  0  0  0  0  0
   25.3010   20.8628   14.2578 H   0  0  0  0  0  0
   24.7782   21.9500   12.1081 H   0  0  0  0  0  0
   26.2556   25.6934   13.5913 H   0  0  0  0  0  0
   26.8497   24.6371   15.7380 H   0  0  0  0  0  0
   18.3381   19.9327   14.9155 H   0  0  0  0  0  0
   19.8824   19.1152   15.2935 H   0  0  0  0  0  0
   19.8700   20.6032   14.2851 H   0  0  0  0  0  0
   29.7704   22.5375   17.0032 H   0  0  0  0  0  0
   28.8155   23.3257   15.7627 H   0  0  0  0  0  0
   29.3524   21.6346   15.5460 H   0  0  0  0  0  0
   29.6496   20.6229   18.5066 H   0  0  0  0  0  0
   28.4722   19.8786   19.5695 H   0  0  0  0  0  0
  1  2  1  0  0  0
  1  5  1  0  0  0
  1  7  1  0  0  0
  2  3  2  0  0  0
  2  6  1  0  0  0
  3  4  1  0  0  0
  3 29  1  0  0  0
  4  5  2  0  0  0
  4 24  1  0  0  0
  5 23  1  0  0  0
  6  8  2  0  0  0
  6 12  1  0  0  0
  7 13  2  0  0  0
  7 17  1  0  0  0
  8  9  1  0  0  0
  8 30  1  0  0  0
  9 10  2  0  0  0
  9 31  1  0  0  0
 10 11  1  0  0  0
 10 18  1  0  0  0
 11 12  2  0  0  0
 11 32  1  0  0  0
 12 33  1  0  0  0
 13 14  1  0  0  0
 13 34  1  0  0  0
 14 15  2  0  0  0
 14 35  1  0  0  0
 15 16  1  0  0  0
 15 22  1  0  0  0
 16 17  2  0  0  0
 16 36  1  0  0  0
 17 37  1  0  0  0
 18 19  2  0  0  0
 18 20  2  0  0  0
 18 21  1  0  0  0
 21 38  1  0  0  0
 21 39  1  0  0  0
 21 40  1  0  0  0
 23 41  1  0  0  0
 23 42  1  0  0  0
 23 43  1  0  0  0
 24 25  1  0  0  0
 24 44  1  0  0  0
 24 45  1  0  0  0
 25 26  1  0  0  0
 25 27  1  0  0  0
 25 28  1  0  0  0
M  END
>  <Name>
1-42

>  <Family>
A.1

>  <IC50_uM>
0.140000

>  <set>
2

$$$$
1-43
  Cerius2 12120216093D 1   1.00000                          
 Structure written by MMmdl.
 56 59  0  0  0  0  0  0  0  0999 V2000
   26.4332   22.0291   16.3971 N   0  0  0  0  0  0
   25.5138   21.5270   17.3194 C   0  0  0  0  0  0
   26.2233   21.1245   18.4348 C   0  0  0  0  0  0
   27.6017   21.3753   18.2204 C   0  0  0  0  0  0
   27.7152   21.9032   16.9382 C   0  0  0  0  0  0
   24.0664   21.4111   17.1149 C   0  0  0  0  0  0
   26.1209   22.6657   15.1599 C   0  0  0  0  0  0
   23.3823   22.2692   16.2408 C   0  0  0  0  0  0
   21.9970   22.1649   16.0853 C   0  0  0  0  0  0
   21.2963   21.1946   16.8045 C   0  0  0  0  0  0
   21.9689   20.3026   17.6423 C   0  0  0  0  0  0
   23.3515   20.4133   17.7942 C   0  0  0  0  0  0
   25.6065   21.9177   14.0919 C   0  0  0  0  0  0
   25.3594   22.5379   12.8669 C   0  0  0  0  0  0
   25.6337   23.8929   12.7141 C   0  0  0  0  0  0
   26.1328   24.6478   13.7692 C   0  0  0  0  0  0
   26.3709   24.0365   15.0012 C   0  0  0  0  0  0
   19.5254   21.1041   16.6938 S   0  0  0  0  0  0
   19.0141   22.4657   16.5897 O   0  0  0  0  0  0
   19.0393   20.2591   17.7810 O   0  0  0  0  0  0
   19.2673   20.2553   15.1546 C   0  0  0  0  0  0
   25.4178   24.4795   11.5292 F   0  0  0  0  0  0
   28.9547   22.3770   16.2446 C   0  0  0  0  0  0
   28.7085   21.1192   19.2314 C   0  0  0  0  0  0
   28.5822   19.7598   19.7108 O   0  0  0  0  0  0
   29.6827   19.1811   20.2762 C   0  0  0  0  0  0
   29.4095   18.2905   21.3179 C   0  0  0  0  0  0
   30.4477   17.6244   21.9712 C   0  0  0  0  0  0
   31.7666   17.8368   21.5761 C   0  0  0  0  0  0
   32.0364   18.7015   20.5175 C   0  0  0  0  0  0
   31.0015   19.3705   19.8601 C   0  0  0  0  0  0
   33.6640   18.9358   20.0047 Cl  0  0  0  0  0  0
   28.6561   22.1458   20.3851 C   0  0  0  0  0  0
   28.7615   23.4245   19.9311 F   0  0  0  0  0  0
   29.6754   21.9749   21.2686 F   0  0  0  0  0  0
   27.5057   22.0745   21.1033 F   0  0  0  0  0  0
   25.7850   20.6865   19.3256 H   0  0  0  0  0  0
   23.9194   23.0332   15.6796 H   0  0  0  0  0  0
   21.4807   22.8522   15.4181 H   0  0  0  0  0  0
   21.4287   19.5353   18.1925 H   0  0  0  0  0  0
   23.8658   19.7265   18.4655 H   0  0  0  0  0  0
   25.3683   20.8627   14.2049 H   0  0  0  0  0  0
   24.9609   21.9683   12.0321 H   0  0  0  0  0  0
   26.3509   25.7026   13.6285 H   0  0  0  0  0  0
   26.7931   24.6316   15.8078 H   0  0  0  0  0  0
   18.1926   20.1316   15.0088 H   0  0  0  0  0  0
   19.7544   19.2798   15.2084 H   0  0  0  0  0  0
   19.6870   20.8526   14.3432 H   0  0  0  0  0  0
   29.7496   22.6006   16.9630 H   0  0  0  0  0  0
   28.7858   23.3002   15.6838 H   0  0  0  0  0  0
   29.3306   21.6050   15.5662 H   0  0  0  0  0  0
   29.6560   21.2475   18.7045 H   0  0  0  0  0  0
   28.3817   18.1126   21.6289 H   0  0  0  0  0  0
   30.2285   16.9363   22.7847 H   0  0  0  0  0  0
   32.5746   17.3158   22.0854 H   0  0  0  0  0  0
   31.2530   20.0065   19.0171 H   0  0  0  0  0  0
  1  2  1  0  0  0
  1  5  1  0  0  0
  1  7  1  0  0  0
  2  3  2  0  0  0
  2  6  1  0  0  0
  3  4  1  0  0  0
  3 37  1  0  0  0
  4  5  2  0  0  0
  4 24  1  0  0  0
  5 23  1  0  0  0
  6  8  2  0  0  0
  6 12  1  0  0  0
  7 13  2  0  0  0
  7 17  1  0  0  0
  8  9  1  0  0  0
  8 38  1  0  0  0
  9 10  2  0  0  0
  9 39  1  0  0  0
 10 11  1  0  0  0
 10 18  1  0  0  0
 11 12  2  0  0  0
 11 40  1  0  0  0
 12 41  1  0  0  0
 13 14  1  0  0  0
 13 42  1  0  0  0
 14 15  2  0  0  0
 14 43  1  0  0  0
 15 16  1  0  0  0
 15 22  1  0  0  0
 16 17  2  0  0  0
 16 44  1  0  0  0
 17 45  1  0  0  0
 18 19  2  0  0  0
 18 20  2  0  0  0
 18 21  1  0  0  0
 21 46  1  0  0  0
 21 47  1  0  0  0
 21 48  1  0  0  0
 23 49  1  0  0  0
 23 50  1  0  0  0
 23 51  1  0  0  0
 24 25  1  0  0  0
 24 33  1  0  0  0
 24 52  1  0  0  0
 25 26  1  0  0  0
 26 27  2  0  0  0
 26 31  1  0  0  0
 27 28  1  0  0  0
 27 53  1  0  0  0
 28 29  2  0  0  0
 28 54  1  0  0  0
 29 30  1  0  0  0
 29 55  1  0  0  0
 30 31  2  0  0  0
 30 32  1  0  0  0
 31 56  1  0  0  0
 33 34  1  0  0  0
 33 35  1  0  0  0
 33 36  1  0  0  0
M  END
>  <Name>
1-43

>  <Family>
A.1

>  <IC50_uM>
>100

>  <set>
1

$$$$
2-20
  Cerius2 12120216093D 1   1.00000                          
 Structure written by MMmdl.
 45 47  0  0  0  0  0  0  0  0999 V2000
   26.2896   22.2150   16.4288 N   0  0  0  0  0  0
   25.4474   21.4023   17.2059 C   0  0  0  0  0  0
   26.2631   20.6953   18.0737 C   0  0  0  0  0  0
   27.5410   21.2733   18.0255 C   0  0  0  0  0  0
   27.4914   22.3217   17.1254 C   0  0  0  0  0  0
   23.9850   21.3131   17.1195 C   0  0  0  0  0  0
   25.6793   22.7486   15.1904 C   0  0  0  0  0  0
   23.2591   22.2010   16.3123 C   0  0  0  0  0  0
   21.8638   22.1304   16.2508 C   0  0  0  0  0  0
   21.1867   21.1780   17.0159 C   0  0  0  0  0  0
   21.8927   20.2897   17.8298 C   0  0  0  0  0  0
   23.2878   20.3666   17.8862 C   0  0  0  0  0  0
   25.8655   21.6668   14.0958 C   0  0  0  0  0  0
   25.4622   22.1400   12.6971 C   0  0  0  0  0  0
   26.2143   23.3970   12.2909 C   0  0  0  0  0  0
   26.0863   24.4859   13.3430 C   0  0  0  0  0  0
   26.5166   23.9723   14.7153 C   0  0  0  0  0  0
   28.5238   23.3861   16.9813 C   0  0  0  0  0  0
   25.6968   23.8580   11.1161 F   0  0  0  0  0  0
   19.4129   21.0797   16.9276 S   0  0  0  0  0  0
   18.8826   22.4384   16.9863 O   0  0  0  0  0  0
   18.9684   20.1173   17.9308 O   0  0  0  0  0  0
   19.1089   20.4139   15.3126 C   0  0  0  0  0  0
   25.9343   19.9251   18.7627 H   0  0  0  0  0  0
   28.3790   21.0344   18.6715 H   0  0  0  0  0  0
   24.6565   23.0076   15.4916 H   0  0  0  0  0  0
   23.7727   22.9661   15.7324 H   0  0  0  0  0  0
   21.3209   22.8265   15.6147 H   0  0  0  0  0  0
   21.3748   19.5418   18.4261 H   0  0  0  0  0  0
   23.8288   19.6716   18.5270 H   0  0  0  0  0  0
   25.3676   20.7304   14.3472 H   0  0  0  0  0  0
   26.9325   21.4023   14.0625 H   0  0  0  0  0  0
   24.3876   22.3403   12.6408 H   0  0  0  0  0  0
   25.6581   21.3479   11.9650 H   0  0  0  0  0  0
   27.2703   23.1646   12.1132 H   0  0  0  0  0  0
   25.0545   24.8559   13.3759 H   0  0  0  0  0  0
   26.7051   25.3430   13.0527 H   0  0  0  0  0  0
   27.5715   23.6692   14.6595 H   0  0  0  0  0  0
   26.5015   24.8035   15.4185 H   0  0  0  0  0  0
   29.1841   23.3905   17.8569 H   0  0  0  0  0  0
   28.0633   24.3773   16.9409 H   0  0  0  0  0  0
   29.1618   23.2270   16.1106 H   0  0  0  0  0  0
   18.0285   20.3270   15.1795 H   0  0  0  0  0  0
   19.5723   19.4282   15.2408 H   0  0  0  0  0  0
   19.5219   21.0931   14.5645 H   0  0  0  0  0  0
  1  2  1  0  0  0
  1  5  1  0  0  0
  1  7  1  0  0  0
  2  3  2  0  0  0
  2  6  1  0  0  0
  3  4  1  0  0  0
  3 24  1  0  0  0
  4  5  2  0  0  0
  4 25  1  0  0  0
  5 18  1  0  0  0
  6  8  2  0  0  0
  6 12  1  0  0  0
  7 13  1  0  0  0
  7 17  1  0  0  0
  7 26  1  0  0  0
  8  9  1  0  0  0
  8 27  1  0  0  0
  9 10  2  0  0  0
  9 28  1  0  0  0
 10 11  1  0  0  0
 10 20  1  0  0  0
 11 12  2  0  0  0
 11 29  1  0  0  0
 12 30  1  0  0  0
 13 14  1  0  0  0
 13 31  1  0  0  0
 13 32  1  0  0  0
 14 15  1  0  0  0
 14 33  1  0  0  0
 14 34  1  0  0  0
 15 16  1  0  0  0
 15 19  1  0  0  0
 15 35  1  0  0  0
 16 17  1  0  0  0
 16 36  1  0  0  0
 16 37  1  0  0  0
 17 38  1  0  0  0
 17 39  1  0  0  0
 18 40  1  0  0  0
 18 41  1  0  0  0
 18 42  1  0  0  0
 20 21  2  0  0  0
 20 22  2  0  0  0
 20 23  1  0  0  0
 23 43  1  0  0  0
 23 44  1  0  0  0
 23 45  1  0  0  0
M  END
>  <Name>
2-20

>  <Family>
A.2

>  <IC50_uM>
0.520000

>  <set>
2

$$$$
3-5
  Cerius2 12120216093D 1   1.00000                          
 Structure written by MMmdl.
 38 40  0  0  0  0  0  0  0  0999 V2000
   26.4090   22.1296   16.4597 C   0  0  0  0  0  0
   25.4686   21.4611   17.2555 N   0  0  0  0  0  0
   26.1989   20.8887   18.2817 C   0  0  0  0  0  0
   27.4928   21.3297   18.1476 C   0  0  0  0  0  0
   27.6069   22.1107   17.0313 N   0  0  0  0  0  0
   24.0473   21.3754   17.1202 C   0  0  0  0  0  0
   26.1831   22.7073   15.1299 C   0  0  0  0  0  0
   23.3421   22.2593   16.2905 C   0  0  0  0  0  0
   21.9496   22.1710   16.1779 C   0  0  0  0  0  0
   21.2539   21.2076   16.9095 C   0  0  0  0  0  0
   21.9394   20.3256   17.7450 C   0  0  0  0  0  0
   23.3313   20.4162   17.8568 C   0  0  0  0  0  0
   26.4432   24.0676   14.9086 C   0  0  0  0  0  0
   26.2526   24.6316   13.6435 C   0  0  0  0  0  0
   25.8137   23.8339   12.5891 C   0  0  0  0  0  0
   25.5699   22.4764   12.7873 C   0  0  0  0  0  0
   25.7607   21.9130   14.0529 C   0  0  0  0  0  0
   19.4871   21.0837   16.7491 S   0  0  0  0  0  0
   18.9586   22.4288   16.5442 O   0  0  0  0  0  0
   18.9885   20.3068   17.8797 O   0  0  0  0  0  0
   19.2643   20.1456   15.2611 C   0  0  0  0  0  0
   25.5792   24.5271   11.0312 Cl  0  0  0  0  0  0
   28.6610   21.0688   19.0179 C   0  0  0  0  0  0
   25.7416   20.2843   19.0526 H   0  0  0  0  0  0
   23.8349   23.0606   15.7466 H   0  0  0  0  0  0
   21.4224   22.8680   15.5292 H   0  0  0  0  0  0
   21.4075   19.5651   18.3134 H   0  0  0  0  0  0
   23.8320   19.6984   18.5036 H   0  0  0  0  0  0
   26.7934   24.6979   15.7250 H   0  0  0  0  0  0
   26.4522   25.6900   13.4925 H   0  0  0  0  0  0
   25.2359   21.8477   11.9653 H   0  0  0  0  0  0
   25.5786   20.8478   14.1875 H   0  0  0  0  0  0
   18.1919   20.0270   15.0928 H   0  0  0  0  0  0
   19.7313   19.1666   15.3841 H   0  0  0  0  0  0
   19.7134   20.6886   14.4276 H   0  0  0  0  0  0
   28.9494   21.9822   19.5471 H   0  0  0  0  0  0
   29.5134   20.7316   18.4202 H   0  0  0  0  0  0
   28.4388   20.2965   19.7607 H   0  0  0  0  0  0
  1  2  1  0  0  0
  1  5  2  0  0  0
  1  7  1  0  0  0
  2  3  1  0  0  0
  2  6  1  0  0  0
  3  4  2  0  0  0
  3 24  1  0  0  0
  4  5  1  0  0  0
  4 23  1  0  0  0
  6  8  2  0  0  0
  6 12  1  0  0  0
  7 13  2  0  0  0
  7 17  1  0  0  0
  8  9  1  0  0  0
  8 25  1  0  0  0
  9 10  2  0  0  0
  9 26  1  0  0  0
 10 11  1  0  0  0
 10 18  1  0  0  0
 11 12  2  0  0  0
 11 27  1  0  0  0
 12 28  1  0  0  0
 13 14  1  0  0  0
 13 29  1  0  0  0
 14 15  2  0  0  0
 14 30  1  0  0  0
 15 16  1  0  0  0
 15 22  1  0  0  0
 16 17  2  0  0  0
 16 31  1  0  0  0
 17 32  1  0  0  0
 18 19  2  0  0  0
 18 20  2  0  0  0
 18 21  1  0  0  0
 21 33  1  0  0  0
 21 34  1  0  0  0
 21 35  1  0  0  0
 23 36  1  0  0  0
 23 37  1  0  0  0
 23 38  1  0  0  0
M  END
>  <Name>
3-5

>  <Family>
B.1

>  <IC50_uM>
0.240000

>  <set>
1

$$$$
3-6
  Cerius2 12120216093D 1   1.00000                          
 Structure written by MMmdl.
 38 40  0  0  0  0  0  0  0  0999 V2000
   26.4076   22.1303   16.4602 C   0  0  0  0  0  0
   25.4699   21.4599   17.2562 N   0  0  0  0  0  0
   26.1984   20.8851   18.2818 C   0  0  0  0  0  0
   27.5008   21.3245   18.1617 C   0  0  0  0  0  0
   27.6053   22.1149   17.0308 N   0  0  0  0  0  0
   24.0486   21.3745   17.1205 C   0  0  0  0  0  0
   26.1810   22.7072   15.1303 C   0  0  0  0  0  0
   23.3443   22.2589   16.2906 C   0  0  0  0  0  0
   21.9518   22.1716   16.1776 C   0  0  0  0  0  0
   21.2553   21.2085   16.9089 C   0  0  0  0  0  0
   21.9399   20.3258   17.7444 C   0  0  0  0  0  0
   23.3318   20.4156   17.8568 C   0  0  0  0  0  0
   26.4413   24.0674   14.9087 C   0  0  0  0  0  0
   26.2520   24.6307   13.6430 C   0  0  0  0  0  0
   25.8146   23.8324   12.5885 C   0  0  0  0  0  0
   25.5709   22.4750   12.7873 C   0  0  0  0  0  0
   25.7604   21.9122   14.0534 C   0  0  0  0  0  0
   25.5819   24.5245   11.0299 Cl  0  0  0  0  0  0
   28.6681   21.0435   19.0622 C   0  0  0  0  0  0
   28.3533   20.2038   20.0917 F   0  0  0  0  0  0
   29.1658   22.1790   19.6336 F   0  0  0  0  0  0
   29.7074   20.4596   18.3971 F   0  0  0  0  0  0
   19.4884   21.0855   16.7485 S   0  0  0  0  0  0
   18.9608   22.4308   16.5428 O   0  0  0  0  0  0
   18.9891   20.3096   17.8795 O   0  0  0  0  0  0
   19.2657   20.1464   15.2611 C   0  0  0  0  0  0
   25.7399   20.2781   19.0501 H   0  0  0  0  0  0
   23.8379   23.0600   15.7469 H   0  0  0  0  0  0
   21.4252   22.8691   15.5292 H   0  0  0  0  0  0
   21.4072   19.5657   18.3124 H   0  0  0  0  0  0
   23.8314   19.6972   18.5038 H   0  0  0  0  0  0
   26.7904   24.6986   15.7249 H   0  0  0  0  0  0
   26.4515   25.6890   13.4918 H   0  0  0  0  0  0
   25.2381   21.8455   11.9653 H   0  0  0  0  0  0
   25.5787   20.8470   14.1879 H   0  0  0  0  0  0
   18.1932   20.0293   15.0918 H   0  0  0  0  0  0
   19.7311   19.1669   15.3855 H   0  0  0  0  0  0
   19.7163   20.6882   14.4275 H   0  0  0  0  0  0
  1  2  1  0  0  0
  1  5  2  0  0  0
  1  7  1  0  0  0
  2  3  1  0  0  0
  2  6  1  0  0  0
  3  4  2  0  0  0
  3 27  1  0  0  0
  4  5  1  0  0  0
  4 19  1  0  0  0
  6  8  2  0  0  0
  6 12  1  0  0  0
  7 13  2  0  0  0
  7 17  1  0  0  0
  8  9  1  0  0  0
  8 28  1  0  0  0
  9 10  2  0  0  0
  9 29  1  0  0  0
 10 11  1  0  0  0
 10 23  1  0  0  0
 11 12  2  0  0  0
 11 30  1  0  0  0
 12 31  1  0  0  0
 13 14  1  0  0  0
 13 32  1  0  0  0
 14 15  2  0  0  0
 14 33  1  0  0  0
 15 16  1  0  0  0
 15 18  1  0  0  0
 16 17  2  0  0  0
 16 34  1  0  0  0
 17 35  1  0  0  0
 19 20  1  0  0  0
 19 21  1  0  0  0
 19 22  1  0  0  0
 23 24  2  0  0  0
 23 25  2  0  0  0
 23 26  1  0  0  0
 26 36  1  0  0  0
 26 37  1  0  0  0
 26 38  1  0  0  0
M  END
>  <Name>
3-6

>  <Family>
B.1

>  <IC50_uM>
0.110000

>  <set>
1

$$$$
3-9
  Cerius2 12120216093D 1   1.00000                          
 Structure written by MMmdl.
 38 40  0  0  0  0  0  0  0  0999 V2000
   26.4075   22.1302   16.4602 C   0  0  0  0  0  0
   25.4702   21.4603   17.2568 N   0  0  0  0  0  0
   26.1990   20.8856   18.2822 C   0  0  0  0  0  0
   27.5016   21.3241   18.1609 C   0  0  0  0  0  0
   27.6057   22.1142   17.0296 N   0  0  0  0  0  0
   24.0490   21.3749   17.1213 C   0  0  0  0  0  0
   26.1802   22.7073   15.1303 C   0  0  0  0  0  0
   23.3449   22.2594   16.2911 C   0  0  0  0  0  0
   21.9525   22.1719   16.1776 C   0  0  0  0  0  0
   21.2557   21.2087   16.9086 C   0  0  0  0  0  0
   21.9402   20.3262   17.7446 C   0  0  0  0  0  0
   23.3321   20.4162   17.8576 C   0  0  0  0  0  0
   26.4407   24.0689   14.9095 C   0  0  0  0  0  0
   26.2511   24.6308   13.6446 C   0  0  0  0  0  0
   25.8148   23.8286   12.5972 C   0  0  0  0  0  0
   25.5698   22.4742   12.7884 C   0  0  0  0  0  0
   25.7588   21.9108   14.0530 C   0  0  0  0  0  0
   25.6349   24.3672   11.3838 F   0  0  0  0  0  0
   28.6698   21.0421   19.0603 C   0  0  0  0  0  0
   28.3557   20.2011   20.0891 F   0  0  0  0  0  0
   29.1679   22.1769   19.6325 F   0  0  0  0  0  0
   29.7084   20.4588   18.3936 F   0  0  0  0  0  0
   19.4892   21.0855   16.7464 S   0  0  0  0  0  0
   18.9616   22.4303   16.5381 O   0  0  0  0  0  0
   18.9888   20.3113   17.8782 O   0  0  0  0  0  0
   19.2674   20.1442   15.2603 C   0  0  0  0  0  0
   25.7405   20.2792   19.0510 H   0  0  0  0  0  0
   23.8387   23.0604   15.7478 H   0  0  0  0  0  0
   21.4262   22.8692   15.5287 H   0  0  0  0  0  0
   21.4075   19.5657   18.3120 H   0  0  0  0  0  0
   23.8317   19.6978   18.5047 H   0  0  0  0  0  0
   26.7898   24.6997   15.7258 H   0  0  0  0  0  0
   26.4456   25.6861   13.4757 H   0  0  0  0  0  0
   25.2381   21.8600   11.9560 H   0  0  0  0  0  0
   25.5773   20.8456   14.1878 H   0  0  0  0  0  0
   18.1949   20.0262   15.0912 H   0  0  0  0  0  0
   19.7333   19.1651   15.3861 H   0  0  0  0  0  0
   19.7178   20.6850   14.4260 H   0  0  0  0  0  0
  1  2  1  0  0  0
  1  5  2  0  0  0
  1  7  1  0  0  0
  2  3  1  0  0  0
  2  6  1  0  0  0
  3  4  2  0  0  0
  3 27  1  0  0  0
  4  5  1  0  0  0
  4 19  1  0  0  0
  6  8  2  0  0  0
  6 12  1  0  0  0
  7 13  2  0  0  0
  7 17  1  0  0  0
  8  9  1  0  0  0
  8 28  1  0  0  0
  9 10  2  0  0  0
  9 29  1  0  0  0
 10 11  1  0  0  0
 10 23  1  0  0  0
 11 12  2  0  0  0
 11 30  1  0  0  0
 12 31  1  0  0  0
 13 14  1  0  0  0
 13 32  1  0  0  0
 14 15  2  0  0  0
 14 33  1  0  0  0
 15 16  1  0  0  0
 15 18  1  0  0  0
 16 17  2  0  0  0
 16 34  1  0  0  0
 17 35  1  0  0  0
 19 20  1  0  0  0
 19 21  1  0  0  0
 19 22  1  0  0  0
 23 24  2  0  0  0
 23 25  2  0  0  0
 23 26  1  0  0  0
 26 36  1  0  0  0
 26 37  1  0  0  0
 26 38  1  0  0  0
M  END
>  <Name>
3-9

>  <Family>
B.1

>  <IC50_uM>
0.100000

>  <set>
0

$$$$
3-10
  Cerius2 12120216093D 1   1.00000                          
 Structure written by MMmdl.
 38 40  0  0  0  0  0  0  0  0999 V2000
   26.4086   22.1298   16.4598 C   0  0  0  0  0  0
   25.4701   21.4601   17.2557 N   0  0  0  0  0  0
   26.1981   20.8861   18.2823 C   0  0  0  0  0  0
   27.5008   21.3248   18.1625 C   0  0  0  0  0  0
   27.6061   22.1143   17.0312 N   0  0  0  0  0  0
   24.0487   21.3746   17.1200 C   0  0  0  0  0  0
   26.1823   22.7072   15.1300 C   0  0  0  0  0  0
   23.3440   22.2589   16.2903 C   0  0  0  0  0  0
   21.9513   22.1716   16.1775 C   0  0  0  0  0  0
   21.2549   21.2087   16.9089 C   0  0  0  0  0  0
   21.9397   20.3260   17.7442 C   0  0  0  0  0  0
   23.3318   20.4156   17.8563 C   0  0  0  0  0  0
   26.4429   24.0668   14.9081 C   0  0  0  0  0  0
   26.2508   24.6293   13.6441 C   0  0  0  0  0  0
   25.8098   23.8350   12.5870 C   0  0  0  0  0  0
   25.5677   22.4774   12.7899 C   0  0  0  0  0  0
   25.7595   21.9134   14.0536 C   0  0  0  0  0  0
   28.6679   21.0438   19.0635 C   0  0  0  0  0  0
   28.3510   20.2092   20.0966 F   0  0  0  0  0  0
   29.1696   22.1800   19.6300 F   0  0  0  0  0  0
   29.7048   20.4538   18.4000 F   0  0  0  0  0  0
   19.4881   21.0852   16.7484 S   0  0  0  0  0  0
   18.9604   22.4307   16.5441 O   0  0  0  0  0  0
   18.9887   20.3081   17.8785 O   0  0  0  0  0  0
   19.2653   20.1475   15.2602 C   0  0  0  0  0  0
   25.7393   20.2799   19.0510 H   0  0  0  0  0  0
   23.8374   23.0592   15.7455 H   0  0  0  0  0  0
   21.4250   22.8687   15.5284 H   0  0  0  0  0  0
   21.4071   19.5659   18.3123 H   0  0  0  0  0  0
   23.8312   19.6970   18.5031 H   0  0  0  0  0  0
   26.7938   24.6976   15.7238 H   0  0  0  0  0  0
   26.4483   25.6879   13.4845 H   0  0  0  0  0  0
   25.6608   24.2733   11.6017 H   0  0  0  0  0  0
   25.2324   21.8547   11.9623 H   0  0  0  0  0  0
   25.5770   20.8483   14.1881 H   0  0  0  0  0  0
   18.1929   20.0287   15.0919 H   0  0  0  0  0  0
   19.7326   19.1687   15.3828 H   0  0  0  0  0  0
   19.7142   20.6910   14.4267 H   0  0  0  0  0  0
  1  2  1  0  0  0
  1  5  2  0  0  0
  1  7  1  0  0  0
  2  3  1  0  0  0
  2  6  1  0  0  0
  3  4  2  0  0  0
  3 26  1  0  0  0
  4  5  1  0  0  0
  4 18  1  0  0  0
  6  8  2  0  0  0
  6 12  1  0  0  0
  7 13  2  0  0  0
  7 17  1  0  0  0
  8  9  1  0  0  0
  8 27  1  0  0  0
  9 10  2  0  0  0
  9 28  1  0  0  0
 10 11  1  0  0  0
 10 22  1  0  0  0
 11 12  2  0  0  0
 11 29  1  0  0  0
 12 30  1  0  0  0
 13 14  1  0  0  0
 13 31  1  0  0  0
 14 15  2  0  0  0
 14 32  1  0  0  0
 15 16  1  0  0  0
 15 33  1  0  0  0
 16 17  2  0  0  0
 16 34  1  0  0  0
 17 35  1  0  0  0
 18 19  1  0  0  0
 18 20  1  0  0  0
 18 21  1  0  0  0
 22 23  2  0  0  0
 22 24  2  0  0  0
 22 25  1  0  0  0
 25 36  1  0  0  0
 25 37  1  0  0  0
 25 38  1  0  0  0
M  END
>  <Name>
3-10

>  <Family>
B.1

>  <IC50_uM>
0.120000

>  <set>
0

$$$$
3-11
  Cerius2 12120216093D 1   1.00000                          
 Structure written by MMmdl.
 41 43  0  0  0  0  0  0  0  0999 V2000
   26.4089   22.1295   16.4598 C   0  0  0  0  0  0
   25.4702   21.4597   17.2554 N   0  0  0  0  0  0
   26.1978   20.8866   18.2829 C   0  0  0  0  0  0
   27.5002   21.3261   18.1640 C   0  0  0  0  0  0
   27.6060   22.1147   17.0321 N   0  0  0  0  0  0
   24.0489   21.3737   17.1190 C   0  0  0  0  0  0
   26.1834   22.7066   15.1299 C   0  0  0  0  0  0
   23.3442   22.2582   16.2895 C   0  0  0  0  0  0
   21.9514   22.1714   16.1770 C   0  0  0  0  0  0
   21.2549   21.2085   16.9084 C   0  0  0  0  0  0
   21.9397   20.3254   17.7433 C   0  0  0  0  0  0
   23.3319   20.4147   17.8551 C   0  0  0  0  0  0
   26.4418   24.0654   14.9080 C   0  0  0  0  0  0
   26.2499   24.6292   13.6433 C   0  0  0  0  0  0
   25.8199   23.8378   12.5725 C   0  0  0  0  0  0
   25.5674   22.4786   12.7893 C   0  0  0  0  0  0
   25.7592   21.9147   14.0543 C   0  0  0  0  0  0
   28.6666   21.0466   19.0661 C   0  0  0  0  0  0
   28.3467   20.2217   20.1060 F   0  0  0  0  0  0
   29.1743   22.1846   19.6233 F   0  0  0  0  0  0
   29.7000   20.4464   18.4064 F   0  0  0  0  0  0
   19.4879   21.0862   16.7497 S   0  0  0  0  0  0
   18.9607   22.4324   16.5487 O   0  0  0  0  0  0
   18.9893   20.3069   17.8786 O   0  0  0  0  0  0
   19.2632   20.1515   15.2598 C   0  0  0  0  0  0
   25.5803   24.4491   11.2228 C   0  0  0  0  0  0
   25.7384   20.2807   19.0516 H   0  0  0  0  0  0
   23.8376   23.0586   15.7447 H   0  0  0  0  0  0
   21.4252   22.8689   15.5284 H   0  0  0  0  0  0
   21.4071   19.5653   18.3113 H   0  0  0  0  0  0
   23.8312   19.6958   18.5016 H   0  0  0  0  0  0
   26.7883   24.6973   15.7247 H   0  0  0  0  0  0
   26.4427   25.6919   13.5012 H   0  0  0  0  0  0
   25.2227   21.8451   11.9727 H   0  0  0  0  0  0
   25.5722   20.8503   14.1895 H   0  0  0  0  0  0
   18.1906   20.0339   15.0921 H   0  0  0  0  0  0
   19.7298   19.1721   15.3802 H   0  0  0  0  0  0
   19.7119   20.6962   14.4270 H   0  0  0  0  0  0
   24.5437   24.7913   11.1464 H   0  0  0  0  0  0
   25.7742   23.7233   10.4260 H   0  0  0  0  0  0
   26.2478   25.3010   11.0554 H   0  0  0  0  0  0
  1  2  1  0  0  0
  1  5  2  0  0  0
  1  7  1  0  0  0
  2  3  1  0  0  0
  2  6  1  0  0  0
  3  4  2  0  0  0
  3 27  1  0  0  0
  4  5  1  0  0  0
  4 18  1  0  0  0
  6  8  2  0  0  0
  6 12  1  0  0  0
  7 13  2  0  0  0
  7 17  1  0  0  0
  8  9  1  0  0  0
  8 28  1  0  0  0
  9 10  2  0  0  0
  9 29  1  0  0  0
 10 11  1  0  0  0
 10 22  1  0  0  0
 11 12  2  0  0  0
 11 30  1  0  0  0
 12 31  1  0  0  0
 13 14  1  0  0  0
 13 32  1  0  0  0
 14 15  2  0  0  0
 14 33  1  0  0  0
 15 16  1  0  0  0
 15 26  1  0  0  0
 16 17  2  0  0  0
 16 34  1  0  0  0
 17 35  1  0  0  0
 18 19  1  0  0  0
 18 20  1  0  0  0
 18 21  1  0  0  0
 22 23  2  0  0  0
 22 24  2  0  0  0
 22 25  1  0  0  0
 25 36  1  0  0  0
 25 37  1  0  0  0
 25 38  1  0  0  0
 26 39  1  0  0  0
 26 40  1  0  0  0
 26 41  1  0  0  0
M  END
>  <Name>
3-11

>  <Family>
B.1

>  <IC50_uM>
0.160000

>  <set>
0

$$$$
3-12
  Cerius2 12120216093D 1   1.00000                          
 Structure written by MMmdl.
 42 44  0  0  0  0  0  0  0  0999 V2000
   26.4075   22.1320   16.4618 C   0  0  0  0  0  0
   25.4705   21.4597   17.2568 N   0  0  0  0  0  0
   26.2002   20.8802   18.2788 C   0  0  0  0  0  0
   27.5027   21.3200   18.1589 C   0  0  0  0  0  0
   27.6057   22.1151   17.0312 N   0  0  0  0  0  0
   24.0490   21.3749   17.1220 C   0  0  0  0  0  0
   26.1800   22.7098   15.1327 C   0  0  0  0  0  0
   23.3450   22.2596   16.2923 C   0  0  0  0  0  0
   21.9527   22.1721   16.1785 C   0  0  0  0  0  0
   21.2558   21.2086   16.9090 C   0  0  0  0  0  0
   21.9399   20.3266   17.7456 C   0  0  0  0  0  0
   23.3319   20.4166   17.8586 C   0  0  0  0  0  0
   26.4384   24.0667   14.9083 C   0  0  0  0  0  0
   26.2476   24.6235   13.6397 C   0  0  0  0  0  0
   25.8102   23.8341   12.5733 C   0  0  0  0  0  0
   25.5703   22.4767   12.7853 C   0  0  0  0  0  0
   25.7608   21.9171   14.0554 C   0  0  0  0  0  0
   28.6716   21.0339   19.0557 C   0  0  0  0  0  0
   28.3515   20.2112   20.0972 F   0  0  0  0  0  0
   29.1883   22.1693   19.6101 F   0  0  0  0  0  0
   29.6985   20.4277   18.3915 F   0  0  0  0  0  0
   19.4893   21.0866   16.7442 S   0  0  0  0  0  0
   18.9629   22.4307   16.5274 O   0  0  0  0  0  0
   18.9872   20.3193   17.8800 O   0  0  0  0  0  0
   19.2689   20.1381   15.2627 C   0  0  0  0  0  0
   25.6643   24.5001   11.3877 O   0  0  0  0  0  0
   25.9804   25.8915   11.3908 C   0  0  0  0  0  0
   25.7429   20.2691   19.0447 H   0  0  0  0  0  0
   23.8387   23.0606   15.7486 H   0  0  0  0  0  0
   21.4262   22.8690   15.5293 H   0  0  0  0  0  0
   21.4072   19.5665   18.3138 H   0  0  0  0  0  0
   23.8311   19.6986   18.5063 H   0  0  0  0  0  0
   26.7873   24.7015   15.7213 H   0  0  0  0  0  0
   26.4474   25.6830   13.4877 H   0  0  0  0  0  0
   25.2388   21.8187   11.9866 H   0  0  0  0  0  0
   25.5801   20.8515   14.1904 H   0  0  0  0  0  0
   18.1966   20.0221   15.0909 H   0  0  0  0  0  0
   19.7316   19.1582   15.3948 H   0  0  0  0  0  0
   19.7234   20.6733   14.4270 H   0  0  0  0  0  0
   25.8221   26.2706   10.3767 H   0  0  0  0  0  0
   27.0319   26.0556   11.6489 H   0  0  0  0  0  0
   25.3146   26.4440   12.0618 H   0  0  0  0  0  0
  1  2  1  0  0  0
  1  5  2  0  0  0
  1  7  1  0  0  0
  2  3  1  0  0  0
  2  6  1  0  0  0
  3  4  2  0  0  0
  3 28  1  0  0  0
  4  5  1  0  0  0
  4 18  1  0  0  0
  6  8  2  0  0  0
  6 12  1  0  0  0
  7 13  2  0  0  0
  7 17  1  0  0  0
  8  9  1  0  0  0
  8 29  1  0  0  0
  9 10  2  0  0  0
  9 30  1  0  0  0
 10 11  1  0  0  0
 10 22  1  0  0  0
 11 12  2  0  0  0
 11 31  1  0  0  0
 12 32  1  0  0  0
 13 14  1  0  0  0
 13 33  1  0  0  0
 14 15  2  0  0  0
 14 34  1  0  0  0
 15 16  1  0  0  0
 15 26  1  0  0  0
 16 17  2  0  0  0
 16 35  1  0  0  0
 17 36  1  0  0  0
 18 19  1  0  0  0
 18 20  1  0  0  0
 18 21  1  0  0  0
 22 23  2  0  0  0
 22 24  2  0  0  0
 22 25  1  0  0  0
 25 37  1  0  0  0
 25 38  1  0  0  0
 25 39  1  0  0  0
 26 27  1  0  0  0
 27 40  1  0  0  0
 27 41  1  0  0  0
 27 42  1  0  0  0
M  END
>  <Name>
3-12

>  <Family>
B.1

>  <IC50_uM>
0.570000

>  <set>
1

$$$$
3-13
  Cerius2 12120216093D 1   1.00000                          
 Structure written by MMmdl.
 43 45  0  0  0  0  0  0  0  0999 V2000
   26.4075   22.1304   16.4608 C   0  0  0  0  0  0
   25.4692   21.4585   17.2552 N   0  0  0  0  0  0
   26.1972   20.8833   18.2812 C   0  0  0  0  0  0
   27.4993   21.3239   18.1634 C   0  0  0  0  0  0
   27.6044   22.1153   17.0333 N   0  0  0  0  0  0
   24.0479   21.3727   17.1194 C   0  0  0  0  0  0
   26.1828   22.7091   15.1317 C   0  0  0  0  0  0
   23.3432   22.2574   16.2901 C   0  0  0  0  0  0
   21.9504   22.1708   16.1783 C   0  0  0  0  0  0
   21.2540   21.2082   16.9101 C   0  0  0  0  0  0
   21.9389   20.3249   17.7447 C   0  0  0  0  0  0
   23.3310   20.4139   17.8559 C   0  0  0  0  0  0
   26.4415   24.0642   14.9077 C   0  0  0  0  0  0
   26.2521   24.6241   13.6375 C   0  0  0  0  0  0
   25.8141   23.8512   12.5546 C   0  0  0  0  0  0
   25.5790   22.4917   12.7842 C   0  0  0  0  0  0
   25.7659   21.9227   14.0524 C   0  0  0  0  0  0
   19.4869   21.0857   16.7521 S   0  0  0  0  0  0
   18.9594   22.4322   16.5541 O   0  0  0  0  0  0
   18.9890   20.3041   17.8797 O   0  0  0  0  0  0
   19.2615   20.1539   15.2606 C   0  0  0  0  0  0
   25.6452   24.4543   11.3261 N   0  0  0  0  0  0
   25.8821   25.8590   11.0645 C   0  0  0  0  0  0
   28.6659   21.0429   19.0647 C   0  0  0  0  0  0
   29.1771   22.1805   19.6198 F   0  0  0  0  0  0
   29.6972   20.4392   18.4047 F   0  0  0  0  0  0
   28.3451   20.2203   20.1061 F   0  0  0  0  0  0
   25.7382   20.2754   19.0485 H   0  0  0  0  0  0
   23.8369   23.0577   15.7454 H   0  0  0  0  0  0
   21.4239   22.8687   15.5300 H   0  0  0  0  0  0
   21.4062   19.5649   18.3128 H   0  0  0  0  0  0
   23.8307   19.6950   18.5022 H   0  0  0  0  0  0
   26.7898   24.6991   15.7211 H   0  0  0  0  0  0
   26.4567   25.6856   13.5031 H   0  0  0  0  0  0
   25.2473   21.8387   11.9795 H   0  0  0  0  0  0
   25.5831   20.8568   14.1804 H   0  0  0  0  0  0
   18.1887   20.0357   15.0938 H   0  0  0  0  0  0
   19.7291   19.1746   15.3786 H   0  0  0  0  0  0
   19.7088   20.7006   14.4283 H   0  0  0  0  0  0
   25.3464   23.8845   10.5334 H   0  0  0  0  0  0
   25.6759   26.0744   10.0114 H   0  0  0  0  0  0
   26.9251   26.1258   11.2622 H   0  0  0  0  0  0
   25.2225   26.4888   11.6697 H   0  0  0  0  0  0
  1  2  1  0  0  0
  1  5  2  0  0  0
  1  7  1  0  0  0
  2  3  1  0  0  0
  2  6  1  0  0  0
  3  4  2  0  0  0
  3 28  1  0  0  0
  4  5  1  0  0  0
  4 24  1  0  0  0
  6  8  2  0  0  0
  6 12  1  0  0  0
  7 13  2  0  0  0
  7 17  1  0  0  0
  8  9  1  0  0  0
  8 29  1  0  0  0
  9 10  2  0  0  0
  9 30  1  0  0  0
 10 11  1  0  0  0
 10 18  1  0  0  0
 11 12  2  0  0  0
 11 31  1  0  0  0
 12 32  1  0  0  0
 13 14  1  0  0  0
 13 33  1  0  0  0
 14 15  2  0  0  0
 14 34  1  0  0  0
 15 16  1  0  0  0
 15 22  1  0  0  0
 16 17  2  0  0  0
 16 35  1  0  0  0
 17 36  1  0  0  0
 18 19  2  0  0  0
 18 20  2  0  0  0
 18 21  1  0  0  0
 21 37  1  0  0  0
 21 38  1  0  0  0
 21 39  1  0  0  0
 22 23  1  0  0  0
 22 40  1  0  0  0
 23 41  1  0  0  0
 23 42  1  0  0  0
 23 43  1  0  0  0
 24 25  1  0  0  0
 24 26  1  0  0  0
 24 27  1  0  0  0
M  END
>  <Name>
3-13

>  <Family>
B.1

>  <IC50_uM>
1.470000

>  <set>
1

$$$$
3-14
  Cerius2 12120216093D 1   1.00000                          
 Structure written by MMmdl.
 46 48  0  0  0  0  0  0  0  0999 V2000
   26.4075   22.1303   16.4617 C   0  0  0  0  0  0
   25.4693   21.4583   17.2561 N   0  0  0  0  0  0
   26.1973   20.8814   18.2809 C   0  0  0  0  0  0
   27.5000   21.3200   18.1619 C   0  0  0  0  0  0
   27.6048   22.1136   17.0333 N   0  0  0  0  0  0
   24.0478   21.3732   17.1205 C   0  0  0  0  0  0
   26.1824   22.7090   15.1330 C   0  0  0  0  0  0
   23.3434   22.2578   16.2911 C   0  0  0  0  0  0
   21.9508   22.1710   16.1786 C   0  0  0  0  0  0
   21.2542   21.2083   16.9102 C   0  0  0  0  0  0
   21.9389   20.3252   17.7454 C   0  0  0  0  0  0
   23.3309   20.4145   17.8571 C   0  0  0  0  0  0
   26.4396   24.0611   14.9056 C   0  0  0  0  0  0
   26.2503   24.6230   13.6327 C   0  0  0  0  0  0
   25.8122   23.8635   12.5341 C   0  0  0  0  0  0
   25.5809   22.4998   12.7851 C   0  0  0  0  0  0
   25.7670   21.9272   14.0541 C   0  0  0  0  0  0
   28.6673   21.0355   19.0615 C   0  0  0  0  0  0
   28.3603   20.1674   20.0696 F   0  0  0  0  0  0
   29.1449   22.1648   19.6615 F   0  0  0  0  0  0
   29.7185   20.4827   18.3885 F   0  0  0  0  0  0
   19.4873   21.0855   16.7504 S   0  0  0  0  0  0
   18.9594   22.4316   16.5499 O   0  0  0  0  0  0
   18.9886   20.3054   17.8786 O   0  0  0  0  0  0
   19.2635   20.1518   15.2596 C   0  0  0  0  0  0
   25.6247   24.4244   11.2774 N   0  0  0  0  0  0
   25.1607   23.6191   10.1457 C   0  0  0  0  0  0
   25.8700   25.8476   11.0344 C   0  0  0  0  0  0
   25.7384   20.2731   19.0480 H   0  0  0  0  0  0
   23.8372   23.0582   15.7464 H   0  0  0  0  0  0
   21.4243   22.8684   15.5299 H   0  0  0  0  0  0
   21.4062   19.5651   18.3134 H   0  0  0  0  0  0
   23.8304   19.6958   18.5038 H   0  0  0  0  0  0
   26.7876   24.6977   15.7182 H   0  0  0  0  0  0
   26.4631   25.6856   13.5321 H   0  0  0  0  0  0
   25.2489   21.8314   11.9929 H   0  0  0  0  0  0
   25.5835   20.8611   14.1788 H   0  0  0  0  0  0
   18.1910   20.0350   15.0909 H   0  0  0  0  0  0
   19.7295   19.1720   15.3797 H   0  0  0  0  0  0
   19.7133   20.6969   14.4278 H   0  0  0  0  0  0
   25.0654   24.2150    9.2318 H   0  0  0  0  0  0
   24.1735   23.1922   10.3532 H   0  0  0  0  0  0
   25.8692   22.8125    9.9276 H   0  0  0  0  0  0
   25.6761   26.1238    9.9924 H   0  0  0  0  0  0
   26.9152   26.1018   11.2419 H   0  0  0  0  0  0
   25.2132   26.4655   11.6562 H   0  0  0  0  0  0
  1  2  1  0  0  0
  1  5  2  0  0  0
  1  7  1  0  0  0
  2  3  1  0  0  0
  2  6  1  0  0  0
  3  4  2  0  0  0
  3 29  1  0  0  0
  4  5  1  0  0  0
  4 18  1  0  0  0
  6  8  2  0  0  0
  6 12  1  0  0  0
  7 13  2  0  0  0
  7 17  1  0  0  0
  8  9  1  0  0  0
  8 30  1  0  0  0
  9 10  2  0  0  0
  9 31  1  0  0  0
 10 11  1  0  0  0
 10 22  1  0  0  0
 11 12  2  0  0  0
 11 32  1  0  0  0
 12 33  1  0  0  0
 13 14  1  0  0  0
 13 34  1  0  0  0
 14 15  2  0  0  0
 14 35  1  0  0  0
 15 16  1  0  0  0
 15 26  1  0  0  0
 16 17  2  0  0  0
 16 36  1  0  0  0
 17 37  1  0  0  0
 18 19  1  0  0  0
 18 20  1  0  0  0
 18 21  1  0  0  0
 22 23  2  0  0  0
 22 24  2  0  0  0
 22 25  1  0  0  0
 25 38  1  0  0  0
 25 39  1  0  0  0
 25 40  1  0  0  0
 26 27  1  0  0  0
 26 28  1  0  0  0
 27 41  1  0  0  0
 27 42  1  0  0  0
 27 43  1  0  0  0
 28 44  1  0  0  0
 28 45  1  0  0  0
 28 46  1  0  0  0
M  END
>  <Name>
3-14

>  <Family>
B.1

>  <IC50_uM>
0.700000

>  <set>
1

$$$$
3-15
  Cerius2 12120216093D 1   1.00000                          
 Structure written by MMmdl.
 42 44  0  0  0  0  0  0  0  0999 V2000
   26.4084   22.1292   16.4602 C   0  0  0  0  0  0
   25.4702   21.4595   17.2563 N   0  0  0  0  0  0
   26.1984   20.8853   18.2826 C   0  0  0  0  0  0
   27.5006   21.3253   18.1632 C   0  0  0  0  0  0
   27.6057   22.1144   17.0316 N   0  0  0  0  0  0
   24.0489   21.3743   17.1206 C   0  0  0  0  0  0
   26.1825   22.7060   15.1304 C   0  0  0  0  0  0
   23.3447   22.2590   16.2908 C   0  0  0  0  0  0
   21.9522   22.1718   16.1775 C   0  0  0  0  0  0
   21.2554   21.2088   16.9085 C   0  0  0  0  0  0
   21.9398   20.3261   17.7442 C   0  0  0  0  0  0
   23.3318   20.4157   17.8569 C   0  0  0  0  0  0
   26.4403   24.0644   14.9080 C   0  0  0  0  0  0
   26.2495   24.6296   13.6417 C   0  0  0  0  0  0
   25.8195   23.8403   12.5716 C   0  0  0  0  0  0
   25.5683   22.4818   12.7886 C   0  0  0  0  0  0
   25.7592   21.9156   14.0543 C   0  0  0  0  0  0
   28.6678   21.0452   19.0645 C   0  0  0  0  0  0
   28.3441   20.2347   20.1144 F   0  0  0  0  0  0
   29.1876   22.1847   19.6075 F   0  0  0  0  0  0
   29.6934   20.4287   18.4078 F   0  0  0  0  0  0
   19.4886   21.0857   16.7475 S   0  0  0  0  0  0
   18.9609   22.4312   16.5433 O   0  0  0  0  0  0
   18.9891   20.3083   17.8773 O   0  0  0  0  0  0
   19.2662   20.1484   15.2590 C   0  0  0  0  0  0
   25.5379   24.5145   10.9431 S   0  0  0  0  0  0
   26.0059   26.2494   11.2167 C   0  0  0  0  0  0
   25.7396   20.2787   19.0509 H   0  0  0  0  0  0
   23.8385   23.0599   15.7470 H   0  0  0  0  0  0
   21.4259   22.8694   15.5286 H   0  0  0  0  0  0
   21.4069   19.5660   18.3120 H   0  0  0  0  0  0
   23.8312   19.6970   18.5038 H   0  0  0  0  0  0
   26.7842   24.6974   15.7251 H   0  0  0  0  0  0
   26.4345   25.6940   13.5154 H   0  0  0  0  0  0
   25.2285   21.8432   11.9746 H   0  0  0  0  0  0
   25.5734   20.8508   14.1868 H   0  0  0  0  0  0
   18.1937   20.0287   15.0911 H   0  0  0  0  0  0
   19.7345   19.1700   15.3810 H   0  0  0  0  0  0
   19.7141   20.6927   14.4256 H   0  0  0  0  0  0
   26.0270   26.7657   10.2531 H   0  0  0  0  0  0
   27.0006   26.3132   11.6663 H   0  0  0  0  0  0
   25.2789   26.7533   11.8583 H   0  0  0  0  0  0
  1  2  1  0  0  0
  1  5  2  0  0  0
  1  7  1  0  0  0
  2  3  1  0  0  0
  2  6  1  0  0  0
  3  4  2  0  0  0
  3 28  1  0  0  0
  4  5  1  0  0  0
  4 18  1  0  0  0
  6  8  2  0  0  0
  6 12  1  0  0  0
  7 13  2  0  0  0
  7 17  1  0  0  0
  8  9  1  0  0  0
  8 29  1  0  0  0
  9 10  2  0  0  0
  9 30  1  0  0  0
 10 11  1  0  0  0
 10 22  1  0  0  0
 11 12  2  0  0  0
 11 31  1  0  0  0
 12 32  1  0  0  0
 13 14  1  0  0  0
 13 33  1  0  0  0
 14 15  2  0  0  0
 14 34  1  0  0  0
 15 16  1  0  0  0
 15 26  1  0  0  0
 16 17  2  0  0  0
 16 35  1  0  0  0
 17 36  1  0  0  0
 18 19  1  0  0  0
 18 20  1  0  0  0
 18 21  1  0  0  0
 22 23  2  0  0  0
 22 24  2  0  0  0
 22 25  1  0  0  0
 25 37  1  0  0  0
 25 38  1  0  0  0
 25 39  1  0  0  0
 26 27  1  0  0  0
 27 40  1  0  0  0
 27 41  1  0  0  0
 27 42  1  0  0  0
M  END
>  <Name>
3-15

>  <Family>
B.1

>  <IC50_uM>
0.160000

>  <set>
1

$$$$
3-16
  Cerius2 12120216093D 1   1.00000                          
 Structure written by MMmdl.
 43 45  0  0  0  0  0  0  0  0999 V2000
   26.4077   22.1300   16.4603 C   0  0  0  0  0  0
   25.4700   21.4593   17.2561 N   0  0  0  0  0  0
   26.1988   20.8848   18.2817 C   0  0  0  0  0  0
   27.5008   21.3258   18.1627 C   0  0  0  0  0  0
   27.6050   22.1161   17.0317 N   0  0  0  0  0  0
   24.0488   21.3737   17.1203 C   0  0  0  0  0  0
   26.1817   22.7069   15.1303 C   0  0  0  0  0  0
   23.3443   22.2584   16.2906 C   0  0  0  0  0  0
   21.9518   22.1712   16.1776 C   0  0  0  0  0  0
   21.2551   21.2082   16.9089 C   0  0  0  0  0  0
   21.9396   20.3253   17.7442 C   0  0  0  0  0  0
   23.3318   20.4148   17.8564 C   0  0  0  0  0  0
   26.4408   24.0657   14.9081 C   0  0  0  0  0  0
   26.2512   24.6294   13.6422 C   0  0  0  0  0  0
   25.8169   23.8375   12.5740 C   0  0  0  0  0  0
   25.5707   22.4777   12.7868 C   0  0  0  0  0  0
   25.7605   21.9142   14.0536 C   0  0  0  0  0  0
   28.6682   21.0462   19.0636 C   0  0  0  0  0  0
   28.3528   20.2106   20.0963 F   0  0  0  0  0  0
   29.1682   22.1828   19.6306 F   0  0  0  0  0  0
   29.7061   20.4583   18.3997 F   0  0  0  0  0  0
   19.4882   21.0867   16.7487 S   0  0  0  0  0  0
   18.9614   22.4325   16.5435 O   0  0  0  0  0  0
   18.9886   20.3110   17.8796 O   0  0  0  0  0  0
   19.2644   20.1482   15.2610 C   0  0  0  0  0  0
   25.5739   24.5966   10.9499 S   0  0  0  0  0  0
   24.9043   23.5582   10.0905 O   0  0  0  0  0  0
   27.3213   24.6684   10.4743 C   0  0  0  0  0  0
   25.7407   20.2769   19.0495 H   0  0  0  0  0  0
   23.8379   23.0596   15.7470 H   0  0  0  0  0  0
   21.4252   22.8687   15.5291 H   0  0  0  0  0  0
   21.4069   19.5650   18.3120 H   0  0  0  0  0  0
   23.8312   19.6962   18.5032 H   0  0  0  0  0  0
   26.7882   24.6976   15.7246 H   0  0  0  0  0  0
   26.4485   25.6907   13.5020 H   0  0  0  0  0  0
   25.2356   21.8406   11.9707 H   0  0  0  0  0  0
   25.5773   20.8491   14.1874 H   0  0  0  0  0  0
   18.1917   20.0304   15.0929 H   0  0  0  0  0  0
   19.7307   19.1690   15.3843 H   0  0  0  0  0  0
   19.7138   20.6909   14.4274 H   0  0  0  0  0  0
   27.3840   25.0354    9.4470 H   0  0  0  0  0  0
   27.7658   23.6715   10.5290 H   0  0  0  0  0  0
   27.8555   25.3564   11.1338 H   0  0  0  0  0  0
  1  2  1  0  0  0
  1  5  2  0  0  0
  1  7  1  0  0  0
  2  3  1  0  0  0
  2  6  1  0  0  0
  3  4  2  0  0  0
  3 29  1  0  0  0
  4  5  1  0  0  0
  4 18  1  0  0  0
  6  8  2  0  0  0
  6 12  1  0  0  0
  7 13  2  0  0  0
  7 17  1  0  0  0
  8  9  1  0  0  0
  8 30  1  0  0  0
  9 10  2  0  0  0
  9 31  1  0  0  0
 10 11  1  0  0  0
 10 22  1  0  0  0
 11 12  2  0  0  0
 11 32  1  0  0  0
 12 33  1  0  0  0
 13 14  1  0  0  0
 13 34  1  0  0  0
 14 15  2  0  0  0
 14 35  1  0  0  0
 15 16  1  0  0  0
 15 26  1  0  0  0
 16 17  2  0  0  0
 16 36  1  0  0  0
 17 37  1  0  0  0
 18 19  1  0  0  0
 18 20  1  0  0  0
 18 21  1  0  0  0
 22 23  2  0  0  0
 22 24  2  0  0  0
 22 25  1  0  0  0
 25 38  1  0  0  0
 25 39  1  0  0  0
 25 40  1  0  0  0
 26 27  2  0  0  0
 26 28  1  0  0  0
 28 41  1  0  0  0
 28 42  1  0  0  0
 28 43  1  0  0  0
M  END
>  <Name>
3-16

>  <Family>
B.1

>  <IC50_uM>
>100

>  <set>
1

$$$$
3-17
  Cerius2 12120216093D 1   1.00000                          
 Structure written by MMmdl.
 44 46  0  0  0  0  0  0  0  0999 V2000
   26.4074   22.1299   16.4598 C   0  0  0  0  0  0
   25.4697   21.4599   17.2563 N   0  0  0  0  0  0
   26.1980   20.8856   18.2821 C   0  0  0  0  0  0
   27.5004   21.3252   18.1620 C   0  0  0  0  0  0
   27.6048   22.1150   17.0307 N   0  0  0  0  0  0
   24.0484   21.3746   17.1209 C   0  0  0  0  0  0
   26.1806   22.7066   15.1294 C   0  0  0  0  0  0
   23.3440   22.2594   16.2914 C   0  0  0  0  0  0
   21.9517   22.1714   16.1783 C   0  0  0  0  0  0
   21.2555   21.2082   16.9096 C   0  0  0  0  0  0
   21.9400   20.3257   17.7453 C   0  0  0  0  0  0
   23.3320   20.4154   17.8572 C   0  0  0  0  0  0
   26.4422   24.0673   14.9080 C   0  0  0  0  0  0
   26.2535   24.6334   13.6435 C   0  0  0  0  0  0
   25.8056   23.8328   12.5899 C   0  0  0  0  0  0
   25.5688   22.4701   12.7851 C   0  0  0  0  0  0
   25.7603   21.9103   14.0524 C   0  0  0  0  0  0
   28.6674   21.0449   19.0632 C   0  0  0  0  0  0
   28.3510   20.2098   20.0960 F   0  0  0  0  0  0
   29.1678   22.1815   19.6301 F   0  0  0  0  0  0
   29.7050   20.4562   18.3998 F   0  0  0  0  0  0
   19.4888   21.0852   16.7480 S   0  0  0  0  0  0
   18.9611   22.4303   16.5410 O   0  0  0  0  0  0
   18.9891   20.3100   17.8793 O   0  0  0  0  0  0
   19.2672   20.1450   15.2611 C   0  0  0  0  0  0
   25.5849   24.5466   10.9751 S   0  0  0  0  0  0
   25.3716   25.9808   11.1423 O   0  0  0  0  0  0
   24.5648   23.7695   10.2780 O   0  0  0  0  0  0
   27.1505   24.2868   10.1841 C   0  0  0  0  0  0
   25.7395   20.2790   19.0507 H   0  0  0  0  0  0
   23.8373   23.0607   15.7479 H   0  0  0  0  0  0
   21.4248   22.8683   15.5294 H   0  0  0  0  0  0
   21.4074   19.5655   18.3134 H   0  0  0  0  0  0
   23.8317   19.6966   18.5037 H   0  0  0  0  0  0
   26.7942   24.6964   15.7249 H   0  0  0  0  0  0
   26.4578   25.6917   13.4955 H   0  0  0  0  0  0
   25.2380   21.8353   11.9659 H   0  0  0  0  0  0
   25.5818   20.8446   14.1888 H   0  0  0  0  0  0
   18.1949   20.0267   15.0916 H   0  0  0  0  0  0
   19.7336   19.1660   15.3861 H   0  0  0  0  0  0
   19.7176   20.6867   14.4272 H   0  0  0  0  0  0
   27.0959   24.7078    9.1779 H   0  0  0  0  0  0
   27.3476   23.2147   10.1279 H   0  0  0  0  0  0
   27.9275   24.7952   10.7580 H   0  0  0  0  0  0
  1  2  1  0  0  0
  1  5  2  0  0  0
  1  7  1  0  0  0
  2  3  1  0  0  0
  2  6  1  0  0  0
  3  4  2  0  0  0
  3 30  1  0  0  0
  4  5  1  0  0  0
  4 18  1  0  0  0
  6  8  2  0  0  0
  6 12  1  0  0  0
  7 13  2  0  0  0
  7 17  1  0  0  0
  8  9  1  0  0  0
  8 31  1  0  0  0
  9 10  2  0  0  0
  9 32  1  0  0  0
 10 11  1  0  0  0
 10 22  1  0  0  0
 11 12  2  0  0  0
 11 33  1  0  0  0
 12 34  1  0  0  0
 13 14  1  0  0  0
 13 35  1  0  0  0
 14 15  2  0  0  0
 14 36  1  0  0  0
 15 16  1  0  0  0
 15 26  1  0  0  0
 16 17  2  0  0  0
 16 37  1  0  0  0
 17 38  1  0  0  0
 18 19  1  0  0  0
 18 20  1  0  0  0
 18 21  1  0  0  0
 22 23  2  0  0  0
 22 24  2  0  0  0
 22 25  1  0  0  0
 25 39  1  0  0  0
 25 40  1  0  0  0
 25 41  1  0  0  0
 26 27  2  0  0  0
 26 28  2  0  0  0
 26 29  1  0  0  0
 29 42  1  0  0  0
 29 43  1  0  0  0
 29 44  1  0  0  0
M  END
>  <Name>
3-17

>  <Family>
B.1

>  <IC50_uM>
5.700000

>  <set>
0

$$$$
3-18
  Cerius2 12120216093D 1   1.00000                          
 Structure written by MMmdl.
 37 39  0  0  0  0  0  0  0  0999 V2000
   26.4072   22.1303   16.4603 C   0  0  0  0  0  0
   25.4700   21.4598   17.2568 N   0  0  0  0  0  0
   26.1996   20.8844   18.2812 C   0  0  0  0  0  0
   27.5021   21.3232   18.1598 C   0  0  0  0  0  0
   27.6054   22.1146   17.0295 N   0  0  0  0  0  0
   24.0488   21.3743   17.1217 C   0  0  0  0  0  0
   26.1795   22.7072   15.1307 C   0  0  0  0  0  0
   23.3441   22.2591   16.2927 C   0  0  0  0  0  0
   21.9515   22.1711   16.1813 C   0  0  0  0  0  0
   21.2539   21.2071   16.9119 C   0  0  0  0  0  0
   21.9399   20.3259   17.7480 C   0  0  0  0  0  0
   23.3323   20.4156   17.8588 C   0  0  0  0  0  0
   26.4394   24.0673   14.9086 C   0  0  0  0  0  0
   26.2489   24.6301   13.6430 C   0  0  0  0  0  0
   25.8109   23.8313   12.5890 C   0  0  0  0  0  0
   25.5673   22.4740   12.7883 C   0  0  0  0  0  0
   25.7577   21.9117   14.0544 C   0  0  0  0  0  0
   28.6707   21.0404   19.0581 C   0  0  0  0  0  0
   28.3600   20.1901   20.0802 F   0  0  0  0  0  0
   29.1626   22.1733   19.6392 F   0  0  0  0  0  0
   29.7129   20.4672   18.3880 F   0  0  0  0  0  0
   25.5775   24.5229   11.0303 Cl  0  0  0  0  0  0
   19.4947   21.0882   16.7398 S   0  0  0  0  0  0
   18.9479   22.3994   16.4377 O   0  0  0  0  0  0
   18.9646   20.3043   17.8412 O   0  0  0  0  0  0
   19.3381   20.1661   15.3502 N   0  0  0  0  0  0
   25.7418   20.2770   19.0496 H   0  0  0  0  0  0
   23.8367   23.0610   15.7495 H   0  0  0  0  0  0
   21.4201   22.8682   15.5361 H   0  0  0  0  0  0
   21.4072   19.5671   18.3172 H   0  0  0  0  0  0
   23.8323   19.6975   18.5059 H   0  0  0  0  0  0
   26.7891   24.6988   15.7244 H   0  0  0  0  0  0
   26.4478   25.6885   13.4912 H   0  0  0  0  0  0
   25.2337   21.8444   11.9669 H   0  0  0  0  0  0
   25.5761   20.8465   14.1896 H   0  0  0  0  0  0
   18.8615   20.6902   14.6117 H   0  0  0  0  0  0
   18.8624   19.2815   15.5462 H   0  0  0  0  0  0
  1  2  1  0  0  0
  1  5  2  0  0  0
  1  7  1  0  0  0
  2  3  1  0  0  0
  2  6  1  0  0  0
  3  4  2  0  0  0
  3 27  1  0  0  0
  4  5  1  0  0  0
  4 18  1  0  0  0
  6  8  2  0  0  0
  6 12  1  0  0  0
  7 13  2  0  0  0
  7 17  1  0  0  0
  8  9  1  0  0  0
  8 28  1  0  0  0
  9 10  2  0  0  0
  9 29  1  0  0  0
 10 11  1  0  0  0
 10 23  1  0  0  0
 11 12  2  0  0  0
 11 30  1  0  0  0
 12 31  1  0  0  0
 13 14  1  0  0  0
 13 32  1  0  0  0
 14 15  2  0  0  0
 14 33  1  0  0  0
 15 16  1  0  0  0
 15 22  1  0  0  0
 16 17  2  0  0  0
 16 34  1  0  0  0
 17 35  1  0  0  0
 18 19  1  0  0  0
 18 20  1  0  0  0
 18 21  1  0  0  0
 23 24  2  0  0  0
 23 25  2  0  0  0
 23 26  1  0  0  0
 26 36  1  0  0  0
 26 37  1  0  0  0
M  END
>  <Name>
3-18

>  <Family>
B.1

>  <IC50_uM>
0.010000

>  <set>
0

$$$$
3-19
  Cerius2 12120216093D 1   1.00000                          
 Structure written by MMmdl.
 37 39  0  0  0  0  0  0  0  0999 V2000
   26.4068   22.1304   16.4601 C   0  0  0  0  0  0
   25.4700   21.4600   17.2571 N   0  0  0  0  0  0
   26.2000   20.8847   18.2815 C   0  0  0  0  0  0
   27.5024   21.3233   18.1592 C   0  0  0  0  0  0
   27.6053   22.1142   17.0285 N   0  0  0  0  0  0
   24.0486   21.3746   17.1223 C   0  0  0  0  0  0
   26.1789   22.7076   15.1304 C   0  0  0  0  0  0
   23.3440   22.2594   16.2931 C   0  0  0  0  0  0
   21.9515   22.1714   16.1813 C   0  0  0  0  0  0
   21.2538   21.2075   16.9118 C   0  0  0  0  0  0
   21.9397   20.3264   17.7481 C   0  0  0  0  0  0
   23.3321   20.4160   17.8594 C   0  0  0  0  0  0
   26.4389   24.0692   14.9094 C   0  0  0  0  0  0
   26.2499   24.6305   13.6441 C   0  0  0  0  0  0
   25.8146   23.8276   12.5968 C   0  0  0  0  0  0
   25.5695   22.4733   12.7886 C   0  0  0  0  0  0
   25.7579   21.9105   14.0535 C   0  0  0  0  0  0
   28.6719   21.0404   19.0565 C   0  0  0  0  0  0
   28.3580   20.2036   20.0887 F   0  0  0  0  0  0
   29.1751   22.1753   19.6238 F   0  0  0  0  0  0
   29.7070   20.4518   18.3889 F   0  0  0  0  0  0
   25.6354   24.3656   11.3831 F   0  0  0  0  0  0
   19.4947   21.0872   16.7398 S   0  0  0  0  0  0
   18.9462   22.3997   16.4464 O   0  0  0  0  0  0
   18.9650   20.2957   17.8360 O   0  0  0  0  0  0
   19.3401   20.1728   15.3449 N   0  0  0  0  0  0
   25.7423   20.2774   19.0502 H   0  0  0  0  0  0
   23.8368   23.0615   15.7502 H   0  0  0  0  0  0
   21.4205   22.8689   15.5362 H   0  0  0  0  0  0
   21.4066   19.5678   18.3175 H   0  0  0  0  0  0
   23.8320   19.6982   18.5068 H   0  0  0  0  0  0
   26.7875   24.7005   15.7256 H   0  0  0  0  0  0
   26.4444   25.6857   13.4748 H   0  0  0  0  0  0
   25.2384   21.8587   11.9563 H   0  0  0  0  0  0
   25.5767   20.8455   14.1888 H   0  0  0  0  0  0
   18.8631   20.7004   14.6091 H   0  0  0  0  0  0
   18.8661   19.2861   15.5353 H   0  0  0  0  0  0
  1  2  1  0  0  0
  1  5  2  0  0  0
  1  7  1  0  0  0
  2  3  1  0  0  0
  2  6  1  0  0  0
  3  4  2  0  0  0
  3 27  1  0  0  0
  4  5  1  0  0  0
  4 18  1  0  0  0
  6  8  2  0  0  0
  6 12  1  0  0  0
  7 13  2  0  0  0
  7 17  1  0  0  0
  8  9  1  0  0  0
  8 28  1  0  0  0
  9 10  2  0  0  0
  9 29  1  0  0  0
 10 11  1  0  0  0
 10 23  1  0  0  0
 11 12  2  0  0  0
 11 30  1  0  0  0
 12 31  1  0  0  0
 13 14  1  0  0  0
 13 32  1  0  0  0
 14 15  2  0  0  0
 14 33  1  0  0  0
 15 16  1  0  0  0
 15 22  1  0  0  0
 16 17  2  0  0  0
 16 34  1  0  0  0
 17 35  1  0  0  0
 18 19  1  0  0  0
 18 20  1  0  0  0
 18 21  1  0  0  0
 23 24  2  0  0  0
 23 25  2  0  0  0
 23 26  1  0  0  0
 26 36  1  0  0  0
 26 37  1  0  0  0
M  END
>  <Name>
3-19

>  <Family>
B.1

>  <IC50_uM>
0.010000

>  <set>
0

$$$$
3-20
  Cerius2 12120216093D 1   1.00000                          
 Structure written by MMmdl.
 37 39  0  0  0  0  0  0  0  0999 V2000
   26.4077   22.1301   16.4598 C   0  0  0  0  0  0
   25.4699   21.4603   17.2564 N   0  0  0  0  0  0
   26.1992   20.8859   18.2819 C   0  0  0  0  0  0
   27.5020   21.3231   18.1600 C   0  0  0  0  0  0
   27.6060   22.1135   17.0291 N   0  0  0  0  0  0
   24.0483   21.3743   17.1215 C   0  0  0  0  0  0
   26.1805   22.7076   15.1302 C   0  0  0  0  0  0
   23.3429   22.2585   16.2925 C   0  0  0  0  0  0
   21.9502   22.1702   16.1813 C   0  0  0  0  0  0
   21.2532   21.2060   16.9119 C   0  0  0  0  0  0
   21.9396   20.3252   17.7479 C   0  0  0  0  0  0
   23.3320   20.4154   17.8586 C   0  0  0  0  0  0
   26.4407   24.0672   14.9082 C   0  0  0  0  0  0
   26.2494   24.6292   13.6437 C   0  0  0  0  0  0
   25.8100   23.8341   12.5867 C   0  0  0  0  0  0
   25.5680   22.4764   12.7899 C   0  0  0  0  0  0
   25.7585   21.9132   14.0540 C   0  0  0  0  0  0
   28.6706   21.0407   19.0586 C   0  0  0  0  0  0
   28.3608   20.1875   20.0786 F   0  0  0  0  0  0
   29.1595   22.1734   19.6428 F   0  0  0  0  0  0
   29.7146   20.4713   18.3883 F   0  0  0  0  0  0
   19.4939   21.0883   16.7408 S   0  0  0  0  0  0
   18.9463   22.4015   16.4489 O   0  0  0  0  0  0
   18.9653   20.2961   17.8371 O   0  0  0  0  0  0
   19.3360   20.1768   15.3443 N   0  0  0  0  0  0
   25.7409   20.2801   19.0513 H   0  0  0  0  0  0
   23.8351   23.0599   15.7480 H   0  0  0  0  0  0
   21.4185   22.8669   15.5359 H   0  0  0  0  0  0
   21.4073   19.5657   18.3168 H   0  0  0  0  0  0
   23.8318   19.6975   18.5060 H   0  0  0  0  0  0
   26.7908   24.6984   15.7239 H   0  0  0  0  0  0
   26.4468   25.6876   13.4838 H   0  0  0  0  0  0
   25.6623   24.2719   11.6009 H   0  0  0  0  0  0
   25.2340   21.8531   11.9622 H   0  0  0  0  0  0
   25.5763   20.8482   14.1893 H   0  0  0  0  0  0
   18.8601   20.7073   14.6099 H   0  0  0  0  0  0
   18.8595   19.2911   15.5336 H   0  0  0  0  0  0
  1  2  1  0  0  0
  1  5  2  0  0  0
  1  7  1  0  0  0
  2  3  1  0  0  0
  2  6  1  0  0  0
  3  4  2  0  0  0
  3 26  1  0  0  0
  4  5  1  0  0  0
  4 18  1  0  0  0
  6  8  2  0  0  0
  6 12  1  0  0  0
  7 13  2  0  0  0
  7 17  1  0  0  0
  8  9  1  0  0  0
  8 27  1  0  0  0
  9 10  2  0  0  0
  9 28  1  0  0  0
 10 11  1  0  0  0
 10 22  1  0  0  0
 11 12  2  0  0  0
 11 29  1  0  0  0
 12 30  1  0  0  0
 13 14  1  0  0  0
 13 31  1  0  0  0
 14 15  2  0  0  0
 14 32  1  0  0  0
 15 16  1  0  0  0
 15 33  1  0  0  0
 16 17  2  0  0  0
 16 34  1  0  0  0
 17 35  1  0  0  0
 18 19  1  0  0  0
 18 20  1  0  0  0
 18 21  1  0  0  0
 22 23  2  0  0  0
 22 24  2  0  0  0
 22 25  1  0  0  0
 25 36  1  0  0  0
 25 37  1  0  0  0
M  END
>  <Name>
3-20

>  <Family>
B.1

>  <IC50_uM>
0.040000

>  <set>
0

$$$$
3-21
  Cerius2 12120216093D 1   1.00000                          
 Structure written by MMmdl.
 40 42  0  0  0  0  0  0  0  0999 V2000
   26.4083   22.1291   16.4593 C   0  0  0  0  0  0
   25.4698   21.4592   17.2550 N   0  0  0  0  0  0
   26.1977   20.8873   18.2830 C   0  0  0  0  0  0
   27.4999   21.3272   18.1639 C   0  0  0  0  0  0
   27.6053   22.1154   17.0316 N   0  0  0  0  0  0
   24.0483   21.3726   17.1189 C   0  0  0  0  0  0
   26.1828   22.7064   15.1294 C   0  0  0  0  0  0
   23.3426   22.2575   16.2907 C   0  0  0  0  0  0
   21.9497   22.1701   16.1809 C   0  0  0  0  0  0
   21.2526   21.2067   16.9122 C   0  0  0  0  0  0
   21.9394   20.3247   17.7466 C   0  0  0  0  0  0
   23.3320   20.4134   17.8557 C   0  0  0  0  0  0
   26.4412   24.0653   14.9083 C   0  0  0  0  0  0
   26.2501   24.6294   13.6436 C   0  0  0  0  0  0
   25.8211   23.8384   12.5723 C   0  0  0  0  0  0
   25.5682   22.4791   12.7886 C   0  0  0  0  0  0
   25.7590   21.9147   14.0536 C   0  0  0  0  0  0
   28.6661   21.0494   19.0667 C   0  0  0  0  0  0
   28.3499   20.2132   20.0988 F   0  0  0  0  0  0
   29.1630   22.1868   19.6349 F   0  0  0  0  0  0
   29.7063   20.4629   18.4051 F   0  0  0  0  0  0
   19.4929   21.0885   16.7449 S   0  0  0  0  0  0
   18.9452   22.4018   16.4539 O   0  0  0  0  0  0
   18.9652   20.2967   17.8418 O   0  0  0  0  0  0
   19.3335   20.1756   15.3495 N   0  0  0  0  0  0
   25.5832   24.4510   11.2229 C   0  0  0  0  0  0
   25.7390   20.2818   19.0522 H   0  0  0  0  0  0
   23.8344   23.0590   15.7463 H   0  0  0  0  0  0
   21.4182   22.8679   15.5365 H   0  0  0  0  0  0
   21.4070   19.5662   18.3166 H   0  0  0  0  0  0
   23.8318   19.6947   18.5021 H   0  0  0  0  0  0
   26.7871   24.6970   15.7254 H   0  0  0  0  0  0
   26.4429   25.6923   13.5020 H   0  0  0  0  0  0
   25.2240   21.8457   11.9716 H   0  0  0  0  0  0
   25.5720   20.8505   14.1883 H   0  0  0  0  0  0
   18.8561   20.7046   14.6150 H   0  0  0  0  0  0
   18.8586   19.2895   15.5401 H   0  0  0  0  0  0
   25.7586   23.7209   10.4259 H   0  0  0  0  0  0
   26.2650   25.2904   11.0500 H   0  0  0  0  0  0
   24.5524   24.8115   11.1527 H   0  0  0  0  0  0
  1  2  1  0  0  0
  1  5  2  0  0  0
  1  7  1  0  0  0
  2  3  1  0  0  0
  2  6  1  0  0  0
  3  4  2  0  0  0
  3 27  1  0  0  0
  4  5  1  0  0  0
  4 18  1  0  0  0
  6  8  2  0  0  0
  6 12  1  0  0  0
  7 13  2  0  0  0
  7 17  1  0  0  0
  8  9  1  0  0  0
  8 28  1  0  0  0
  9 10  2  0  0  0
  9 29  1  0  0  0
 10 11  1  0  0  0
 10 22  1  0  0  0
 11 12  2  0  0  0
 11 30  1  0  0  0
 12 31  1  0  0  0
 13 14  1  0  0  0
 13 32  1  0  0  0
 14 15  2  0  0  0
 14 33  1  0  0  0
 15 16  1  0  0  0
 15 26  1  0  0  0
 16 17  2  0  0  0
 16 34  1  0  0  0
 17 35  1  0  0  0
 18 19  1  0  0  0
 18 20  1  0  0  0
 18 21  1  0  0  0
 22 23  2  0  0  0
 22 24  2  0  0  0
 22 25  1  0  0  0
 25 36  1  0  0  0
 25 37  1  0  0  0
 26 38  1  0  0  0
 26 39  1  0  0  0
 26 40  1  0  0  0
M  END
>  <Name>
3-21

>  <Family>
B.1

>  <IC50_uM>
0.040000

>  <set>
1

$$$$
3-22
  Cerius2 12120216093D 1   1.00000                          
 Structure written by MMmdl.
 38 40  0  0  0  0  0  0  0  0999 V2000
   26.4069   22.1311   16.4596 C   0  0  0  0  0  0
   25.4696   21.4597   17.2552 N   0  0  0  0  0  0
   26.1988   20.8844   18.2799 C   0  0  0  0  0  0
   27.5007   21.3253   18.1604 C   0  0  0  0  0  0
   27.6043   22.1174   17.0305 N   0  0  0  0  0  0
   24.0484   21.3743   17.1202 C   0  0  0  0  0  0
   26.1812   22.7093   15.1301 C   0  0  0  0  0  0
   23.3437   22.2589   16.2908 C   0  0  0  0  0  0
   21.9511   22.1716   16.1782 C   0  0  0  0  0  0
   21.2549   21.2086   16.9096 C   0  0  0  0  0  0
   21.9397   20.3260   17.7450 C   0  0  0  0  0  0
   23.3318   20.4156   17.8568 C   0  0  0  0  0  0
   26.4424   24.0691   14.9122 C   0  0  0  0  0  0
   26.2529   24.6242   13.6468 C   0  0  0  0  0  0
   25.8158   23.8346   12.5850 C   0  0  0  0  0  0
   25.5737   22.4764   12.7873 C   0  0  0  0  0  0
   25.7624   21.9143   14.0520 C   0  0  0  0  0  0
   28.6685   21.0443   19.0606 C   0  0  0  0  0  0
   28.3554   20.2001   20.0869 F   0  0  0  0  0  0
   29.1628   22.1792   19.6361 F   0  0  0  0  0  0
   29.7096   20.4655   18.3938 F   0  0  0  0  0  0
   19.4880   21.0853   16.7493 S   0  0  0  0  0  0
   18.9602   22.4308   16.5450 O   0  0  0  0  0  0
   18.9889   20.3083   17.8797 O   0  0  0  0  0  0
   19.2648   20.1476   15.2612 C   0  0  0  0  0  0
   26.5633   26.2989   13.3935 Cl  0  0  0  0  0  0
   25.7409   20.2761   19.0476 H   0  0  0  0  0  0
   23.8370   23.0600   15.7469 H   0  0  0  0  0  0
   21.4245   22.8690   15.5295 H   0  0  0  0  0  0
   21.4072   19.5660   18.3133 H   0  0  0  0  0  0
   23.8317   19.6971   18.5035 H   0  0  0  0  0  0
   26.7902   24.6930   15.7330 H   0  0  0  0  0  0
   25.6677   24.2659   11.5976 H   0  0  0  0  0  0
   25.2417   21.8531   11.9590 H   0  0  0  0  0  0
   25.5816   20.8486   14.1863 H   0  0  0  0  0  0
   18.1922   20.0301   15.0925 H   0  0  0  0  0  0
   19.7309   19.1682   15.3842 H   0  0  0  0  0  0
   19.7147   20.6903   14.4278 H   0  0  0  0  0  0
  1  2  1  0  0  0
  1  5  2  0  0  0
  1  7  1  0  0  0
  2  3  1  0  0  0
  2  6  1  0  0  0
  3  4  2  0  0  0
  3 27  1  0  0  0
  4  5  1  0  0  0
  4 18  1  0  0  0
  6  8  2  0  0  0
  6 12  1  0  0  0
  7 13  2  0  0  0
  7 17  1  0  0  0
  8  9  1  0  0  0
  8 28  1  0  0  0
  9 10  2  0  0  0
  9 29  1  0  0  0
 10 11  1  0  0  0
 10 22  1  0  0  0
 11 12  2  0  0  0
 11 30  1  0  0  0
 12 31  1  0  0  0
 13 14  1  0  0  0
 13 32  1  0  0  0
 14 15  2  0  0  0
 14 26  1  0  0  0
 15 16  1  0  0  0
 15 33  1  0  0  0
 16 17  2  0  0  0
 16 34  1  0  0  0
 17 35  1  0  0  0
 18 19  1  0  0  0
 18 20  1  0  0  0
 18 21  1  0  0  0
 22 23  2  0  0  0
 22 24  2  0  0  0
 22 25  1  0  0  0
 25 36  1  0  0  0
 25 37  1  0  0  0
 25 38  1  0  0  0
M  END
>  <Name>
3-22

>  <Family>
B.1

>  <IC50_uM>
0.060000

>  <set>
0

$$$$
3-23
  Cerius2 12120216093D 1   1.00000                          
 Structure written by MMmdl.
 38 40  0  0  0  0  0  0  0  0999 V2000
   26.4064   22.1324   16.4598 C   0  0  0  0  0  0
   25.4696   21.4595   17.2546 N   0  0  0  0  0  0
   26.1991   20.8830   18.2786 C   0  0  0  0  0  0
   27.5005   21.3255   18.1600 C   0  0  0  0  0  0
   27.6036   22.1192   17.0311 N   0  0  0  0  0  0
   24.0483   21.3741   17.1200 C   0  0  0  0  0  0
   26.1810   22.7111   15.1306 C   0  0  0  0  0  0
   23.3439   22.2589   16.2906 C   0  0  0  0  0  0
   21.9512   22.1718   16.1781 C   0  0  0  0  0  0
   21.2549   21.2088   16.9096 C   0  0  0  0  0  0
   21.9398   20.3260   17.7450 C   0  0  0  0  0  0
   23.3318   20.4155   17.8568 C   0  0  0  0  0  0
   26.4414   24.0699   14.9134 C   0  0  0  0  0  0
   26.2527   24.6178   13.6488 C   0  0  0  0  0  0
   25.8188   23.8370   12.5841 C   0  0  0  0  0  0
   25.5764   22.4798   12.7836 C   0  0  0  0  0  0
   25.7637   21.9171   14.0498 C   0  0  0  0  0  0
   28.6687   21.0444   19.0598 C   0  0  0  0  0  0
   28.3536   20.2075   20.0916 F   0  0  0  0  0  0
   29.1691   22.1802   19.6280 F   0  0  0  0  0  0
   29.7059   20.4571   18.3945 F   0  0  0  0  0  0
   19.4880   21.0857   16.7502 S   0  0  0  0  0  0
   18.9601   22.4317   16.5497 O   0  0  0  0  0  0
   18.9894   20.3058   17.8788 O   0  0  0  0  0  0
   19.2641   20.1515   15.2599 C   0  0  0  0  0  0
   26.4956   25.9210   13.4533 F   0  0  0  0  0  0
   25.7414   20.2731   19.0452 H   0  0  0  0  0  0
   23.8374   23.0599   15.7468 H   0  0  0  0  0  0
   21.4246   22.8695   15.5298 H   0  0  0  0  0  0
   21.4070   19.5660   18.3131 H   0  0  0  0  0  0
   23.8317   19.6971   18.5034 H   0  0  0  0  0  0
   26.7876   24.7070   15.7229 H   0  0  0  0  0  0
   25.6780   24.2850   11.6045 H   0  0  0  0  0  0
   25.2459   21.8567   11.9546 H   0  0  0  0  0  0
   25.5833   20.8511   14.1829 H   0  0  0  0  0  0
   18.1915   20.0333   15.0921 H   0  0  0  0  0  0
   19.7313   19.1723   15.3801 H   0  0  0  0  0  0
   19.7125   20.6968   14.4274 H   0  0  0  0  0  0
  1  2  1  0  0  0
  1  5  2  0  0  0
  1  7  1  0  0  0
  2  3  1  0  0  0
  2  6  1  0  0  0
  3  4  2  0  0  0
  3 27  1  0  0  0
  4  5  1  0  0  0
  4 18  1  0  0  0
  6  8  2  0  0  0
  6 12  1  0  0  0
  7 13  2  0  0  0
  7 17  1  0  0  0
  8  9  1  0  0  0
  8 28  1  0  0  0
  9 10  2  0  0  0
  9 29  1  0  0  0
 10 11  1  0  0  0
 10 22  1  0  0  0
 11 12  2  0  0  0
 11 30  1  0  0  0
 12 31  1  0  0  0
 13 14  1  0  0  0
 13 32  1  0  0  0
 14 15  2  0  0  0
 14 26  1  0  0  0
 15 16  1  0  0  0
 15 33  1  0  0  0
 16 17  2  0  0  0
 16 34  1  0  0  0
 17 35  1  0  0  0
 18 19  1  0  0  0
 18 20  1  0  0  0
 18 21  1  0  0  0
 22 23  2  0  0  0
 22 24  2  0  0  0
 22 25  1  0  0  0
 25 36  1  0  0  0
 25 37  1  0  0  0
 25 38  1  0  0  0
M  END
>  <Name>
3-23

>  <Family>
B.1

>  <IC50_uM>
0.120000

>  <set>
0

$$$$
3-24
  Cerius2 12120216093D 1   1.00000                          
 Structure written by MMmdl.
 38 40  0  0  0  0  0  0  0  0999 V2000
   26.4071   22.1314   16.4598 C   0  0  0  0  0  0
   25.4697   21.4596   17.2550 N   0  0  0  0  0  0
   26.1990   20.8838   18.2795 C   0  0  0  0  0  0
   27.5008   21.3253   18.1606 C   0  0  0  0  0  0
   27.6043   22.1181   17.0312 N   0  0  0  0  0  0
   24.0484   21.3739   17.1196 C   0  0  0  0  0  0
   26.1815   22.7096   15.1303 C   0  0  0  0  0  0
   23.3436   22.2584   16.2902 C   0  0  0  0  0  0
   21.9509   22.1712   16.1779 C   0  0  0  0  0  0
   21.2546   21.2083   16.9097 C   0  0  0  0  0  0
   21.9398   20.3253   17.7446 C   0  0  0  0  0  0
   23.3319   20.4151   17.8561 C   0  0  0  0  0  0
   26.4425   24.0696   14.9122 C   0  0  0  0  0  0
   26.2525   24.6238   13.6461 C   0  0  0  0  0  0
   25.8154   23.8342   12.5842 C   0  0  0  0  0  0
   25.5739   22.4762   12.7878 C   0  0  0  0  0  0
   25.7626   21.9144   14.0527 C   0  0  0  0  0  0
   28.6689   21.0439   19.0601 C   0  0  0  0  0  0
   28.3567   20.1977   20.0852 F   0  0  0  0  0  0
   29.1624   22.1781   19.6373 F   0  0  0  0  0  0
   29.7103   20.4670   18.3924 F   0  0  0  0  0  0
   19.4876   21.0864   16.7500 S   0  0  0  0  0  0
   18.9605   22.4319   16.5436 O   0  0  0  0  0  0
   18.9885   20.3116   17.8819 O   0  0  0  0  0  0
   19.2628   20.1469   15.2633 C   0  0  0  0  0  0
   26.5936   26.4632   13.3673 Br  0  0  0  0  0  0
   25.7412   20.2746   19.0466 H   0  0  0  0  0  0
   23.8366   23.0593   15.7460 H   0  0  0  0  0  0
   21.4241   22.8686   15.5294 H   0  0  0  0  0  0
   21.4075   19.5650   18.3126 H   0  0  0  0  0  0
   23.8317   19.6965   18.5028 H   0  0  0  0  0  0
   26.7904   24.6911   15.7352 H   0  0  0  0  0  0
   25.6659   24.2618   11.5950 H   0  0  0  0  0  0
   25.2421   21.8521   11.9600 H   0  0  0  0  0  0
   25.5816   20.8488   14.1874 H   0  0  0  0  0  0
   18.1900   20.0312   15.0948 H   0  0  0  0  0  0
   19.7268   19.1668   15.3879 H   0  0  0  0  0  0
   19.7136   20.6877   14.4292 H   0  0  0  0  0  0
  1  2  1  0  0  0
  1  5  2  0  0  0
  1  7  1  0  0  0
  2  3  1  0  0  0
  2  6  1  0  0  0
  3  4  2  0  0  0
  3 27  1  0  0  0
  4  5  1  0  0  0
  4 18  1  0  0  0
  6  8  2  0  0  0
  6 12  1  0  0  0
  7 13  2  0  0  0
  7 17  1  0  0  0
  8  9  1  0  0  0
  8 28  1  0  0  0
  9 10  2  0  0  0
  9 29  1  0  0  0
 10 11  1  0  0  0
 10 22  1  0  0  0
 11 12  2  0  0  0
 11 30  1  0  0  0
 12 31  1  0  0  0
 13 14  1  0  0  0
 13 32  1  0  0  0
 14 15  2  0  0  0
 14 26  1  0  0  0
 15 16  1  0  0  0
 15 33  1  0  0  0
 16 17  2  0  0  0
 16 34  1  0  0  0
 17 35  1  0  0  0
 18 19  1  0  0  0
 18 20  1  0  0  0
 18 21  1  0  0  0
 22 23  2  0  0  0
 22 24  2  0  0  0
 22 25  1  0  0  0
 25 36  1  0  0  0
 25 37  1  0  0  0
 25 38  1  0  0  0
M  END
>  <Name>
3-24

>  <Family>
B.1

>  <IC50_uM>
0.080000

>  <set>
0

$$$$
3-25
  Cerius2 12120216093D 1   1.00000                          
 Structure written by MMmdl.
 41 43  0  0  0  0  0  0  0  0999 V2000
   26.4087   22.1282   16.4595 C   0  0  0  0  0  0
   25.4702   21.4594   17.2562 N   0  0  0  0  0  0
   26.1982   20.8877   18.2841 C   0  0  0  0  0  0
   27.5006   21.3269   18.1639 C   0  0  0  0  0  0
   27.6059   22.1145   17.0313 N   0  0  0  0  0  0
   24.0487   21.3734   17.1199 C   0  0  0  0  0  0
   26.1820   22.7044   15.1293 C   0  0  0  0  0  0
   23.3439   22.2577   16.2904 C   0  0  0  0  0  0
   21.9513   22.1707   16.1775 C   0  0  0  0  0  0
   21.2547   21.2079   16.9088 C   0  0  0  0  0  0
   21.9396   20.3248   17.7438 C   0  0  0  0  0  0
   23.3317   20.4143   17.8559 C   0  0  0  0  0  0
   26.4384   24.0661   14.9079 C   0  0  0  0  0  0
   26.2522   24.6381   13.6409 C   0  0  0  0  0  0
   25.7942   23.8342   12.5914 C   0  0  0  0  0  0
   25.5576   22.4747   12.7951 C   0  0  0  0  0  0
   25.7588   21.9096   14.0554 C   0  0  0  0  0  0
   28.6675   21.0488   19.0660 C   0  0  0  0  0  0
   28.3533   20.2086   20.0954 F   0  0  0  0  0  0
   29.1619   22.1855   19.6378 F   0  0  0  0  0  0
   29.7089   20.4670   18.4023 F   0  0  0  0  0  0
   19.4878   21.0867   16.7489 S   0  0  0  0  0  0
   18.9618   22.4320   16.5386 O   0  0  0  0  0  0
   18.9875   20.3152   17.8824 O   0  0  0  0  0  0
   19.2636   20.1433   15.2645 C   0  0  0  0  0  0
   26.4849   26.1058   13.4302 C   0  0  0  0  0  0
   25.7394   20.2826   19.0537 H   0  0  0  0  0  0
   23.8371   23.0585   15.7459 H   0  0  0  0  0  0
   21.4250   22.8681   15.5286 H   0  0  0  0  0  0
   21.4070   19.5647   18.3119 H   0  0  0  0  0  0
   23.8311   19.6955   18.5026 H   0  0  0  0  0  0
   26.7827   24.6875   15.7347 H   0  0  0  0  0  0
   25.6247   24.2612   11.6034 H   0  0  0  0  0  0
   25.2152   21.8528   11.9697 H   0  0  0  0  0  0
   25.5788   20.8442   14.1905 H   0  0  0  0  0  0
   18.1910   20.0258   15.0961 H   0  0  0  0  0  0
   19.7288   19.1638   15.3914 H   0  0  0  0  0  0
   19.7141   20.6823   14.4289 H   0  0  0  0  0  0
   26.7777   26.3109   12.3951 H   0  0  0  0  0  0
   27.2928   26.4687   14.0742 H   0  0  0  0  0  0
   25.5719   26.6650   13.6568 H   0  0  0  0  0  0
  1  2  1  0  0  0
  1  5  2  0  0  0
  1  7  1  0  0  0
  2  3  1  0  0  0
  2  6  1  0  0  0
  3  4  2  0  0  0
  3 27  1  0  0  0
  4  5  1  0  0  0
  4 18  1  0  0  0
  6  8  2  0  0  0
  6 12  1  0  0  0
  7 13  2  0  0  0
  7 17  1  0  0  0
  8  9  1  0  0  0
  8 28  1  0  0  0
  9 10  2  0  0  0
  9 29  1  0  0  0
 10 11  1  0  0  0
 10 22  1  0  0  0
 11 12  2  0  0  0
 11 30  1  0  0  0
 12 31  1  0  0  0
 13 14  1  0  0  0
 13 32  1  0  0  0
 14 15  2  0  0  0
 14 26  1  0  0  0
 15 16  1  0  0  0
 15 33  1  0  0  0
 16 17  2  0  0  0
 16 34  1  0  0  0
 17 35  1  0  0  0
 18 19  1  0  0  0
 18 20  1  0  0  0
 18 21  1  0  0  0
 22 23  2  0  0  0
 22 24  2  0  0  0
 22 25  1  0  0  0
 25 36  1  0  0  0
 25 37  1  0  0  0
 25 38  1  0  0  0
 26 39  1  0  0  0
 26 40  1  0  0  0
 26 41  1  0  0  0
M  END
>  <Name>
3-25

>  <Family>
B.1

>  <IC50_uM>
0.060000

>  <set>
0

$$$$
3-26
  Cerius2 12120216093D 1   1.00000                          
 Structure written by MMmdl.
 41 43  0  0  0  0  0  0  0  0999 V2000
   26.4063   22.1284   16.4596 C   0  0  0  0  0  0
   25.4690   21.4582   17.2563 N   0  0  0  0  0  0
   26.1981   20.8854   18.2826 C   0  0  0  0  0  0
   27.4997   21.3274   18.1630 C   0  0  0  0  0  0
   27.6032   22.1176   17.0317 N   0  0  0  0  0  0
   24.0478   21.3727   17.1214 C   0  0  0  0  0  0
   26.1807   22.7039   15.1285 C   0  0  0  0  0  0
   23.3432   22.2575   16.2921 C   0  0  0  0  0  0
   21.9506   22.1703   16.1794 C   0  0  0  0  0  0
   21.2542   21.2074   16.9109 C   0  0  0  0  0  0
   21.9390   20.3246   17.7462 C   0  0  0  0  0  0
   23.3311   20.4139   17.8579 C   0  0  0  0  0  0
   26.4384   24.0659   14.9074 C   0  0  0  0  0  0
   26.2579   24.6420   13.6381 C   0  0  0  0  0  0
   25.8080   23.8312   12.5859 C   0  0  0  0  0  0
   25.5694   22.4715   12.7902 C   0  0  0  0  0  0
   25.7634   21.9087   14.0527 C   0  0  0  0  0  0
   28.6672   21.0498   19.0646 C   0  0  0  0  0  0
   28.3582   20.1962   20.0843 F   0  0  0  0  0  0
   29.1506   22.1848   19.6491 F   0  0  0  0  0  0
   29.7150   20.4841   18.3971 F   0  0  0  0  0  0
   19.4873   21.0859   16.7503 S   0  0  0  0  0  0
   18.9608   22.4311   16.5413 O   0  0  0  0  0  0
   18.9872   20.3132   17.8831 O   0  0  0  0  0  0
   19.2637   20.1439   15.2648 C   0  0  0  0  0  0
   26.5077   26.1129   13.4241 C   0  0  0  0  0  0
   25.4091   26.8802   13.6956 F   0  0  0  0  0  0
   26.8657   26.4290   12.1421 F   0  0  0  0  0  0
   27.5079   26.6172   14.2096 F   0  0  0  0  0  0
   25.7402   20.2783   19.0512 H   0  0  0  0  0  0
   23.8366   23.0583   15.7479 H   0  0  0  0  0  0
   21.4240   22.8676   15.5307 H   0  0  0  0  0  0
   21.4065   19.5645   18.3145 H   0  0  0  0  0  0
   23.8309   19.6954   18.5044 H   0  0  0  0  0  0
   26.7820   24.6872   15.7354 H   0  0  0  0  0  0
   25.6480   24.2556   11.5947 H   0  0  0  0  0  0
   25.2336   21.8477   11.9635 H   0  0  0  0  0  0
   25.5845   20.8429   14.1869 H   0  0  0  0  0  0
   18.1912   20.0268   15.0963 H   0  0  0  0  0  0
   19.7289   19.1645   15.3909 H   0  0  0  0  0  0
   19.7141   20.6840   14.4300 H   0  0  0  0  0  0
  1  2  1  0  0  0
  1  5  2  0  0  0
  1  7  1  0  0  0
  2  3  1  0  0  0
  2  6  1  0  0  0
  3  4  2  0  0  0
  3 30  1  0  0  0
  4  5  1  0  0  0
  4 18  1  0  0  0
  6  8  2  0  0  0
  6 12  1  0  0  0
  7 13  2  0  0  0
  7 17  1  0  0  0
  8  9  1  0  0  0
  8 31  1  0  0  0
  9 10  2  0  0  0
  9 32  1  0  0  0
 10 11  1  0  0  0
 10 22  1  0  0  0
 11 12  2  0  0  0
 11 33  1  0  0  0
 12 34  1  0  0  0
 13 14  1  0  0  0
 13 35  1  0  0  0
 14 15  2  0  0  0
 14 26  1  0  0  0
 15 16  1  0  0  0
 15 36  1  0  0  0
 16 17  2  0  0  0
 16 37  1  0  0  0
 17 38  1  0  0  0
 18 19  1  0  0  0
 18 20  1  0  0  0
 18 21  1  0  0  0
 22 23  2  0  0  0
 22 24  2  0  0  0
 22 25  1  0  0  0
 25 39  1  0  0  0
 25 40  1  0  0  0
 25 41  1  0  0  0
 26 27  1  0  0  0
 26 28  1  0  0  0
 26 29  1  0  0  0
M  END
>  <Name>
3-26

>  <Family>
B.1

>  <IC50_uM>
0.210000

>  <set>
0

$$$$
3-27
  Cerius2 12120216093D 1   1.00000                          
 Structure written by MMmdl.
 42 44  0  0  0  0  0  0  0  0999 V2000
   26.4076   22.1285   16.4589 C   0  0  0  0  0  0
   25.4697   21.4601   17.2567 N   0  0  0  0  0  0
   26.1985   20.8871   18.2832 C   0  0  0  0  0  0
   27.5008   21.3260   18.1621 C   0  0  0  0  0  0
   27.6053   22.1139   17.0294 N   0  0  0  0  0  0
   24.0483   21.3750   17.1219 C   0  0  0  0  0  0
   26.1809   22.7039   15.1284 C   0  0  0  0  0  0
   23.3437   22.2592   16.2921 C   0  0  0  0  0  0
   21.9513   22.1714   16.1788 C   0  0  0  0  0  0
   21.2549   21.2081   16.9099 C   0  0  0  0  0  0
   21.9397   20.3260   17.7461 C   0  0  0  0  0  0
   23.3317   20.4163   17.8586 C   0  0  0  0  0  0
   26.4413   24.0639   14.9052 C   0  0  0  0  0  0
   26.2538   24.6371   13.6427 C   0  0  0  0  0  0
   25.8132   23.8380   12.5880 C   0  0  0  0  0  0
   25.5707   22.4772   12.7931 C   0  0  0  0  0  0
   25.7598   21.9104   14.0542 C   0  0  0  0  0  0
   28.6683   21.0466   19.0632 C   0  0  0  0  0  0
   28.3493   20.2220   20.1036 F   0  0  0  0  0  0
   29.1764   22.1848   19.6197 F   0  0  0  0  0  0
   29.7011   20.4463   18.4028 F   0  0  0  0  0  0
   19.4885   21.0844   16.7464 S   0  0  0  0  0  0
   18.9607   22.4291   16.5380 O   0  0  0  0  0  0
   18.9878   20.3099   17.8777 O   0  0  0  0  0  0
   19.2682   20.1435   15.2599 C   0  0  0  0  0  0
   26.5347   25.9744   13.5731 O   0  0  0  0  0  0
   26.9740   26.6015   14.7771 C   0  0  0  0  0  0
   25.7400   20.2817   19.0528 H   0  0  0  0  0  0
   23.8370   23.0600   15.7478 H   0  0  0  0  0  0
   21.4247   22.8684   15.5296 H   0  0  0  0  0  0
   21.4072   19.5659   18.3143 H   0  0  0  0  0  0
   23.8315   19.6980   18.5056 H   0  0  0  0  0  0
   26.7912   24.6868   15.7276 H   0  0  0  0  0  0
   25.6530   24.2370   11.5898 H   0  0  0  0  0  0
   25.2361   21.8553   11.9643 H   0  0  0  0  0  0
   25.5771   20.8452   14.1870 H   0  0  0  0  0  0
   18.1960   20.0262   15.0892 H   0  0  0  0  0  0
   19.7336   19.1641   15.3860 H   0  0  0  0  0  0
   19.7202   20.6843   14.4263 H   0  0  0  0  0  0
   27.1564   27.6573   14.5544 H   0  0  0  0  0  0
   27.9161   26.1662   15.1263 H   0  0  0  0  0  0
   26.2010   26.5518   15.5510 H   0  0  0  0  0  0
  1  2  1  0  0  0
  1  5  2  0  0  0
  1  7  1  0  0  0
  2  3  1  0  0  0
  2  6  1  0  0  0
  3  4  2  0  0  0
  3 28  1  0  0  0
  4  5  1  0  0  0
  4 18  1  0  0  0
  6  8  2  0  0  0
  6 12  1  0  0  0
  7 13  2  0  0  0
  7 17  1  0  0  0
  8  9  1  0  0  0
  8 29  1  0  0  0
  9 10  2  0  0  0
  9 30  1  0  0  0
 10 11  1  0  0  0
 10 22  1  0  0  0
 11 12  2  0  0  0
 11 31  1  0  0  0
 12 32  1  0  0  0
 13 14  1  0  0  0
 13 33  1  0  0  0
 14 15  2  0  0  0
 14 26  1  0  0  0
 15 16  1  0  0  0
 15 34  1  0  0  0
 16 17  2  0  0  0
 16 35  1  0  0  0
 17 36  1  0  0  0
 18 19  1  0  0  0
 18 20  1  0  0  0
 18 21  1  0  0  0
 22 23  2  0  0  0
 22 24  2  0  0  0
 22 25  1  0  0  0
 25 37  1  0  0  0
 25 38  1  0  0  0
 25 39  1  0  0  0
 26 27  1  0  0  0
 27 40  1  0  0  0
 27 41  1  0  0  0
 27 42  1  0  0  0
M  END
>  <Name>
3-27

>  <Family>
B.1

>  <IC50_uM>
0.350000

>  <set>
1

$$$$
3-28
  Cerius2 12120216093D 1   1.00000                          
 Structure written by MMmdl.
 42 44  0  0  0  0  0  0  0  0999 V2000
   26.4084   22.1289   16.4594 C   0  0  0  0  0  0
   25.4701   21.4599   17.2561 N   0  0  0  0  0  0
   26.1983   20.8874   18.2832 C   0  0  0  0  0  0
   27.5008   21.3264   18.1628 C   0  0  0  0  0  0
   27.6057   22.1148   17.0305 N   0  0  0  0  0  0
   24.0489   21.3741   17.1197 C   0  0  0  0  0  0
   26.1821   22.7043   15.1290 C   0  0  0  0  0  0
   23.3442   22.2585   16.2900 C   0  0  0  0  0  0
   21.9516   22.1712   16.1773 C   0  0  0  0  0  0
   21.2551   21.2084   16.9086 C   0  0  0  0  0  0
   21.9400   20.3254   17.7438 C   0  0  0  0  0  0
   23.3321   20.4149   17.8555 C   0  0  0  0  0  0
   26.4475   24.0641   14.9058 C   0  0  0  0  0  0
   26.2518   24.6368   13.6431 C   0  0  0  0  0  0
   25.8214   23.8287   12.5868 C   0  0  0  0  0  0
   25.5749   22.4700   12.7923 C   0  0  0  0  0  0
   25.7581   21.9088   14.0563 C   0  0  0  0  0  0
   28.6679   21.0467   19.0641 C   0  0  0  0  0  0
   28.3506   20.2150   20.0993 F   0  0  0  0  0  0
   29.1708   22.1838   19.6275 F   0  0  0  0  0  0
   29.7040   20.4541   18.4017 F   0  0  0  0  0  0
   19.4883   21.0862   16.7484 S   0  0  0  0  0  0
   18.9613   22.4315   16.5408 O   0  0  0  0  0  0
   18.9887   20.3122   17.8806 O   0  0  0  0  0  0
   19.2645   20.1453   15.2622 C   0  0  0  0  0  0
   26.6108   26.3724   13.4233 S   0  0  0  0  0  0
   27.1012   26.8231   15.1143 C   0  0  0  0  0  0
   25.7396   20.2818   19.0526 H   0  0  0  0  0  0
   23.8374   23.0595   15.7459 H   0  0  0  0  0  0
   21.4250   22.8686   15.5286 H   0  0  0  0  0  0
   21.4074   19.5652   18.3119 H   0  0  0  0  0  0
   23.8317   19.6960   18.5019 H   0  0  0  0  0  0
   26.8019   24.6785   15.7328 H   0  0  0  0  0  0
   25.6881   24.2365   11.5870 H   0  0  0  0  0  0
   25.2473   21.8457   11.9628 H   0  0  0  0  0  0
   25.5734   20.8442   14.1928 H   0  0  0  0  0  0
   18.1919   20.0295   15.0929 H   0  0  0  0  0  0
   19.7286   19.1654   15.3879 H   0  0  0  0  0  0
   19.7160   20.6853   14.4279 H   0  0  0  0  0  0
   27.4980   27.8419   15.1077 H   0  0  0  0  0  0
   27.8809   26.1496   15.4807 H   0  0  0  0  0  0
   26.2431   26.7946   15.7902 H   0  0  0  0  0  0
  1  2  1  0  0  0
  1  5  2  0  0  0
  1  7  1  0  0  0
  2  3  1  0  0  0
  2  6  1  0  0  0
  3  4  2  0  0  0
  3 28  1  0  0  0
  4  5  1  0  0  0
  4 18  1  0  0  0
  6  8  2  0  0  0
  6 12  1  0  0  0
  7 13  2  0  0  0
  7 17  1  0  0  0
  8  9  1  0  0  0
  8 29  1  0  0  0
  9 10  2  0  0  0
  9 30  1  0  0  0
 10 11  1  0  0  0
 10 22  1  0  0  0
 11 12  2  0  0  0
 11 31  1  0  0  0
 12 32  1  0  0  0
 13 14  1  0  0  0
 13 33  1  0  0  0
 14 15  2  0  0  0
 14 26  1  0  0  0
 15 16  1  0  0  0
 15 34  1  0  0  0
 16 17  2  0  0  0
 16 35  1  0  0  0
 17 36  1  0  0  0
 18 19  1  0  0  0
 18 20  1  0  0  0
 18 21  1  0  0  0
 22 23  2  0  0  0
 22 24  2  0  0  0
 22 25  1  0  0  0
 25 37  1  0  0  0
 25 38  1  0  0  0
 25 39  1  0  0  0
 26 27  1  0  0  0
 27 40  1  0  0  0
 27 41  1  0  0  0
 27 42  1  0  0  0
M  END
>  <Name>
3-28

>  <Family>
B.1

>  <IC50_uM>
0.350000

>  <set>
1

$$$$
3-29
  Cerius2 12120216093D 1   1.00000                          
 Structure written by MMmdl.
 45 47  0  0  0  0  0  0  0  0999 V2000
   26.4065   22.1297   16.4600 C   0  0  0  0  0  0
   25.4688   21.4589   17.2559 N   0  0  0  0  0  0
   26.1977   20.8839   18.2813 C   0  0  0  0  0  0
   27.4996   21.3243   18.1620 C   0  0  0  0  0  0
   27.6036   22.1163   17.0321 N   0  0  0  0  0  0
   24.0476   21.3737   17.1209 C   0  0  0  0  0  0
   26.1809   22.7052   15.1290 C   0  0  0  0  0  0
   23.3431   22.2581   16.2911 C   0  0  0  0  0  0
   21.9505   22.1716   16.1789 C   0  0  0  0  0  0
   21.2541   21.2087   16.9102 C   0  0  0  0  0  0
   21.9388   20.3259   17.7459 C   0  0  0  0  0  0
   23.3307   20.4152   17.8578 C   0  0  0  0  0  0
   26.4380   24.0667   14.9073 C   0  0  0  0  0  0
   26.2576   24.6399   13.6380 C   0  0  0  0  0  0
   25.8085   23.8307   12.5859 C   0  0  0  0  0  0
   25.5704   22.4715   12.7907 C   0  0  0  0  0  0
   25.7641   21.9091   14.0534 C   0  0  0  0  0  0
   28.6672   21.0436   19.0624 C   0  0  0  0  0  0
   28.3621   20.1751   20.0708 F   0  0  0  0  0  0
   29.1412   22.1745   19.6621 F   0  0  0  0  0  0
   29.7203   20.4935   18.3903 F   0  0  0  0  0  0
   19.4873   21.0836   16.7514 S   0  0  0  0  0  0
   18.9587   22.4295   16.5524 O   0  0  0  0  0  0
   18.9892   20.3021   17.8790 O   0  0  0  0  0  0
   19.2646   20.1502   15.2606 C   0  0  0  0  0  0
   26.5120   26.1083   13.4188 C   0  0  0  0  0  0
   27.8758   26.2664   13.0148 O   0  0  0  0  0  0
   28.1864   27.6429   12.8070 C   0  0  0  0  0  0
   25.7392   20.2761   19.0490 H   0  0  0  0  0  0
   23.8373   23.0581   15.7460 H   0  0  0  0  0  0
   21.4245   22.8692   15.5302 H   0  0  0  0  0  0
   21.4057   19.5660   18.3139 H   0  0  0  0  0  0
   23.8302   19.6967   18.5047 H   0  0  0  0  0  0
   26.7785   24.6892   15.7348 H   0  0  0  0  0  0
   25.6470   24.2561   11.5959 H   0  0  0  0  0  0
   25.2348   21.8478   11.9640 H   0  0  0  0  0  0
   25.5851   20.8434   14.1883 H   0  0  0  0  0  0
   18.1922   20.0276   15.0946 H   0  0  0  0  0  0
   19.7363   19.1729   15.3791 H   0  0  0  0  0  0
   19.7093   20.6982   14.4279 H   0  0  0  0  0  0
   26.3252   26.6668   14.3440 H   0  0  0  0  0  0
   25.8424   26.4987   12.6428 H   0  0  0  0  0  0
   29.2331   27.7148   12.4997 H   0  0  0  0  0  0
   28.0536   28.2087   13.7340 H   0  0  0  0  0  0
   27.5586   28.0606   12.0141 H   0  0  0  0  0  0
  1  2  1  0  0  0
  1  5  2  0  0  0
  1  7  1  0  0  0
  2  3  1  0  0  0
  2  6  1  0  0  0
  3  4  2  0  0  0
  3 29  1  0  0  0
  4  5  1  0  0  0
  4 18  1  0  0  0
  6  8  2  0  0  0
  6 12  1  0  0  0
  7 13  2  0  0  0
  7 17  1  0  0  0
  8  9  1  0  0  0
  8 30  1  0  0  0
  9 10  2  0  0  0
  9 31  1  0  0  0
 10 11  1  0  0  0
 10 22  1  0  0  0
 11 12  2  0  0  0
 11 32  1  0  0  0
 12 33  1  0  0  0
 13 14  1  0  0  0
 13 34  1  0  0  0
 14 15  2  0  0  0
 14 26  1  0  0  0
 15 16  1  0  0  0
 15 35  1  0  0  0
 16 17  2  0  0  0
 16 36  1  0  0  0
 17 37  1  0  0  0
 18 19  1  0  0  0
 18 20  1  0  0  0
 18 21  1  0  0  0
 22 23  2  0  0  0
 22 24  2  0  0  0
 22 25  1  0  0  0
 25 38  1  0  0  0
 25 39  1  0  0  0
 25 40  1  0  0  0
 26 27  1  0  0  0
 26 41  1  0  0  0
 26 42  1  0  0  0
 27 28  1  0  0  0
 28 43  1  0  0  0
 28 44  1  0  0  0
 28 45  1  0  0  0
M  END
>  <Name>
3-29

>  <Family>
B.1

>  <IC50_uM>
68.100000

>  <set>
2

$$$$
3-30
  Cerius2 12120216093D 1   1.00000                          
 Structure written by MMmdl.
 46 48  0  0  0  0  0  0  0  0999 V2000
   26.4063   22.1250   16.4569 C   0  0  0  0  0  0
   25.4682   21.4604   17.2574 N   0  0  0  0  0  0
   26.1965   20.8919   18.2867 C   0  0  0  0  0  0
   27.4994   21.3287   18.1630 C   0  0  0  0  0  0
   27.6040   22.1128   17.0277 N   0  0  0  0  0  0
   24.0467   21.3746   17.1227 C   0  0  0  0  0  0
   26.1799   22.6940   15.1227 C   0  0  0  0  0  0
   23.3415   22.2583   16.2929 C   0  0  0  0  0  0
   21.9489   22.1701   16.1802 C   0  0  0  0  0  0
   21.2532   21.2066   16.9117 C   0  0  0  0  0  0
   21.9386   20.3249   17.7476 C   0  0  0  0  0  0
   23.3306   20.4155   17.8596 C   0  0  0  0  0  0
   26.4420   24.0598   14.8945 C   0  0  0  0  0  0
   26.2659   24.6682   13.6370 C   0  0  0  0  0  0
   25.8217   23.8260   12.6026 C   0  0  0  0  0  0
   25.5760   22.4617   12.8023 C   0  0  0  0  0  0
   25.7616   21.8946   14.0576 C   0  0  0  0  0  0
   28.6671   21.0512   19.0642 C   0  0  0  0  0  0
   28.3580   20.1987   20.0850 F   0  0  0  0  0  0
   29.1516   22.1862   19.6475 F   0  0  0  0  0  0
   29.7142   20.4838   18.3968 F   0  0  0  0  0  0
   19.4866   21.0813   16.7502 S   0  0  0  0  0  0
   18.9574   22.4263   16.5462 O   0  0  0  0  0  0
   18.9877   20.3032   17.8798 O   0  0  0  0  0  0
   19.2656   20.1441   15.2614 C   0  0  0  0  0  0
   26.5170   26.0196   13.4292 N   0  0  0  0  0  0
   26.3294   26.6353   12.1137 C   0  0  0  0  0  0
   26.9778   26.8852   14.5167 C   0  0  0  0  0  0
   25.7377   20.2903   19.0591 H   0  0  0  0  0  0
   23.8346   23.0590   15.7482 H   0  0  0  0  0  0
   21.4219   22.8668   15.5311 H   0  0  0  0  0  0
   21.4066   19.5645   18.3160 H   0  0  0  0  0  0
   23.8308   19.6976   18.5066 H   0  0  0  0  0  0
   26.7900   24.6450   15.7442 H   0  0  0  0  0  0
   25.6574   24.2095   11.5971 H   0  0  0  0  0  0
   25.2422   21.8443   11.9700 H   0  0  0  0  0  0
   25.5791   20.8302   14.1932 H   0  0  0  0  0  0
   18.1932   20.0260   15.0914 H   0  0  0  0  0  0
   19.7320   19.1649   15.3846 H   0  0  0  0  0  0
   19.7160   20.6874   14.4287 H   0  0  0  0  0  0
   26.5750   27.7026   12.1232 H   0  0  0  0  0  0
   25.2858   26.5508   11.7917 H   0  0  0  0  0  0
   26.9810   26.1653   11.3691 H   0  0  0  0  0  0
   27.1239   27.9181   14.1832 H   0  0  0  0  0  0
   27.9400   26.5370   14.9078 H   0  0  0  0  0  0
   26.2422   26.9131   15.3280 H   0  0  0  0  0  0
  1  2  1  0  0  0
  1  5  2  0  0  0
  1  7  1  0  0  0
  2  3  1  0  0  0
  2  6  1  0  0  0
  3  4  2  0  0  0
  3 29  1  0  0  0
  4  5  1  0  0  0
  4 18  1  0  0  0
  6  8  2  0  0  0
  6 12  1  0  0  0
  7 13  2  0  0  0
  7 17  1  0  0  0
  8  9  1  0  0  0
  8 30  1  0  0  0
  9 10  2  0  0  0
  9 31  1  0  0  0
 10 11  1  0  0  0
 10 22  1  0  0  0
 11 12  2  0  0  0
 11 32  1  0  0  0
 12 33  1  0  0  0
 13 14  1  0  0  0
 13 34  1  0  0  0
 14 15  2  0  0  0
 14 26  1  0  0  0
 15 16  1  0  0  0
 15 35  1  0  0  0
 16 17  2  0  0  0
 16 36  1  0  0  0
 17 37  1  0  0  0
 18 19  1  0  0  0
 18 20  1  0  0  0
 18 21  1  0  0  0
 22 23  2  0  0  0
 22 24  2  0  0  0
 22 25  1  0  0  0
 25 38  1  0  0  0
 25 39  1  0  0  0
 25 40  1  0  0  0
 26 27  1  0  0  0
 26 28  1  0  0  0
 27 41  1  0  0  0
 27 42  1  0  0  0
 27 43  1  0  0  0
 28 44  1  0  0  0
 28 45  1  0  0  0
 28 46  1  0  0  0
M  END
>  <Name>
3-30

>  <Family>
B.1

>  <IC50_uM>
3.200000

>  <set>
1

$$$$
3-31
  Cerius2 12120216093D 1   1.00000                          
 Structure written by MMmdl.
 43 45  0  0  0  0  0  0  0  0999 V2000
   26.4074   22.1272   16.4582 C   0  0  0  0  0  0
   25.4691   21.4607   17.2570 N   0  0  0  0  0  0
   26.1974   20.8899   18.2852 C   0  0  0  0  0  0
   27.5004   21.3269   18.1628 C   0  0  0  0  0  0
   27.6053   22.1125   17.0287 N   0  0  0  0  0  0
   24.0476   21.3748   17.1218 C   0  0  0  0  0  0
   26.1812   22.6992   15.1259 C   0  0  0  0  0  0
   23.3422   22.2585   16.2920 C   0  0  0  0  0  0
   21.9497   22.1702   16.1791 C   0  0  0  0  0  0
   21.2538   21.2068   16.9105 C   0  0  0  0  0  0
   21.9392   20.3248   17.7462 C   0  0  0  0  0  0
   23.3313   20.4155   17.8580 C   0  0  0  0  0  0
   26.4426   24.0617   14.8990 C   0  0  0  0  0  0
   26.2591   24.6522   13.6398 C   0  0  0  0  0  0
   25.8163   23.8317   12.5968 C   0  0  0  0  0  0
   25.5720   22.4693   12.7977 C   0  0  0  0  0  0
   25.7601   21.9026   14.0562 C   0  0  0  0  0  0
   28.6682   21.0478   19.0635 C   0  0  0  0  0  0
   28.3536   20.2104   20.0949 F   0  0  0  0  0  0
   29.1664   22.1845   19.6321 F   0  0  0  0  0  0
   29.7070   20.4621   18.3992 F   0  0  0  0  0  0
   19.4872   21.0836   16.7487 S   0  0  0  0  0  0
   18.9593   22.4280   16.5376 O   0  0  0  0  0  0
   18.9873   20.3117   17.8822 O   0  0  0  0  0  0
   19.2656   20.1398   15.2640 C   0  0  0  0  0  0
   26.5199   25.9986   13.4864 N   0  0  0  0  0  0
   26.9831   26.8681   14.5482 C   0  0  0  0  0  0
   25.7386   20.2866   19.0564 H   0  0  0  0  0  0
   23.8351   23.0592   15.7470 H   0  0  0  0  0  0
   21.4227   22.8667   15.5299 H   0  0  0  0  0  0
   21.4074   19.5643   18.3145 H   0  0  0  0  0  0
   23.8312   19.6970   18.5047 H   0  0  0  0  0  0
   26.7928   24.6735   15.7303 H   0  0  0  0  0  0
   25.6564   24.2346   11.5986 H   0  0  0  0  0  0
   25.2373   21.8504   11.9670 H   0  0  0  0  0  0
   25.5766   20.8380   14.1912 H   0  0  0  0  0  0
   18.1931   20.0227   15.0940 H   0  0  0  0  0  0
   19.7303   19.1605   15.3921 H   0  0  0  0  0  0
   19.7174   20.6787   14.4292 H   0  0  0  0  0  0
   26.3859   26.4268   12.5693 H   0  0  0  0  0  0
   27.1131   27.8829   14.1593 H   0  0  0  0  0  0
   27.9498   26.5331   14.9375 H   0  0  0  0  0  0
   26.2558   26.9140   15.3650 H   0  0  0  0  0  0
  1  2  1  0  0  0
  1  5  2  0  0  0
  1  7  1  0  0  0
  2  3  1  0  0  0
  2  6  1  0  0  0
  3  4  2  0  0  0
  3 28  1  0  0  0
  4  5  1  0  0  0
  4 18  1  0  0  0
  6  8  2  0  0  0
  6 12  1  0  0  0
  7 13  2  0  0  0
  7 17  1  0  0  0
  8  9  1  0  0  0
  8 29  1  0  0  0
  9 10  2  0  0  0
  9 30  1  0  0  0
 10 11  1  0  0  0
 10 22  1  0  0  0
 11 12  2  0  0  0
 11 31  1  0  0  0
 12 32  1  0  0  0
 13 14  1  0  0  0
 13 33  1  0  0  0
 14 15  2  0  0  0
 14 26  1  0  0  0
 15 16  1  0  0  0
 15 34  1  0  0  0
 16 17  2  0  0  0
 16 35  1  0  0  0
 17 36  1  0  0  0
 18 19  1  0  0  0
 18 20  1  0  0  0
 18 21  1  0  0  0
 22 23  2  0  0  0
 22 24  2  0  0  0
 22 25  1  0  0  0
 25 37  1  0  0  0
 25 38  1  0  0  0
 25 39  1  0  0  0
 26 27  1  0  0  0
 26 40  1  0  0  0
 27 41  1  0  0  0
 27 42  1  0  0  0
 27 43  1  0  0  0
M  END
>  <Name>
3-31

>  <Family>
B.1

>  <IC50_uM>
0.920000

>  <set>
1

$$$$
3-32
  Cerius2 12120216093D 1   1.00000                          
 Structure written by MMmdl.
 40 42  0  0  0  0  0  0  0  0999 V2000
   26.4070   22.1290   16.4581 C   0  0  0  0  0  0
   25.4687   21.4607   17.2556 N   0  0  0  0  0  0
   26.1970   20.8895   18.2836 C   0  0  0  0  0  0
   27.4999   21.3269   18.1618 C   0  0  0  0  0  0
   27.6047   22.1139   17.0287 N   0  0  0  0  0  0
   24.0472   21.3739   17.1202 C   0  0  0  0  0  0
   26.1808   22.7039   15.1271 C   0  0  0  0  0  0
   23.3413   22.2579   16.2912 C   0  0  0  0  0  0
   21.9488   22.1698   16.1794 C   0  0  0  0  0  0
   21.2533   21.2066   16.9113 C   0  0  0  0  0  0
   21.9390   20.3241   17.7461 C   0  0  0  0  0  0
   23.3313   20.4143   17.8567 C   0  0  0  0  0  0
   26.4321   24.0682   14.9064 C   0  0  0  0  0  0
   26.2601   24.6420   13.6432 C   0  0  0  0  0  0
   25.7955   23.8385   12.5999 C   0  0  0  0  0  0
   25.5616   22.4756   12.7963 C   0  0  0  0  0  0
   25.7638   21.9069   14.0533 C   0  0  0  0  0  0
   28.6673   21.0469   19.0626 C   0  0  0  0  0  0
   28.3562   20.1961   20.0843 F   0  0  0  0  0  0
   29.1554   22.1810   19.6448 F   0  0  0  0  0  0
   29.7124   20.4761   18.3951 F   0  0  0  0  0  0
   19.4863   21.0839   16.7515 S   0  0  0  0  0  0
   18.9591   22.4285   16.5407 O   0  0  0  0  0  0
   18.9873   20.3126   17.8858 O   0  0  0  0  0  0
   19.2625   20.1396   15.2676 C   0  0  0  0  0  0
   26.4372   26.0008   13.4571 N   0  0  0  0  0  0
   25.7383   20.2857   19.0542 H   0  0  0  0  0  0
   23.8337   23.0590   15.7466 H   0  0  0  0  0  0
   21.4213   22.8667   15.5309 H   0  0  0  0  0  0
   21.4073   19.5639   18.3148 H   0  0  0  0  0  0
   23.8314   19.6956   18.5028 H   0  0  0  0  0  0
   26.7659   24.6888   15.7370 H   0  0  0  0  0  0
   25.6192   24.2673   11.6147 H   0  0  0  0  0  0
   25.2192   21.8583   11.9679 H   0  0  0  0  0  0
   25.5872   20.8408   14.1867 H   0  0  0  0  0  0
   18.1899   20.0223   15.0990 H   0  0  0  0  0  0
   19.7275   19.1604   15.3950 H   0  0  0  0  0  0
   19.7130   20.6782   14.4319 H   0  0  0  0  0  0
   26.4383   26.3956   12.5195 H   0  0  0  0  0  0
   26.8970   26.5633   14.1692 H   0  0  0  0  0  0
  1  2  1  0  0  0
  1  5  2  0  0  0
  1  7  1  0  0  0
  2  3  1  0  0  0
  2  6  1  0  0  0
  3  4  2  0  0  0
  3 27  1  0  0  0
  4  5  1  0  0  0
  4 18  1  0  0  0
  6  8  2  0  0  0
  6 12  1  0  0  0
  7 13  2  0  0  0
  7 17  1  0  0  0
  8  9  1  0  0  0
  8 28  1  0  0  0
  9 10  2  0  0  0
  9 29  1  0  0  0
 10 11  1  0  0  0
 10 22  1  0  0  0
 11 12  2  0  0  0
 11 30  1  0  0  0
 12 31  1  0  0  0
 13 14  1  0  0  0
 13 32  1  0  0  0
 14 15  2  0  0  0
 14 26  1  0  0  0
 15 16  1  0  0  0
 15 33  1  0  0  0
 16 17  2  0  0  0
 16 34  1  0  0  0
 17 35  1  0  0  0
 18 19  1  0  0  0
 18 20  1  0  0  0
 18 21  1  0  0  0
 22 23  2  0  0  0
 22 24  2  0  0  0
 22 25  1  0  0  0
 25 36  1  0  0  0
 25 37  1  0  0  0
 25 38  1  0  0  0
 26 39  1  0  0  0
 26 40  1  0  0  0
M  END
>  <Name>
3-32

>  <Family>
B.1

>  <IC50_uM>
5.890000

>  <set>
1

$$$$
3-33
  Cerius2 12120216093D 1   1.00000                          
 Structure written by MMmdl.
 40 42  0  0  0  0  0  0  0  0999 V2000
   26.4059   22.1313   16.4605 C   0  0  0  0  0  0
   25.4690   21.4585   17.2554 N   0  0  0  0  0  0
   26.1986   20.8822   18.2793 C   0  0  0  0  0  0
   27.5002   21.3243   18.1605 C   0  0  0  0  0  0
   27.6031   22.1180   17.0316 N   0  0  0  0  0  0
   24.0477   21.3732   17.1207 C   0  0  0  0  0  0
   26.1811   22.7111   15.1310 C   0  0  0  0  0  0
   23.3430   22.2580   16.2915 C   0  0  0  0  0  0
   21.9505   22.1706   16.1790 C   0  0  0  0  0  0
   21.2541   21.2076   16.9106 C   0  0  0  0  0  0
   21.9392   20.3249   17.7458 C   0  0  0  0  0  0
   23.3313   20.4144   17.8574 C   0  0  0  0  0  0
   26.4421   24.0722   14.9152 C   0  0  0  0  0  0
   26.2549   24.6266   13.6409 C   0  0  0  0  0  0
   25.8190   23.8305   12.5743 C   0  0  0  0  0  0
   25.5786   22.4724   12.7839 C   0  0  0  0  0  0
   25.7659   21.9150   14.0517 C   0  0  0  0  0  0
   28.6680   21.0432   19.0606 C   0  0  0  0  0  0
   28.3577   20.1908   20.0810 F   0  0  0  0  0  0
   29.1556   22.1769   19.6443 F   0  0  0  0  0  0
   29.7131   20.4741   18.3919 F   0  0  0  0  0  0
   19.4872   21.0862   16.7508 S   0  0  0  0  0  0
   18.9609   22.4317   16.5422 O   0  0  0  0  0  0
   18.9876   20.3134   17.8837 O   0  0  0  0  0  0
   19.2632   20.1446   15.2653 C   0  0  0  0  0  0
   26.5209   26.0537   13.4225 N   0  3  0  0  0  0
   26.4328   26.5013   12.2633 O   0  0  0  0  0  0
   26.8227   26.7564   14.4059 O   0  5  0  0  0  0
   25.7411   20.2725   19.0461 H   0  0  0  0  0  0
   23.8362   23.0593   15.7480 H   0  0  0  0  0  0
   21.4237   22.8681   15.5305 H   0  0  0  0  0  0
   21.4067   19.5649   18.3142 H   0  0  0  0  0  0
   23.8312   19.6959   18.5041 H   0  0  0  0  0  0
   26.7882   24.6862   15.7444 H   0  0  0  0  0  0
   25.6678   24.2461   11.5805 H   0  0  0  0  0  0
   25.2492   21.8441   11.9581 H   0  0  0  0  0  0
   25.5868   20.8489   14.1872 H   0  0  0  0  0  0
   18.1905   20.0274   15.0969 H   0  0  0  0  0  0
   19.7285   19.1651   15.3909 H   0  0  0  0  0  0
   19.7135   20.6847   14.4305 H   0  0  0  0  0  0
  1  2  1  0  0  0
  1  5  2  0  0  0
  1  7  1  0  0  0
  2  3  1  0  0  0
  2  6  1  0  0  0
  3  4  2  0  0  0
  3 29  1  0  0  0
  4  5  1  0  0  0
  4 18  1  0  0  0
  6  8  2  0  0  0
  6 12  1  0  0  0
  7 13  2  0  0  0
  7 17  1  0  0  0
  8  9  1  0  0  0
  8 30  1  0  0  0
  9 10  2  0  0  0
  9 31  1  0  0  0
 10 11  1  0  0  0
 10 22  1  0  0  0
 11 12  2  0  0  0
 11 32  1  0  0  0
 12 33  1  0  0  0
 13 14  1  0  0  0
 13 34  1  0  0  0
 14 15  2  0  0  0
 14 26  1  0  0  0
 15 16  1  0  0  0
 15 35  1  0  0  0
 16 17  2  0  0  0
 16 36  1  0  0  0
 17 37  1  0  0  0
 18 19  1  0  0  0
 18 20  1  0  0  0
 18 21  1  0  0  0
 22 23  2  0  0  0
 22 24  2  0  0  0
 22 25  1  0  0  0
 25 38  1  0  0  0
 25 39  1  0  0  0
 25 40  1  0  0  0
 26 27  2  0  0  0
 26 28  1  0  0  0
M  CHG  2  26   1  28  -1
M  END
>  <Name>
3-33

>  <Family>
B.1

>  <IC50_uM>
0.580000

>  <set>
1

$$$$
3-34
  Cerius2 12120216093D 1   1.00000                          
 Structure written by MMmdl.
 37 39  0  0  0  0  0  0  0  0999 V2000
   26.4059   22.1313   16.4595 C   0  0  0  0  0  0
   25.4696   21.4595   17.2559 N   0  0  0  0  0  0
   26.2001   20.8835   18.2794 C   0  0  0  0  0  0
   27.5020   21.3242   18.1582 C   0  0  0  0  0  0
   27.6039   22.1174   17.0290 N   0  0  0  0  0  0
   24.0482   21.3740   17.1218 C   0  0  0  0  0  0
   26.1791   22.7094   15.1303 C   0  0  0  0  0  0
   23.3431   22.2589   16.2931 C   0  0  0  0  0  0
   21.9506   22.1705   16.1820 C   0  0  0  0  0  0
   21.2536   21.2060   16.9124 C   0  0  0  0  0  0
   21.9397   20.3254   17.7488 C   0  0  0  0  0  0
   23.3322   20.4154   17.8594 C   0  0  0  0  0  0
   26.4396   24.0694   14.9122 C   0  0  0  0  0  0
   26.2510   24.6238   13.6464 C   0  0  0  0  0  0
   25.8150   23.8337   12.5846 C   0  0  0  0  0  0
   25.5730   22.4756   12.7873 C   0  0  0  0  0  0
   25.7609   21.9140   14.0525 C   0  0  0  0  0  0
   28.6713   21.0415   19.0557 C   0  0  0  0  0  0
   28.3633   20.1847   20.0730 F   0  0  0  0  0  0
   29.1581   22.1735   19.6431 F   0  0  0  0  0  0
   29.7163   20.4763   18.3834 F   0  0  0  0  0  0
   19.4942   21.0886   16.7412 S   0  0  0  0  0  0
   18.9468   22.4017   16.4492 O   0  0  0  0  0  0
   18.9654   20.2962   17.8372 O   0  0  0  0  0  0
   19.3367   20.1772   15.3445 N   0  0  0  0  0  0
   26.5622   26.2984   13.3927 Cl  0  0  0  0  0  0
   25.7434   20.2748   19.0473 H   0  0  0  0  0  0
   23.8353   23.0609   15.7497 H   0  0  0  0  0  0
   21.4185   22.8676   15.5372 H   0  0  0  0  0  0
   21.4074   19.5666   18.3183 H   0  0  0  0  0  0
   23.8325   19.6975   18.5064 H   0  0  0  0  0  0
   26.7868   24.6937   15.7330 H   0  0  0  0  0  0
   25.6680   24.2643   11.5968 H   0  0  0  0  0  0
   25.2424   21.8516   11.9591 H   0  0  0  0  0  0
   25.5806   20.8482   14.1871 H   0  0  0  0  0  0
   18.8618   20.7083   14.6099 H   0  0  0  0  0  0
   18.8593   19.2919   15.5331 H   0  0  0  0  0  0
  1  2  1  0  0  0
  1  5  2  0  0  0
  1  7  1  0  0  0
  2  3  1  0  0  0
  2  6  1  0  0  0
  3  4  2  0  0  0
  3 27  1  0  0  0
  4  5  1  0  0  0
  4 18  1  0  0  0
  6  8  2  0  0  0
  6 12  1  0  0  0
  7 13  2  0  0  0
  7 17  1  0  0  0
  8  9  1  0  0  0
  8 28  1  0  0  0
  9 10  2  0  0  0
  9 29  1  0  0  0
 10 11  1  0  0  0
 10 22  1  0  0  0
 11 12  2  0  0  0
 11 30  1  0  0  0
 12 31  1  0  0  0
 13 14  1  0  0  0
 13 32  1  0  0  0
 14 15  2  0  0  0
 14 26  1  0  0  0
 15 16  1  0  0  0
 15 33  1  0  0  0
 16 17  2  0  0  0
 16 34  1  0  0  0
 17 35  1  0  0  0
 18 19  1  0  0  0
 18 20  1  0  0  0
 18 21  1  0  0  0
 22 23  2  0  0  0
 22 24  2  0  0  0
 22 25  1  0  0  0
 25 36  1  0  0  0
 25 37  1  0  0  0
M  END
>  <Name>
3-34

>  <Family>
B.1

>  <IC50_uM>
0.008000

>  <set>
1

$$$$
3-35
  Cerius2 12120216093D 1   1.00000                          
 Structure written by MMmdl.
 37 39  0  0  0  0  0  0  0  0999 V2000
   26.4057   22.1326   16.4597 C   0  0  0  0  0  0
   25.4696   21.4593   17.2550 N   0  0  0  0  0  0
   26.2001   20.8821   18.2778 C   0  0  0  0  0  0
   27.5016   21.3245   18.1582 C   0  0  0  0  0  0
   27.6035   22.1191   17.0299 N   0  0  0  0  0  0
   24.0482   21.3738   17.1213 C   0  0  0  0  0  0
   26.1795   22.7113   15.1308 C   0  0  0  0  0  0
   23.3430   22.2587   16.2928 C   0  0  0  0  0  0
   21.9504   22.1709   16.1823 C   0  0  0  0  0  0
   21.2531   21.2070   16.9132 C   0  0  0  0  0  0
   21.9395   20.3259   17.7490 C   0  0  0  0  0  0
   23.3322   20.4154   17.8592 C   0  0  0  0  0  0
   26.4398   24.0701   14.9131 C   0  0  0  0  0  0
   26.2509   24.6175   13.6484 C   0  0  0  0  0  0
   25.8171   23.8362   12.5839 C   0  0  0  0  0  0
   25.5748   22.4790   12.7839 C   0  0  0  0  0  0
   25.7622   21.9168   14.0503 C   0  0  0  0  0  0
   28.6705   21.0425   19.0566 C   0  0  0  0  0  0
   28.3609   20.1907   20.0777 F   0  0  0  0  0  0
   29.1602   22.1758   19.6392 F   0  0  0  0  0  0
   29.7139   20.4721   18.3862 F   0  0  0  0  0  0
   19.4937   21.0882   16.7421 S   0  0  0  0  0  0
   18.9457   22.4008   16.4495 O   0  0  0  0  0  0
   18.9652   20.2965   17.8389 O   0  0  0  0  0  0
   19.3364   20.1751   15.3467 N   0  0  0  0  0  0
   26.4938   25.9206   13.4522 F   0  0  0  0  0  0
   25.7433   20.2718   19.0446 H   0  0  0  0  0  0
   23.8355   23.0605   15.7494 H   0  0  0  0  0  0
   21.4187   22.8683   15.5376 H   0  0  0  0  0  0
   21.4071   19.5672   18.3185 H   0  0  0  0  0  0
   23.8324   19.6975   18.5061 H   0  0  0  0  0  0
   26.7863   24.7074   15.7223 H   0  0  0  0  0  0
   25.6761   24.2839   11.6041 H   0  0  0  0  0  0
   25.2448   21.8555   11.9550 H   0  0  0  0  0  0
   25.5822   20.8508   14.1838 H   0  0  0  0  0  0
   18.8585   20.7039   14.6124 H   0  0  0  0  0  0
   18.8616   19.2888   15.5371 H   0  0  0  0  0  0
  1  2  1  0  0  0
  1  5  2  0  0  0
  1  7  1  0  0  0
  2  3  1  0  0  0
  2  6  1  0  0  0
  3  4  2  0  0  0
  3 27  1  0  0  0
  4  5  1  0  0  0
  4 18  1  0  0  0
  6  8  2  0  0  0
  6 12  1  0  0  0
  7 13  2  0  0  0
  7 17  1  0  0  0
  8  9  1  0  0  0
  8 28  1  0  0  0
  9 10  2  0  0  0
  9 29  1  0  0  0
 10 11  1  0  0  0
 10 22  1  0  0  0
 11 12  2  0  0  0
 11 30  1  0  0  0
 12 31  1  0  0  0
 13 14  1  0  0  0
 13 32  1  0  0  0
 14 15  2  0  0  0
 14 26  1  0  0  0
 15 16  1  0  0  0
 15 33  1  0  0  0
 16 17  2  0  0  0
 16 34  1  0  0  0
 17 35  1  0  0  0
 18 19  1  0  0  0
 18 20  1  0  0  0
 18 21  1  0  0  0
 22 23  2  0  0  0
 22 24  2  0  0  0
 22 25  1  0  0  0
 25 36  1  0  0  0
 25 37  1  0  0  0
M  END
>  <Name>
3-35

>  <Family>
B.1

>  <IC50_uM>
0.030000

>  <set>
0

$$$$
3-36
  Cerius2 12120216093D 1   1.00000                          
 Structure written by MMmdl.
 37 39  0  0  0  0  0  0  0  0999 V2000
   26.4066   22.1312   16.4598 C   0  0  0  0  0  0
   25.4700   21.4596   17.2561 N   0  0  0  0  0  0
   26.2004   20.8838   18.2798 C   0  0  0  0  0  0
   27.5026   21.3235   18.1581 C   0  0  0  0  0  0
   27.6047   22.1167   17.0290 N   0  0  0  0  0  0
   24.0486   21.3739   17.1218 C   0  0  0  0  0  0
   26.1792   22.7095   15.1306 C   0  0  0  0  0  0
   23.3436   22.2587   16.2929 C   0  0  0  0  0  0
   21.9511   22.1706   16.1815 C   0  0  0  0  0  0
   21.2537   21.2063   16.9117 C   0  0  0  0  0  0
   21.9398   20.3255   17.7480 C   0  0  0  0  0  0
   23.3323   20.4152   17.8590 C   0  0  0  0  0  0
   26.4399   24.0696   14.9124 C   0  0  0  0  0  0
   26.2491   24.6235   13.6462 C   0  0  0  0  0  0
   25.8117   23.8336   12.5846 C   0  0  0  0  0  0
   25.5701   22.4757   12.7886 C   0  0  0  0  0  0
   25.7594   21.9141   14.0536 C   0  0  0  0  0  0
   28.6721   21.0402   19.0551 C   0  0  0  0  0  0
   28.3630   20.1883   20.0761 F   0  0  0  0  0  0
   29.1635   22.1728   19.6375 F   0  0  0  0  0  0
   29.7142   20.4692   18.3835 F   0  0  0  0  0  0
   19.4944   21.0892   16.7403 S   0  0  0  0  0  0
   18.9472   22.4025   16.4485 O   0  0  0  0  0  0
   18.9652   20.2968   17.8362 O   0  0  0  0  0  0
   19.3367   20.1776   15.3439 N   0  0  0  0  0  0
   26.5899   26.4628   13.3670 Br  0  0  0  0  0  0
   25.7435   20.2751   19.0478 H   0  0  0  0  0  0
   23.8361   23.0606   15.7495 H   0  0  0  0  0  0
   21.4196   22.8679   15.5366 H   0  0  0  0  0  0
   21.4071   19.5667   18.3176 H   0  0  0  0  0  0
   23.8322   19.6973   18.5063 H   0  0  0  0  0  0
   26.7879   24.6912   15.7350 H   0  0  0  0  0  0
   25.6622   24.2611   11.5954 H   0  0  0  0  0  0
   25.2376   21.8514   11.9611 H   0  0  0  0  0  0
   25.5786   20.8486   14.1887 H   0  0  0  0  0  0
   18.8608   20.7078   14.6093 H   0  0  0  0  0  0
   18.8602   19.2920   15.5331 H   0  0  0  0  0  0
  1  2  1  0  0  0
  1  5  2  0  0  0
  1  7  1  0  0  0
  2  3  1  0  0  0
  2  6  1  0  0  0
  3  4  2  0  0  0
  3 27  1  0  0  0
  4  5  1  0  0  0
  4 18  1  0  0  0
  6  8  2  0  0  0
  6 12  1  0  0  0
  7 13  2  0  0  0
  7 17  1  0  0  0
  8  9  1  0  0  0
  8 28  1  0  0  0
  9 10  2  0  0  0
  9 29  1  0  0  0
 10 11  1  0  0  0
 10 22  1  0  0  0
 11 12  2  0  0  0
 11 30  1  0  0  0
 12 31  1  0  0  0
 13 14  1  0  0  0
 13 32  1  0  0  0
 14 15  2  0  0  0
 14 26  1  0  0  0
 15 16  1  0  0  0
 15 33  1  0  0  0
 16 17  2  0  0  0
 16 34  1  0  0  0
 17 35  1  0  0  0
 18 19  1  0  0  0
 18 20  1  0  0  0
 18 21  1  0  0  0
 22 23  2  0  0  0
 22 24  2  0  0  0
 22 25  1  0  0  0
 25 36  1  0  0  0
 25 37  1  0  0  0
M  END
>  <Name>
3-36

>  <Family>
B.1

>  <IC50_uM>
0.007000

>  <set>
0

$$$$
3-37
  Cerius2 12120216093D 1   1.00000                          
 Structure written by MMmdl.
 40 42  0  0  0  0  0  0  0  0999 V2000
   26.4084   22.1279   16.4594 C   0  0  0  0  0  0
   25.4705   21.4595   17.2570 N   0  0  0  0  0  0
   26.1992   20.8868   18.2837 C   0  0  0  0  0  0
   27.5019   21.3248   18.1621 C   0  0  0  0  0  0
   27.6063   22.1129   17.0295 N   0  0  0  0  0  0
   24.0488   21.3742   17.1222 C   0  0  0  0  0  0
   26.1803   22.7043   15.1294 C   0  0  0  0  0  0
   23.3440   22.2588   16.2931 C   0  0  0  0  0  0
   21.9514   22.1710   16.1817 C   0  0  0  0  0  0
   21.2538   21.2069   16.9118 C   0  0  0  0  0  0
   21.9395   20.3260   17.7484 C   0  0  0  0  0  0
   23.3321   20.4156   17.8594 C   0  0  0  0  0  0
   26.4371   24.0658   14.9075 C   0  0  0  0  0  0
   26.2487   24.6377   13.6409 C   0  0  0  0  0  0
   25.7884   23.8340   12.5921 C   0  0  0  0  0  0
   25.5521   22.4745   12.7960 C   0  0  0  0  0  0
   25.7555   21.9095   14.0561 C   0  0  0  0  0  0
   28.6696   21.0455   19.0626 C   0  0  0  0  0  0
   28.3633   20.1831   20.0759 F   0  0  0  0  0  0
   29.1473   22.1782   19.6560 F   0  0  0  0  0  0
   29.7206   20.4889   18.3924 F   0  0  0  0  0  0
   19.4948   21.0878   16.7383 S   0  0  0  0  0  0
   18.9468   22.4003   16.4447 O   0  0  0  0  0  0
   18.9648   20.2960   17.8343 O   0  0  0  0  0  0
   19.3399   20.1745   15.3427 N   0  0  0  0  0  0
   26.4807   26.1052   13.4287 C   0  0  0  0  0  0
   25.7406   20.2821   19.0538 H   0  0  0  0  0  0
   23.8369   23.0600   15.7488 H   0  0  0  0  0  0
   21.4203   22.8680   15.5361 H   0  0  0  0  0  0
   21.4067   19.5672   18.3176 H   0  0  0  0  0  0
   23.8316   19.6974   18.5065 H   0  0  0  0  0  0
   26.7832   24.6873   15.7336 H   0  0  0  0  0  0
   25.6169   24.2612   11.6045 H   0  0  0  0  0  0
   25.2083   21.8526   11.9713 H   0  0  0  0  0  0
   25.5759   20.8441   14.1915 H   0  0  0  0  0  0
   18.8618   20.7027   14.6082 H   0  0  0  0  0  0
   18.8663   19.2876   15.5329 H   0  0  0  0  0  0
   26.7880   26.3070   12.3973 H   0  0  0  0  0  0
   27.2784   26.4728   14.0827 H   0  0  0  0  0  0
   25.5633   26.6628   13.6405 H   0  0  0  0  0  0
  1  2  1  0  0  0
  1  5  2  0  0  0
  1  7  1  0  0  0
  2  3  1  0  0  0
  2  6  1  0  0  0
  3  4  2  0  0  0
  3 27  1  0  0  0
  4  5  1  0  0  0
  4 18  1  0  0  0
  6  8  2  0  0  0
  6 12  1  0  0  0
  7 13  2  0  0  0
  7 17  1  0  0  0
  8  9  1  0  0  0
  8 28  1  0  0  0
  9 10  2  0  0  0
  9 29  1  0  0  0
 10 11  1  0  0  0
 10 22  1  0  0  0
 11 12  2  0  0  0
 11 30  1  0  0  0
 12 31  1  0  0  0
 13 14  1  0  0  0
 13 32  1  0  0  0
 14 15  2  0  0  0
 14 26  1  0  0  0
 15 16  1  0  0  0
 15 33  1  0  0  0
 16 17  2  0  0  0
 16 34  1  0  0  0
 17 35  1  0  0  0
 18 19  1  0  0  0
 18 20  1  0  0  0
 18 21  1  0  0  0
 22 23  2  0  0  0
 22 24  2  0  0  0
 22 25  1  0  0  0
 25 36  1  0  0  0
 25 37  1  0  0  0
 26 38  1  0  0  0
 26 39  1  0  0  0
 26 40  1  0  0  0
M  END
>  <Name>
3-37

>  <Family>
B.1

>  <IC50_uM>
0.030000

>  <set>
0

$$$$
3-38
  Cerius2 12120216093D 1   1.00000                          
 Structure written by MMmdl.
 38 40  0  0  0  0  0  0  0  0999 V2000
   26.4210   22.1290   16.4662 C   0  0  0  0  0  0
   25.4730   21.4796   17.2681 N   0  0  0  0  0  0
   26.1959   20.9029   18.2976 C   0  0  0  0  0  0
   27.5153   21.2736   18.1423 C   0  0  0  0  0  0
   27.6335   22.0370   16.9962 N   0  0  0  0  0  0
   24.0506   21.3939   17.1243 C   0  0  0  0  0  0
   26.1856   22.7345   15.1511 C   0  0  0  0  0  0
   23.3431   22.2689   16.2880 C   0  0  0  0  0  0
   21.9511   22.1717   16.1675 C   0  0  0  0  0  0
   21.2558   21.2065   16.8961 C   0  0  0  0  0  0
   21.9418   20.3305   17.7364 C   0  0  0  0  0  0
   23.3329   20.4303   17.8554 C   0  0  0  0  0  0
   26.4257   24.0961   14.8994 C   0  0  0  0  0  0
   26.2120   24.6272   13.6224 C   0  0  0  0  0  0
   25.7668   23.8066   12.5857 C   0  0  0  0  0  0
   25.5356   22.4536   12.8203 C   0  0  0  0  0  0
   25.7476   21.9189   14.0930 C   0  0  0  0  0  0
   28.6881   20.9477   19.0200 C   0  0  0  0  0  0
   28.3426   20.2026   20.1106 F   0  0  0  0  0  0
   29.3017   22.0679   19.5015 F   0  0  0  0  0  0
   29.6476   20.2362   18.3597 F   0  0  0  0  0  0
   19.4910   21.0724   16.7238 S   0  0  0  0  0  0
   18.9579   22.4120   16.4962 O   0  0  0  0  0  0
   18.9875   20.3092   17.8616 O   0  0  0  0  0  0
   19.2834   20.1128   15.2474 C   0  0  0  0  0  0
   26.9484   25.1838   16.1410 Cl  0  0  0  0  0  0
   25.7275   20.3287   19.0850 H   0  0  0  0  0  0
   23.8263   23.0738   15.7440 H   0  0  0  0  0  0
   21.4238   22.8641   15.5139 H   0  0  0  0  0  0
   21.4119   19.5672   18.3028 H   0  0  0  0  0  0
   23.8306   19.7133   18.5054 H   0  0  0  0  0  0
   26.3879   25.6830   13.4270 H   0  0  0  0  0  0
   25.6019   24.2238   11.5938 H   0  0  0  0  0  0
   25.1925   21.8111   12.0110 H   0  0  0  0  0  0
   25.5706   20.8560   14.2532 H   0  0  0  0  0  0
   18.2127   19.9885   15.0722 H   0  0  0  0  0  0
   19.7521   19.1371   15.3878 H   0  0  0  0  0  0
   19.7375   20.6457   14.4099 H   0  0  0  0  0  0
  1  2  1  0  0  0
  1  5  2  0  0  0
  1  7  1  0  0  0
  2  3  1  0  0  0
  2  6  1  0  0  0
  3  4  2  0  0  0
  3 27  1  0  0  0
  4  5  1  0  0  0
  4 18  1  0  0  0
  6  8  2  0  0  0
  6 12  1  0  0  0
  7 13  2  0  0  0
  7 17  1  0  0  0
  8  9  1  0  0  0
  8 28  1  0  0  0
  9 10  2  0  0  0
  9 29  1  0  0  0
 10 11  1  0  0  0
 10 22  1  0  0  0
 11 12  2  0  0  0
 11 30  1  0  0  0
 12 31  1  0  0  0
 13 14  1  0  0  0
 13 26  1  0  0  0
 14 15  2  0  0  0
 14 32  1  0  0  0
 15 16  1  0  0  0
 15 33  1  0  0  0
 16 17  2  0  0  0
 16 34  1  0  0  0
 17 35  1  0  0  0
 18 19  1  0  0  0
 18 20  1  0  0  0
 18 21  1  0  0  0
 22 23  2  0  0  0
 22 24  2  0  0  0
 22 25  1  0  0  0
 25 36  1  0  0  0
 25 37  1  0  0  0
 25 38  1  0  0  0
M  END
>  <Name>
3-38

>  <Family>
B.1

>  <IC50_uM>
0.900000

>  <set>
0

$$$$
3-39
  Cerius2 12120216093D 1   1.00000                          
 Structure written by MMmdl.
 38 40  0  0  0  0  0  0  0  0999 V2000
   26.4141   22.1299   16.4619 C   0  0  0  0  0  0
   25.4725   21.4707   17.2626 N   0  0  0  0  0  0
   26.1983   20.8964   18.2905 C   0  0  0  0  0  0
   27.5089   21.3046   18.1536 C   0  0  0  0  0  0
   27.6193   22.0815   17.0142 N   0  0  0  0  0  0
   24.0510   21.3849   17.1227 C   0  0  0  0  0  0
   26.1805   22.7104   15.1380 C   0  0  0  0  0  0
   23.3460   22.2652   16.2892 C   0  0  0  0  0  0
   21.9538   22.1728   16.1714 C   0  0  0  0  0  0
   21.2576   21.2084   16.9008 C   0  0  0  0  0  0
   21.9423   20.3289   17.7393 C   0  0  0  0  0  0
   23.3337   20.4238   17.8564 C   0  0  0  0  0  0
   26.4316   24.0668   14.9027 C   0  0  0  0  0  0
   26.2331   24.6296   13.6436 C   0  0  0  0  0  0
   25.7871   23.8311   12.5918 C   0  0  0  0  0  0
   25.5461   22.4736   12.8032 C   0  0  0  0  0  0
   25.7465   21.9129   14.0682 C   0  0  0  0  0  0
   28.6792   21.0046   19.0446 C   0  0  0  0  0  0
   28.3585   20.1726   20.0785 F   0  0  0  0  0  0
   29.2018   22.1322   19.6090 F   0  0  0  0  0  0
   29.7019   20.4010   18.3715 F   0  0  0  0  0  0
   19.4919   21.0794   16.7344 S   0  0  0  0  0  0
   18.9616   22.4221   16.5189 O   0  0  0  0  0  0
   18.9901   20.3087   17.8677 O   0  0  0  0  0  0
   19.2774   20.1309   15.2517 C   0  0  0  0  0  0
   26.8519   24.8626   15.8988 F   0  0  0  0  0  0
   25.7349   20.3055   19.0684 H   0  0  0  0  0  0
   23.8350   23.0687   15.7466 H   0  0  0  0  0  0
   21.4274   22.8680   15.5203 H   0  0  0  0  0  0
   21.4104   19.5671   18.3057 H   0  0  0  0  0  0
   23.8324   19.7065   18.5052 H   0  0  0  0  0  0
   26.4264   25.6875   13.4884 H   0  0  0  0  0  0
   25.6304   24.2656   11.6060 H   0  0  0  0  0  0
   25.2039   21.8477   11.9805 H   0  0  0  0  0  0
   25.5627   20.8488   14.2093 H   0  0  0  0  0  0
   18.2059   20.0079   15.0803 H   0  0  0  0  0  0
   19.7470   19.1543   15.3829 H   0  0  0  0  0  0
   19.7279   20.6698   14.4162 H   0  0  0  0  0  0
  1  2  1  0  0  0
  1  5  2  0  0  0
  1  7  1  0  0  0
  2  3  1  0  0  0
  2  6  1  0  0  0
  3  4  2  0  0  0
  3 27  1  0  0  0
  4  5  1  0  0  0
  4 18  1  0  0  0
  6  8  2  0  0  0
  6 12  1  0  0  0
  7 13  2  0  0  0
  7 17  1  0  0  0
  8  9  1  0  0  0
  8 28  1  0  0  0
  9 10  2  0  0  0
  9 29  1  0  0  0
 10 11  1  0  0  0
 10 22  1  0  0  0
 11 12  2  0  0  0
 11 30  1  0  0  0
 12 31  1  0  0  0
 13 14  1  0  0  0
 13 26  1  0  0  0
 14 15  2  0  0  0
 14 32  1  0  0  0
 15 16  1  0  0  0
 15 33  1  0  0  0
 16 17  2  0  0  0
 16 34  1  0  0  0
 17 35  1  0  0  0
 18 19  1  0  0  0
 18 20  1  0  0  0
 18 21  1  0  0  0
 22 23  2  0  0  0
 22 24  2  0  0  0
 22 25  1  0  0  0
 25 36  1  0  0  0
 25 37  1  0  0  0
 25 38  1  0  0  0
M  END
>  <Name>
3-39

>  <Family>
B.1

>  <IC50_uM>
0.400000

>  <set>
0

$$$$
3-40
  Cerius2 12120216093D 1   1.00000                          
 Structure written by MMmdl.
 41 43  0  0  0  0  0  0  0  0999 V2000
   26.4184   22.1310   16.4675 C   0  0  0  0  0  0
   25.4739   21.4675   17.2623 N   0  0  0  0  0  0
   26.1988   20.8861   18.2876 C   0  0  0  0  0  0
   27.5111   21.2885   18.1510 C   0  0  0  0  0  0
   27.6245   22.0701   17.0162 N   0  0  0  0  0  0
   24.0518   21.3833   17.1207 C   0  0  0  0  0  0
   26.1840   22.7347   15.1481 C   0  0  0  0  0  0
   23.3471   22.2635   16.2872 C   0  0  0  0  0  0
   21.9547   22.1731   16.1693 C   0  0  0  0  0  0
   21.2570   21.2099   16.8985 C   0  0  0  0  0  0
   21.9407   20.3292   17.7362 C   0  0  0  0  0  0
   23.3324   20.4223   17.8529 C   0  0  0  0  0  0
   26.4246   24.1049   14.9079 C   0  0  0  0  0  0
   26.2145   24.6217   13.6181 C   0  0  0  0  0  0
   25.7705   23.7995   12.5823 C   0  0  0  0  0  0
   25.5397   22.4478   12.8165 C   0  0  0  0  0  0
   25.7509   21.9168   14.0893 C   0  0  0  0  0  0
   28.6816   20.9762   19.0367 C   0  0  0  0  0  0
   28.3302   20.2663   20.1488 F   0  0  0  0  0  0
   29.3073   22.1034   19.4852 F   0  0  0  0  0  0
   29.6330   20.2365   18.3955 F   0  0  0  0  0  0
   19.4912   21.0840   16.7313 S   0  0  0  0  0  0
   18.9641   22.4260   16.5031 O   0  0  0  0  0  0
   18.9865   20.3249   17.8713 O   0  0  0  0  0  0
   19.2755   20.1231   15.2570 C   0  0  0  0  0  0
   26.9135   25.0272   15.9932 C   0  0  0  0  0  0
   25.7345   20.2928   19.0629 H   0  0  0  0  0  0
   23.8364   23.0651   15.7421 H   0  0  0  0  0  0
   21.4295   22.8687   15.5176 H   0  0  0  0  0  0
   21.4082   19.5678   18.3025 H   0  0  0  0  0  0
   23.8289   19.7032   18.5014 H   0  0  0  0  0  0
   26.3962   25.6761   13.4107 H   0  0  0  0  0  0
   25.6098   24.2152   11.5890 H   0  0  0  0  0  0
   25.2003   21.8038   12.0075 H   0  0  0  0  0  0
   25.5774   20.8534   14.2497 H   0  0  0  0  0  0
   18.2039   20.0025   15.0850 H   0  0  0  0  0  0
   19.7412   19.1459   15.3977 H   0  0  0  0  0  0
   19.7293   20.6529   14.4175 H   0  0  0  0  0  0
   27.9515   24.7933   16.2493 H   0  0  0  0  0  0
   26.2860   24.9400   16.8861 H   0  0  0  0  0  0
   26.8741   26.0745   15.6748 H   0  0  0  0  0  0
  1  2  1  0  0  0
  1  5  2  0  0  0
  1  7  1  0  0  0
  2  3  1  0  0  0
  2  6  1  0  0  0
  3  4  2  0  0  0
  3 27  1  0  0  0
  4  5  1  0  0  0
  4 18  1  0  0  0
  6  8  2  0  0  0
  6 12  1  0  0  0
  7 13  2  0  0  0
  7 17  1  0  0  0
  8  9  1  0  0  0
  8 28  1  0  0  0
  9 10  2  0  0  0
  9 29  1  0  0  0
 10 11  1  0  0  0
 10 22  1  0  0  0
 11 12  2  0  0  0
 11 30  1  0  0  0
 12 31  1  0  0  0
 13 14  1  0  0  0
 13 26  1  0  0  0
 14 15  2  0  0  0
 14 32  1  0  0  0
 15 16  1  0  0  0
 15 33  1  0  0  0
 16 17  2  0  0  0
 16 34  1  0  0  0
 17 35  1  0  0  0
 18 19  1  0  0  0
 18 20  1  0  0  0
 18 21  1  0  0  0
 22 23  2  0  0  0
 22 24  2  0  0  0
 22 25  1  0  0  0
 25 36  1  0  0  0
 25 37  1  0  0  0
 25 38  1  0  0  0
 26 39  1  0  0  0
 26 40  1  0  0  0
 26 41  1  0  0  0
M  END
>  <Name>
3-40

>  <Family>
B.1

>  <IC50_uM>
0.800000

>  <set>
1

$$$$
3-41
  Cerius2 12120216093D 1   1.00000                          
 Structure written by MMmdl.
 42 44  0  0  0  0  0  0  0  0999 V2000
   26.4200   22.1328   16.4660 C   0  0  0  0  0  0
   25.4712   21.4804   17.2650 N   0  0  0  0  0  0
   26.1931   20.9019   18.2943 C   0  0  0  0  0  0
   27.5118   21.2764   18.1439 C   0  0  0  0  0  0
   27.6316   22.0426   17.0000 N   0  0  0  0  0  0
   24.0487   21.3924   17.1201 C   0  0  0  0  0  0
   26.1865   22.7358   15.1466 C   0  0  0  0  0  0
   23.3402   22.2673   16.2844 C   0  0  0  0  0  0
   21.9476   22.1709   16.1664 C   0  0  0  0  0  0
   21.2530   21.2068   16.8971 C   0  0  0  0  0  0
   21.9405   20.3287   17.7343 C   0  0  0  0  0  0
   23.3318   20.4276   17.8508 C   0  0  0  0  0  0
   26.4346   24.1048   14.9093 C   0  0  0  0  0  0
   26.2226   24.6261   13.6271 C   0  0  0  0  0  0
   25.7817   23.8004   12.5888 C   0  0  0  0  0  0
   25.5491   22.4480   12.8177 C   0  0  0  0  0  0
   25.7543   21.9158   14.0895 C   0  0  0  0  0  0
   28.6826   20.9473   19.0225 C   0  0  0  0  0  0
   28.3223   20.2750   20.1548 F   0  0  0  0  0  0
   29.3507   22.0629   19.4375 F   0  0  0  0  0  0
   29.6008   20.1619   18.3874 F   0  0  0  0  0  0
   19.4871   21.0701   16.7374 S   0  0  0  0  0  0
   18.9512   22.4145   16.5487 O   0  0  0  0  0  0
   18.9930   20.2767   17.8587 O   0  0  0  0  0  0
   19.2689   20.1445   15.2406 C   0  0  0  0  0  0
   26.8462   24.8488   15.9872 O   0  0  0  0  0  0
   27.0691   26.2407   15.7759 C   0  0  0  0  0  0
   25.7240   20.3243   19.0786 H   0  0  0  0  0  0
   23.8254   23.0709   15.7389 H   0  0  0  0  0  0
   21.4200   22.8633   15.5134 H   0  0  0  0  0  0
   21.4104   19.5649   18.2998 H   0  0  0  0  0  0
   23.8307   19.7091   18.4980 H   0  0  0  0  0  0
   26.3859   25.6759   13.3982 H   0  0  0  0  0  0
   25.6205   24.2180   11.5960 H   0  0  0  0  0  0
   25.2111   21.8067   12.0058 H   0  0  0  0  0  0
   25.5790   20.8530   14.2517 H   0  0  0  0  0  0
   18.1968   20.0191   15.0736 H   0  0  0  0  0  0
   19.7438   19.1682   15.3534 H   0  0  0  0  0  0
   19.7110   20.6987   14.4105 H   0  0  0  0  0  0
   27.4567   26.6602   16.7093 H   0  0  0  0  0  0
   26.1321   26.7566   15.5435 H   0  0  0  0  0  0
   27.8213   26.4078   14.9977 H   0  0  0  0  0  0
  1  2  1  0  0  0
  1  5  2  0  0  0
  1  7  1  0  0  0
  2  3  1  0  0  0
  2  6  1  0  0  0
  3  4  2  0  0  0
  3 28  1  0  0  0
  4  5  1  0  0  0
  4 18  1  0  0  0
  6  8  2  0  0  0
  6 12  1  0  0  0
  7 13  2  0  0  0
  7 17  1  0  0  0
  8  9  1  0  0  0
  8 29  1  0  0  0
  9 10  2  0  0  0
  9 30  1  0  0  0
 10 11  1  0  0  0
 10 22  1  0  0  0
 11 12  2  0  0  0
 11 31  1  0  0  0
 12 32  1  0  0  0
 13 14  1  0  0  0
 13 26  1  0  0  0
 14 15  2  0  0  0
 14 33  1  0  0  0
 15 16  1  0  0  0
 15 34  1  0  0  0
 16 17  2  0  0  0
 16 35  1  0  0  0
 17 36  1  0  0  0
 18 19  1  0  0  0
 18 20  1  0  0  0
 18 21  1  0  0  0
 22 23  2  0  0  0
 22 24  2  0  0  0
 22 25  1  0  0  0
 25 37  1  0  0  0
 25 38  1  0  0  0
 25 39  1  0  0  0
 26 27  1  0  0  0
 27 40  1  0  0  0
 27 41  1  0  0  0
 27 42  1  0  0  0
M  END
>  <Name>
3-41

>  <Family>
B.1

>  <IC50_uM>
>100

>  <set>
1

$$$$
3-42
  Cerius2 12120216093D 1   1.00000                          
 Structure written by MMmdl.
 37 39  0  0  0  0  0  0  0  0999 V2000
   26.4130   22.1311   16.4622 C   0  0  0  0  0  0
   25.4720   21.4703   17.2625 N   0  0  0  0  0  0
   26.1995   20.8938   18.2882 C   0  0  0  0  0  0
   27.5097   21.3030   18.1512 C   0  0  0  0  0  0
   27.6185   22.0830   17.0139 N   0  0  0  0  0  0
   24.0504   21.3844   17.1241 C   0  0  0  0  0  0
   26.1792   22.7110   15.1380 C   0  0  0  0  0  0
   23.3445   22.2649   16.2918 C   0  0  0  0  0  0
   21.9523   22.1717   16.1764 C   0  0  0  0  0  0
   21.2554   21.2061   16.9051 C   0  0  0  0  0  0
   21.9416   20.3285   17.7440 C   0  0  0  0  0  0
   23.3336   20.4236   17.8591 C   0  0  0  0  0  0
   26.4301   24.0673   14.9019 C   0  0  0  0  0  0
   26.2328   24.6292   13.6420 C   0  0  0  0  0  0
   25.7882   23.8296   12.5904 C   0  0  0  0  0  0
   25.5476   22.4721   12.8026 C   0  0  0  0  0  0
   25.7468   21.9125   14.0683 C   0  0  0  0  0  0
   28.6810   21.0004   19.0395 C   0  0  0  0  0  0
   28.3656   20.1513   20.0612 F   0  0  0  0  0  0
   29.1938   22.1241   19.6206 F   0  0  0  0  0  0
   29.7096   20.4145   18.3596 F   0  0  0  0  0  0
   19.4971   21.0820   16.7271 S   0  0  0  0  0  0
   18.9460   22.3926   16.4313 O   0  0  0  0  0  0
   18.9672   20.2893   17.8224 O   0  0  0  0  0  0
   19.3478   20.1679   15.3312 N   0  0  0  0  0  0
   26.8494   24.8640   15.8976 F   0  0  0  0  0  0
   25.7373   20.3000   19.0647 H   0  0  0  0  0  0
   23.8325   23.0691   15.7491 H   0  0  0  0  0  0
   21.4202   22.8665   15.5291 H   0  0  0  0  0  0
   21.4105   19.5677   18.3121 H   0  0  0  0  0  0
   23.8328   19.7069   18.5083 H   0  0  0  0  0  0
   26.4262   25.6870   13.4861 H   0  0  0  0  0  0
   25.6326   24.2630   11.6040 H   0  0  0  0  0  0
   25.2071   21.8451   11.9800 H   0  0  0  0  0  0
   25.5640   20.8484   14.2100 H   0  0  0  0  0  0
   18.8738   20.6963   14.5940 H   0  0  0  0  0  0
   18.8719   19.2818   15.5196 H   0  0  0  0  0  0
  1  2  1  0  0  0
  1  5  2  0  0  0
  1  7  1  0  0  0
  2  3  1  0  0  0
  2  6  1  0  0  0
  3  4  2  0  0  0
  3 27  1  0  0  0
  4  5  1  0  0  0
  4 18  1  0  0  0
  6  8  2  0  0  0
  6 12  1  0  0  0
  7 13  2  0  0  0
  7 17  1  0  0  0
  8  9  1  0  0  0
  8 28  1  0  0  0
  9 10  2  0  0  0
  9 29  1  0  0  0
 10 11  1  0  0  0
 10 22  1  0  0  0
 11 12  2  0  0  0
 11 30  1  0  0  0
 12 31  1  0  0  0
 13 14  1  0  0  0
 13 26  1  0  0  0
 14 15  2  0  0  0
 14 32  1  0  0  0
 15 16  1  0  0  0
 15 33  1  0  0  0
 16 17  2  0  0  0
 16 34  1  0  0  0
 17 35  1  0  0  0
 18 19  1  0  0  0
 18 20  1  0  0  0
 18 21  1  0  0  0
 22 23  2  0  0  0
 22 24  2  0  0  0
 22 25  1  0  0  0
 25 36  1  0  0  0
 25 37  1  0  0  0
M  END
>  <Name>
3-42

>  <Family>
B.1

>  <IC50_uM>
0.100000

>  <set>
1

$$$$
3-43
  Cerius2 12120216093D 1   1.00000                          
 Structure written by MMmdl.
 40 42  0  0  0  0  0  0  0  0999 V2000
   26.4177   22.1304   16.4669 C   0  0  0  0  0  0
   25.4736   21.4676   17.2627 N   0  0  0  0  0  0
   26.1989   20.8874   18.2883 C   0  0  0  0  0  0
   27.5117   21.2882   18.1500 C   0  0  0  0  0  0
   27.6243   22.0690   17.0147 N   0  0  0  0  0  0
   24.0514   21.3828   17.1213 C   0  0  0  0  0  0
   26.1828   22.7345   15.1478 C   0  0  0  0  0  0
   23.3461   22.2631   16.2884 C   0  0  0  0  0  0
   21.9536   22.1722   16.1726 C   0  0  0  0  0  0
   21.2551   21.2084   16.9014 C   0  0  0  0  0  0
   21.9405   20.3288   17.7390 C   0  0  0  0  0  0
   23.3326   20.4216   17.8541 C   0  0  0  0  0  0
   26.4230   24.1048   14.9083 C   0  0  0  0  0  0
   26.2139   24.6220   13.6187 C   0  0  0  0  0  0
   25.7707   23.8000   12.5822 C   0  0  0  0  0  0
   25.5396   22.4483   12.8159 C   0  0  0  0  0  0
   25.7500   21.9170   14.0887 C   0  0  0  0  0  0
   28.6827   20.9747   19.0343 C   0  0  0  0  0  0
   28.3304   20.2734   20.1515 F   0  0  0  0  0  0
   29.3161   22.1010   19.4747 F   0  0  0  0  0  0
   29.6281   20.2258   18.3951 F   0  0  0  0  0  0
   19.4966   21.0859   16.7258 S   0  0  0  0  0  0
   18.9473   22.3976   16.4307 O   0  0  0  0  0  0
   18.9656   20.2941   17.8213 O   0  0  0  0  0  0
   19.3456   20.1710   15.3308 N   0  0  0  0  0  0
   26.9104   25.0268   15.9945 C   0  0  0  0  0  0
   25.7350   20.2953   19.0648 H   0  0  0  0  0  0
   23.8344   23.0653   15.7435 H   0  0  0  0  0  0
   21.4236   22.8680   15.5247 H   0  0  0  0  0  0
   21.4078   19.5688   18.3066 H   0  0  0  0  0  0
   23.8296   19.7031   18.5028 H   0  0  0  0  0  0
   26.3957   25.6765   13.4116 H   0  0  0  0  0  0
   25.6112   24.2161   11.5888 H   0  0  0  0  0  0
   25.2008   21.8046   12.0063 H   0  0  0  0  0  0
   25.5765   20.8534   14.2487 H   0  0  0  0  0  0
   18.8687   20.6978   14.5945 H   0  0  0  0  0  0
   18.8731   19.2835   15.5209 H   0  0  0  0  0  0
   27.9484   24.7938   16.2515 H   0  0  0  0  0  0
   26.2820   24.9382   16.8868 H   0  0  0  0  0  0
   26.8700   26.0743   15.6771 H   0  0  0  0  0  0
  1  2  1  0  0  0
  1  5  2  0  0  0
  1  7  1  0  0  0
  2  3  1  0  0  0
  2  6  1  0  0  0
  3  4  2  0  0  0
  3 27  1  0  0  0
  4  5  1  0  0  0
  4 18  1  0  0  0
  6  8  2  0  0  0
  6 12  1  0  0  0
  7 13  2  0  0  0
  7 17  1  0  0  0
  8  9  1  0  0  0
  8 28  1  0  0  0
  9 10  2  0  0  0
  9 29  1  0  0  0
 10 11  1  0  0  0
 10 22  1  0  0  0
 11 12  2  0  0  0
 11 30  1  0  0  0
 12 31  1  0  0  0
 13 14  1  0  0  0
 13 26  1  0  0  0
 14 15  2  0  0  0
 14 32  1  0  0  0
 15 16  1  0  0  0
 15 33  1  0  0  0
 16 17  2  0  0  0
 16 34  1  0  0  0
 17 35  1  0  0  0
 18 19  1  0  0  0
 18 20  1  0  0  0
 18 21  1  0  0  0
 22 23  2  0  0  0
 22 24  2  0  0  0
 22 25  1  0  0  0
 25 36  1  0  0  0
 25 37  1  0  0  0
 26 38  1  0  0  0
 26 39  1  0  0  0
 26 40  1  0  0  0
M  END
>  <Name>
3-43

>  <Family>
B.1

>  <IC50_uM>
0.200000

>  <set>
0

$$$$
3-44
  Cerius2 12120216093D 1   1.00000                          
 Structure written by MMmdl.
 42 44  0  0  0  0  0  0  0  0999 V2000
   26.4057   22.1310   16.4600 C   0  0  0  0  0  0
   25.4694   21.4589   17.2559 N   0  0  0  0  0  0
   26.1991   20.8826   18.2795 C   0  0  0  0  0  0
   27.5005   21.3258   18.1605 C   0  0  0  0  0  0
   27.6030   22.1187   17.0307 N   0  0  0  0  0  0
   24.0484   21.3742   17.1213 C   0  0  0  0  0  0
   26.1799   22.7081   15.1304 C   0  0  0  0  0  0
   23.3443   22.2589   16.2915 C   0  0  0  0  0  0
   21.9518   22.1716   16.1785 C   0  0  0  0  0  0
   21.2554   21.2085   16.9100 C   0  0  0  0  0  0
   21.9399   20.3258   17.7457 C   0  0  0  0  0  0
   23.3318   20.4157   17.8582 C   0  0  0  0  0  0
   26.4397   24.0650   14.9098 C   0  0  0  0  0  0
   26.2534   24.6233   13.6445 C   0  0  0  0  0  0
   25.8176   23.8451   12.5690 C   0  0  0  0  0  0
   25.5784   22.4850   12.7853 C   0  0  0  0  0  0
   25.7641   21.9176   14.0512 C   0  0  0  0  0  0
   28.6684   21.0465   19.0609 C   0  0  0  0  0  0
   28.3550   20.2060   20.0901 F   0  0  0  0  0  0
   29.1643   22.1827   19.6323 F   0  0  0  0  0  0
   29.7084   20.4643   18.3952 F   0  0  0  0  0  0
   19.4887   21.0858   16.7488 S   0  0  0  0  0  0
   18.9614   22.4310   16.5412 O   0  0  0  0  0  0
   18.9889   20.3116   17.8807 O   0  0  0  0  0  0
   19.2659   20.1450   15.2625 C   0  0  0  0  0  0
   26.5115   25.9316   13.5029 F   0  0  0  0  0  0
   25.5927   24.2566   11.2833 O   0  0  0  0  0  0
   25.8172   25.6339   10.9916 C   0  0  0  0  0  0
   25.7418   20.2728   19.0464 H   0  0  0  0  0  0
   23.8381   23.0599   15.7481 H   0  0  0  0  0  0
   21.4252   22.8690   15.5298 H   0  0  0  0  0  0
   21.4074   19.5657   18.3138 H   0  0  0  0  0  0
   23.8319   19.6977   18.5052 H   0  0  0  0  0  0
   26.7866   24.7013   15.7204 H   0  0  0  0  0  0
   25.2470   21.8523   11.9633 H   0  0  0  0  0  0
   25.5827   20.8514   14.1805 H   0  0  0  0  0  0
   18.1935   20.0272   15.0935 H   0  0  0  0  0  0
   19.7318   19.1658   15.3878 H   0  0  0  0  0  0
   19.7163   20.6861   14.4284 H   0  0  0  0  0  0
   25.5783   25.7919    9.9354 H   0  0  0  0  0  0
   26.8690   25.8999   11.1366 H   0  0  0  0  0  0
   25.1534   26.2748   11.5807 H   0  0  0  0  0  0
  1  2  1  0  0  0
  1  5  2  0  0  0
  1  7  1  0  0  0
  2  3  1  0  0  0
  2  6  1  0  0  0
  3  4  2  0  0  0
  3 29  1  0  0  0
  4  5  1  0  0  0
  4 18  1  0  0  0
  6  8  2  0  0  0
  6 12  1  0  0  0
  7 13  2  0  0  0
  7 17  1  0  0  0
  8  9  1  0  0  0
  8 30  1  0  0  0
  9 10  2  0  0  0
  9 31  1  0  0  0
 10 11  1  0  0  0
 10 22  1  0  0  0
 11 12  2  0  0  0
 11 32  1  0  0  0
 12 33  1  0  0  0
 13 14  1  0  0  0
 13 34  1  0  0  0
 14 15  2  0  0  0
 14 26  1  0  0  0
 15 16  1  0  0  0
 15 27  1  0  0  0
 16 17  2  0  0  0
 16 35  1  0  0  0
 17 36  1  0  0  0
 18 19  1  0  0  0
 18 20  1  0  0  0
 18 21  1  0  0  0
 22 23  2  0  0  0
 22 24  2  0  0  0
 22 25  1  0  0  0
 25 37  1  0  0  0
 25 38  1  0  0  0
 25 39  1  0  0  0
 27 28  1  0  0  0
 28 40  1  0  0  0
 28 41  1  0  0  0
 28 42  1  0  0  0
M  END
>  <Name>
3-44

>  <Family>
B.1

>  <IC50_uM>
0.150000

>  <set>
2

$$$$
3-45
  Cerius2 12120216093D 1   1.00000                          
 Structure written by MMmdl.
 42 44  0  0  0  0  0  0  0  0999 V2000
   26.4044   22.1330   16.4611 C   0  0  0  0  0  0
   25.4684   21.4586   17.2551 N   0  0  0  0  0  0
   26.1983   20.8798   18.2771 C   0  0  0  0  0  0
   27.4996   21.3229   18.1590 C   0  0  0  0  0  0
   27.6017   22.1195   17.0318 N   0  0  0  0  0  0
   24.0475   21.3731   17.1199 C   0  0  0  0  0  0
   26.1794   22.7105   15.1314 C   0  0  0  0  0  0
   23.3435   22.2582   16.2904 C   0  0  0  0  0  0
   21.9507   22.1718   16.1785 C   0  0  0  0  0  0
   21.2543   21.2092   16.9102 C   0  0  0  0  0  0
   21.9391   20.3258   17.7453 C   0  0  0  0  0  0
   23.3310   20.4146   17.8567 C   0  0  0  0  0  0
   26.4374   24.0676   14.9110 C   0  0  0  0  0  0
   26.2572   24.6235   13.6404 C   0  0  0  0  0  0
   25.8290   23.8340   12.5599 C   0  0  0  0  0  0
   25.5888   22.4748   12.7793 C   0  0  0  0  0  0
   25.7695   21.9176   14.0520 C   0  0  0  0  0  0
   28.6684   21.0384   19.0567 C   0  0  0  0  0  0
   28.3447   20.2286   20.1072 F   0  0  0  0  0  0
   29.1941   22.1757   19.5986 F   0  0  0  0  0  0
   29.6897   20.4183   18.3966 F   0  0  0  0  0  0
   19.4872   21.0843   16.7541 S   0  0  0  0  0  0
   18.9583   22.4314   16.5638 O   0  0  0  0  0  0
   18.9910   20.2962   17.8781 O   0  0  0  0  0  0
   19.2618   20.1588   15.2585 C   0  0  0  0  0  0
   26.5827   26.3128   13.4422 Cl  0  0  0  0  0  0
   25.6810   24.4653   11.3513 O   0  0  0  0  0  0
   25.2517   23.6720   10.2470 C   0  0  0  0  0  0
   25.7411   20.2676   19.0423 H   0  0  0  0  0  0
   23.8375   23.0593   15.7472 H   0  0  0  0  0  0
   21.4242   22.8700   15.5307 H   0  0  0  0  0  0
   21.4057   19.5660   18.3133 H   0  0  0  0  0  0
   23.8310   19.6958   18.5031 H   0  0  0  0  0  0
   26.7783   24.6931   15.7338 H   0  0  0  0  0  0
   25.2634   21.8105   11.9832 H   0  0  0  0  0  0
   25.5897   20.8513   14.1862 H   0  0  0  0  0  0
   18.1891   20.0375   15.0935 H   0  0  0  0  0  0
   19.7331   19.1806   15.3710 H   0  0  0  0  0  0
   19.7054   20.7110   14.4279 H   0  0  0  0  0  0
   25.1978   24.3244    9.3702 H   0  0  0  0  0  0
   24.2507   23.2643   10.4212 H   0  0  0  0  0  0
   25.9736   22.8784   10.0277 H   0  0  0  0  0  0
  1  2  1  0  0  0
  1  5  2  0  0  0
  1  7  1  0  0  0
  2  3  1  0  0  0
  2  6  1  0  0  0
  3  4  2  0  0  0
  3 29  1  0  0  0
  4  5  1  0  0  0
  4 18  1  0  0  0
  6  8  2  0  0  0
  6 12  1  0  0  0
  7 13  2  0  0  0
  7 17  1  0  0  0
  8  9  1  0  0  0
  8 30  1  0  0  0
  9 10  2  0  0  0
  9 31  1  0  0  0
 10 11  1  0  0  0
 10 22  1  0  0  0
 11 12  2  0  0  0
 11 32  1  0  0  0
 12 33  1  0  0  0
 13 14  1  0  0  0
 13 34  1  0  0  0
 14 15  2  0  0  0
 14 26  1  0  0  0
 15 16  1  0  0  0
 15 27  1  0  0  0
 16 17  2  0  0  0
 16 35  1  0  0  0
 17 36  1  0  0  0
 18 19  1  0  0  0
 18 20  1  0  0  0
 18 21  1  0  0  0
 22 23  2  0  0  0
 22 24  2  0  0  0
 22 25  1  0  0  0
 25 37  1  0  0  0
 25 38  1  0  0  0
 25 39  1  0  0  0
 27 28  1  0  0  0
 28 40  1  0  0  0
 28 41  1  0  0  0
 28 42  1  0  0  0
M  END
>  <Name>
3-45

>  <Family>
B.1

>  <IC50_uM>
0.130000

>  <set>
0

$$$$
3-46
  Cerius2 12120216093D 1   1.00000                          
 Structure written by MMmdl.
 42 44  0  0  0  0  0  0  0  0999 V2000
   26.4057   22.1307   16.4599 C   0  0  0  0  0  0
   25.4691   21.4585   17.2553 N   0  0  0  0  0  0
   26.1987   20.8832   18.2795 C   0  0  0  0  0  0
   27.4995   21.3282   18.1621 C   0  0  0  0  0  0
   27.6024   22.1201   17.0319 N   0  0  0  0  0  0
   24.0477   21.3728   17.1199 C   0  0  0  0  0  0
   26.1808   22.7066   15.1295 C   0  0  0  0  0  0
   23.3431   22.2576   16.2908 C   0  0  0  0  0  0
   21.9505   22.1702   16.1789 C   0  0  0  0  0  0
   21.2543   21.2073   16.9108 C   0  0  0  0  0  0
   21.9396   20.3243   17.7454 C   0  0  0  0  0  0
   23.3316   20.4138   17.8565 C   0  0  0  0  0  0
   26.4395   24.0654   14.9092 C   0  0  0  0  0  0
   26.2565   24.6307   13.6416 C   0  0  0  0  0  0
   25.8259   23.8377   12.5653 C   0  0  0  0  0  0
   25.5801   22.4762   12.7861 C   0  0  0  0  0  0
   25.7654   21.9136   14.0530 C   0  0  0  0  0  0
   28.6673   21.0498   19.0632 C   0  0  0  0  0  0
   28.3452   20.2375   20.1123 F   0  0  0  0  0  0
   29.1850   22.1898   19.6071 F   0  0  0  0  0  0
   29.6938   20.4361   18.4054 F   0  0  0  0  0  0
   19.4869   21.0871   16.7518 S   0  0  0  0  0  0
   18.9607   22.4325   16.5434 O   0  0  0  0  0  0
   18.9877   20.3144   17.8851 O   0  0  0  0  0  0
   19.2608   20.1455   15.2664 C   0  0  0  0  0  0
   26.5807   26.3233   13.4727 Cl  0  0  0  0  0  0
   25.5593   24.4681   10.9093 S   0  0  0  0  0  0
   25.0256   22.9238   10.1186 C   0  0  0  0  0  0
   25.7414   20.2729   19.0461 H   0  0  0  0  0  0
   23.8363   23.0593   15.7478 H   0  0  0  0  0  0
   21.4232   22.8677   15.5308 H   0  0  0  0  0  0
   21.4075   19.5641   18.3138 H   0  0  0  0  0  0
   23.8320   19.6956   18.5030 H   0  0  0  0  0  0
   26.7827   24.6871   15.7345 H   0  0  0  0  0  0
   25.2476   21.8330   11.9724 H   0  0  0  0  0  0
   25.5829   20.8478   14.1858 H   0  0  0  0  0  0
   18.1879   20.0314   15.0976 H   0  0  0  0  0  0
   19.7234   19.1649   15.3923 H   0  0  0  0  0  0
   19.7129   20.6843   14.4316 H   0  0  0  0  0  0
   24.8089   23.1174    9.0648 H   0  0  0  0  0  0
   24.1190   22.5429   10.5967 H   0  0  0  0  0  0
   25.8122   22.1671   10.1788 H   0  0  0  0  0  0
  1  2  1  0  0  0
  1  5  2  0  0  0
  1  7  1  0  0  0
  2  3  1  0  0  0
  2  6  1  0  0  0
  3  4  2  0  0  0
  3 29  1  0  0  0
  4  5  1  0  0  0
  4 18  1  0  0  0
  6  8  2  0  0  0
  6 12  1  0  0  0
  7 13  2  0  0  0
  7 17  1  0  0  0
  8  9  1  0  0  0
  8 30  1  0  0  0
  9 10  2  0  0  0
  9 31  1  0  0  0
 10 11  1  0  0  0
 10 22  1  0  0  0
 11 12  2  0  0  0
 11 32  1  0  0  0
 12 33  1  0  0  0
 13 14  1  0  0  0
 13 34  1  0  0  0
 14 15  2  0  0  0
 14 26  1  0  0  0
 15 16  1  0  0  0
 15 27  1  0  0  0
 16 17  2  0  0  0
 16 35  1  0  0  0
 17 36  1  0  0  0
 18 19  1  0  0  0
 18 20  1  0  0  0
 18 21  1  0  0  0
 22 23  2  0  0  0
 22 24  2  0  0  0
 22 25  1  0  0  0
 25 37  1  0  0  0
 25 38  1  0  0  0
 25 39  1  0  0  0
 27 28  1  0  0  0
 28 40  1  0  0  0
 28 41  1  0  0  0
 28 42  1  0  0  0
M  END
>  <Name>
3-46

>  <Family>
B.1

>  <IC50_uM>
0.040000

>  <set>
1

$$$$
3-47
  Cerius2 12120216093D 1   1.00000                          
 Structure written by MMmdl.
 46 48  0  0  0  0  0  0  0  0999 V2000
   26.4063   22.1304   16.4602 C   0  0  0  0  0  0
   25.4694   21.4591   17.2564 N   0  0  0  0  0  0
   26.1991   20.8823   18.2799 C   0  0  0  0  0  0
   27.5013   21.3223   18.1594 C   0  0  0  0  0  0
   27.6041   22.1157   17.0302 N   0  0  0  0  0  0
   24.0479   21.3745   17.1218 C   0  0  0  0  0  0
   26.1803   22.7085   15.1310 C   0  0  0  0  0  0
   23.3431   22.2589   16.2923 C   0  0  0  0  0  0
   21.9506   22.1710   16.1795 C   0  0  0  0  0  0
   21.2543   21.2077   16.9109 C   0  0  0  0  0  0
   21.9393   20.3257   17.7468 C   0  0  0  0  0  0
   23.3314   20.4159   17.8587 C   0  0  0  0  0  0
   26.4416   24.0640   14.9091 C   0  0  0  0  0  0
   26.2531   24.6261   13.6396 C   0  0  0  0  0  0
   25.8086   23.8479   12.5469 C   0  0  0  0  0  0
   25.5772   22.4833   12.7854 C   0  0  0  0  0  0
   25.7653   21.9189   14.0538 C   0  0  0  0  0  0
   28.6701   21.0390   19.0577 C   0  0  0  0  0  0
   28.3611   20.1834   20.0757 F   0  0  0  0  0  0
   29.1578   22.1711   19.6443 F   0  0  0  0  0  0
   29.7148   20.4723   18.3863 F   0  0  0  0  0  0
   19.4877   21.0852   16.7475 S   0  0  0  0  0  0
   18.9607   22.4292   16.5315 O   0  0  0  0  0  0
   18.9868   20.3174   17.8831 O   0  0  0  0  0  0
   19.2659   20.1373   15.2656 C   0  0  0  0  0  0
   26.6460   26.3058   13.4530 Cl  0  0  0  0  0  0
   25.5906   24.4028   11.2795 N   0  0  0  0  0  0
   26.4499   23.9757   10.1753 C   0  0  0  0  0  0
   24.1865   24.6528   10.9441 C   0  0  0  0  0  0
   25.7418   20.2733   19.0472 H   0  0  0  0  0  0
   23.8361   23.0603   15.7487 H   0  0  0  0  0  0
   21.4235   22.8680   15.5307 H   0  0  0  0  0  0
   21.4074   19.5657   18.3154 H   0  0  0  0  0  0
   23.8314   19.6977   18.5057 H   0  0  0  0  0  0
   26.7972   24.6852   15.7292 H   0  0  0  0  0  0
   25.2275   21.8325   11.9862 H   0  0  0  0  0  0
   25.5806   20.8535   14.1853 H   0  0  0  0  0  0
   18.1933   20.0222   15.0947 H   0  0  0  0  0  0
   19.7282   19.1573   15.3970 H   0  0  0  0  0  0
   19.7199   20.6724   14.4296 H   0  0  0  0  0  0
   26.3698   24.6847    9.3441 H   0  0  0  0  0  0
   26.1611   22.9869    9.8032 H   0  0  0  0  0  0
   27.5018   23.9523   10.4811 H   0  0  0  0  0  0
   24.1180   25.2764   10.0463 H   0  0  0  0  0  0
   23.6540   25.1765   11.7444 H   0  0  0  0  0  0
   23.6662   23.7091   10.7444 H   0  0  0  0  0  0
  1  2  1  0  0  0
  1  5  2  0  0  0
  1  7  1  0  0  0
  2  3  1  0  0  0
  2  6  1  0  0  0
  3  4  2  0  0  0
  3 30  1  0  0  0
  4  5  1  0  0  0
  4 18  1  0  0  0
  6  8  2  0  0  0
  6 12  1  0  0  0
  7 13  2  0  0  0
  7 17  1  0  0  0
  8  9  1  0  0  0
  8 31  1  0  0  0
  9 10  2  0  0  0
  9 32  1  0  0  0
 10 11  1  0  0  0
 10 22  1  0  0  0
 11 12  2  0  0  0
 11 33  1  0  0  0
 12 34  1  0  0  0
 13 14  1  0  0  0
 13 35  1  0  0  0
 14 15  2  0  0  0
 14 26  1  0  0  0
 15 16  1  0  0  0
 15 27  1  0  0  0
 16 17  2  0  0  0
 16 36  1  0  0  0
 17 37  1  0  0  0
 18 19  1  0  0  0
 18 20  1  0  0  0
 18 21  1  0  0  0
 22 23  2  0  0  0
 22 24  2  0  0  0
 22 25  1  0  0  0
 25 38  1  0  0  0
 25 39  1  0  0  0
 25 40  1  0  0  0
 27 28  1  0  0  0
 27 29  1  0  0  0
 28 41  1  0  0  0
 28 42  1  0  0  0
 28 43  1  0  0  0
 29 44  1  0  0  0
 29 45  1  0  0  0
 29 46  1  0  0  0
M  END
>  <Name>
3-47

>  <Family>
B.1

>  <IC50_uM>
0.320000

>  <set>
2

$$$$
3-48
  Cerius2 12120216093D 1   1.00000                          
 Structure written by MMmdl.
 46 48  0  0  0  0  0  0  0  0999 V2000
   26.4047   22.1315   16.4605 C   0  0  0  0  0  0
   25.4680   21.4578   17.2549 N   0  0  0  0  0  0
   26.1976   20.8804   18.2783 C   0  0  0  0  0  0
   27.4987   21.3241   18.1607 C   0  0  0  0  0  0
   27.6015   22.1189   17.0326 N   0  0  0  0  0  0
   24.0469   21.3725   17.1206 C   0  0  0  0  0  0
   26.1811   22.7103   15.1318 C   0  0  0  0  0  0
   23.3421   22.2576   16.2919 C   0  0  0  0  0  0
   21.9494   22.1704   16.1802 C   0  0  0  0  0  0
   21.2534   21.2073   16.9123 C   0  0  0  0  0  0
   21.9388   20.3245   17.7472 C   0  0  0  0  0  0
   23.3309   20.4138   17.8578 C   0  0  0  0  0  0
   26.4387   24.0615   14.9086 C   0  0  0  0  0  0
   26.2563   24.6173   13.6378 C   0  0  0  0  0  0
   25.8224   23.8649   12.5230 C   0  0  0  0  0  0
   25.5918   22.4998   12.7781 C   0  0  0  0  0  0
   25.7725   21.9288   14.0495 C   0  0  0  0  0  0
   28.6665   21.0426   19.0607 C   0  0  0  0  0  0
   28.3499   20.2092   20.0947 F   0  0  0  0  0  0
   29.1698   22.1787   19.6258 F   0  0  0  0  0  0
   29.7021   20.4513   18.3964 F   0  0  0  0  0  0
   19.4865   21.0852   16.7532 S   0  0  0  0  0  0
   18.9589   22.4310   16.5494 O   0  0  0  0  0  0
   18.9881   20.3084   17.8839 O   0  0  0  0  0  0
   19.2615   20.1483   15.2648 C   0  0  0  0  0  0
   26.5205   25.9290   13.5197 F   0  0  0  0  0  0
   25.6331   24.4057   11.2521 N   0  0  0  0  0  0
   25.1833   23.5784   10.1304 C   0  0  0  0  0  0
   25.8658   25.8258   10.9848 C   0  0  0  0  0  0
   25.7402   20.2694   19.0440 H   0  0  0  0  0  0
   23.8353   23.0589   15.7484 H   0  0  0  0  0  0
   21.4220   22.8678   15.5322 H   0  0  0  0  0  0
   21.4067   19.5648   18.3162 H   0  0  0  0  0  0
   23.8313   19.6954   18.5041 H   0  0  0  0  0  0
   26.7821   24.7020   15.7173 H   0  0  0  0  0  0
   25.2644   21.8269   11.9878 H   0  0  0  0  0  0
   25.5909   20.8617   14.1726 H   0  0  0  0  0  0
   18.1888   20.0316   15.0969 H   0  0  0  0  0  0
   19.7269   19.1686   15.3869 H   0  0  0  0  0  0
   19.7111   20.6911   14.4313 H   0  0  0  0  0  0
   25.0895   24.1584    9.2061 H   0  0  0  0  0  0
   24.1976   23.1475   10.3374 H   0  0  0  0  0  0
   25.8997   22.7745    9.9292 H   0  0  0  0  0  0
   25.6618   26.0827    9.9396 H   0  0  0  0  0  0
   26.9111   26.0906   11.1761 H   0  0  0  0  0  0
   25.2058   26.4496   11.5970 H   0  0  0  0  0  0
  1  2  1  0  0  0
  1  5  2  0  0  0
  1  7  1  0  0  0
  2  3  1  0  0  0
  2  6  1  0  0  0
  3  4  2  0  0  0
  3 30  1  0  0  0
  4  5  1  0  0  0
  4 18  1  0  0  0
  6  8  2  0  0  0
  6 12  1  0  0  0
  7 13  2  0  0  0
  7 17  1  0  0  0
  8  9  1  0  0  0
  8 31  1  0  0  0
  9 10  2  0  0  0
  9 32  1  0  0  0
 10 11  1  0  0  0
 10 22  1  0  0  0
 11 12  2  0  0  0
 11 33  1  0  0  0
 12 34  1  0  0  0
 13 14  1  0  0  0
 13 35  1  0  0  0
 14 15  2  0  0  0
 14 26  1  0  0  0
 15 16  1  0  0  0
 15 27  1  0  0  0
 16 17  2  0  0  0
 16 36  1  0  0  0
 17 37  1  0  0  0
 18 19  1  0  0  0
 18 20  1  0  0  0
 18 21  1  0  0  0
 22 23  2  0  0  0
 22 24  2  0  0  0
 22 25  1  0  0  0
 25 38  1  0  0  0
 25 39  1  0  0  0
 25 40  1  0  0  0
 27 28  1  0  0  0
 27 29  1  0  0  0
 28 41  1  0  0  0
 28 42  1  0  0  0
 28 43  1  0  0  0
 29 44  1  0  0  0
 29 45  1  0  0  0
 29 46  1  0  0  0
M  END
>  <Name>
3-48

>  <Family>
B.1

>  <IC50_uM>
0.330000

>  <set>
0

$$$$
3-49
  Cerius2 12120216093D 1   1.00000                          
 Structure written by MMmdl.
 43 45  0  0  0  0  0  0  0  0999 V2000
   26.4052   22.1311   16.4597 C   0  0  0  0  0  0
   25.4679   21.4586   17.2544 N   0  0  0  0  0  0
   26.1968   20.8839   18.2797 C   0  0  0  0  0  0
   27.4984   21.3260   18.1617 C   0  0  0  0  0  0
   27.6020   22.1181   17.0318 N   0  0  0  0  0  0
   24.0466   21.3722   17.1193 C   0  0  0  0  0  0
   26.1822   22.7101   15.1304 C   0  0  0  0  0  0
   23.3409   22.2568   16.2908 C   0  0  0  0  0  0
   21.9482   22.1688   16.1800 C   0  0  0  0  0  0
   21.2529   21.2058   16.9126 C   0  0  0  0  0  0
   21.9389   20.3229   17.7465 C   0  0  0  0  0  0
   23.3312   20.4126   17.8561 C   0  0  0  0  0  0
   26.4420   24.0657   14.9112 C   0  0  0  0  0  0
   26.2586   24.6231   13.6403 C   0  0  0  0  0  0
   25.8224   23.8485   12.5436 C   0  0  0  0  0  0
   25.5882   22.4877   12.7795 C   0  0  0  0  0  0
   25.7713   21.9225   14.0496 C   0  0  0  0  0  0
   28.6656   21.0460   19.0628 C   0  0  0  0  0  0
   28.3500   20.2091   20.0943 F   0  0  0  0  0  0
   29.1644   22.1823   19.6313 F   0  0  0  0  0  0
   29.7040   20.4593   18.3988 F   0  0  0  0  0  0
   19.4856   21.0862   16.7550 S   0  0  0  0  0  0
   18.9592   22.4318   16.5468 O   0  0  0  0  0  0
   18.9877   20.3140   17.8889 O   0  0  0  0  0  0
   19.2583   20.1451   15.2696 C   0  0  0  0  0  0
   26.5883   26.3155   13.4475 Cl  0  0  0  0  0  0
   25.6467   24.4228   11.2957 N   0  0  0  0  0  0
   25.1993   23.7199   10.1134 C   0  0  0  0  0  0
   25.7388   20.2753   19.0472 H   0  0  0  0  0  0
   23.8333   23.0582   15.7467 H   0  0  0  0  0  0
   21.4200   22.8660   15.5323 H   0  0  0  0  0  0
   21.4079   19.5627   18.3158 H   0  0  0  0  0  0
   23.8321   19.6939   18.5017 H   0  0  0  0  0  0
   26.7859   24.6905   15.7331 H   0  0  0  0  0  0
   25.2606   21.8299   11.9768 H   0  0  0  0  0  0
   25.5902   20.8560   14.1780 H   0  0  0  0  0  0
   18.1854   20.0307   15.1020 H   0  0  0  0  0  0
   19.7211   19.1644   15.3948 H   0  0  0  0  0  0
   19.7096   20.6842   14.4346 H   0  0  0  0  0  0
   25.8326   25.4227   11.2042 H   0  0  0  0  0  0
   25.1493   24.4168    9.2708 H   0  0  0  0  0  0
   24.1989   23.3005   10.2596 H   0  0  0  0  0  0
   25.8955   22.9196    9.8434 H   0  0  0  0  0  0
  1  2  1  0  0  0
  1  5  2  0  0  0
  1  7  1  0  0  0
  2  3  1  0  0  0
  2  6  1  0  0  0
  3  4  2  0  0  0
  3 29  1  0  0  0
  4  5  1  0  0  0
  4 18  1  0  0  0
  6  8  2  0  0  0
  6 12  1  0  0  0
  7 13  2  0  0  0
  7 17  1  0  0  0
  8  9  1  0  0  0
  8 30  1  0  0  0
  9 10  2  0  0  0
  9 31  1  0  0  0
 10 11  1  0  0  0
 10 22  1  0  0  0
 11 12  2  0  0  0
 11 32  1  0  0  0
 12 33  1  0  0  0
 13 14  1  0  0  0
 13 34  1  0  0  0
 14 15  2  0  0  0
 14 26  1  0  0  0
 15 16  1  0  0  0
 15 27  1  0  0  0
 16 17  2  0  0  0
 16 35  1  0  0  0
 17 36  1  0  0  0
 18 19  1  0  0  0
 18 20  1  0  0  0
 18 21  1  0  0  0
 22 23  2  0  0  0
 22 24  2  0  0  0
 22 25  1  0  0  0
 25 37  1  0  0  0
 25 38  1  0  0  0
 25 39  1  0  0  0
 27 28  1  0  0  0
 27 40  1  0  0  0
 28 41  1  0  0  0
 28 42  1  0  0  0
 28 43  1  0  0  0
M  END
>  <Name>
3-49

>  <Family>
B.1

>  <IC50_uM>
0.660000

>  <set>
1

$$$$
3-50
  Cerius2 12120216093D 1   1.00000                          
 Structure written by MMmdl.
 41 43  0  0  0  0  0  0  0  0999 V2000
   26.4065   22.1301   16.4595 C   0  0  0  0  0  0
   25.4693   21.4590   17.2555 N   0  0  0  0  0  0
   26.1984   20.8846   18.2808 C   0  0  0  0  0  0
   27.5000   21.3264   18.1616 C   0  0  0  0  0  0
   27.6036   22.1174   17.0310 N   0  0  0  0  0  0
   24.0481   21.3737   17.1204 C   0  0  0  0  0  0
   26.1810   22.7072   15.1296 C   0  0  0  0  0  0
   23.3437   22.2584   16.2910 C   0  0  0  0  0  0
   21.9511   22.1712   16.1784 C   0  0  0  0  0  0
   21.2547   21.2082   16.9098 C   0  0  0  0  0  0
   21.9396   20.3254   17.7452 C   0  0  0  0  0  0
   23.3316   20.4150   17.8572 C   0  0  0  0  0  0
   26.4417   24.0652   14.9093 C   0  0  0  0  0  0
   26.2542   24.6283   13.6433 C   0  0  0  0  0  0
   25.8132   23.8428   12.5675 C   0  0  0  0  0  0
   25.5750   22.4784   12.7875 C   0  0  0  0  0  0
   25.7636   21.9151   14.0529 C   0  0  0  0  0  0
   28.6676   21.0469   19.0623 C   0  0  0  0  0  0
   28.3511   20.2155   20.0979 F   0  0  0  0  0  0
   29.1707   22.1843   19.6252 F   0  0  0  0  0  0
   29.7034   20.4544   18.3995 F   0  0  0  0  0  0
   19.4878   21.0856   16.7502 S   0  0  0  0  0  0
   18.9605   22.4312   16.5448 O   0  0  0  0  0  0
   18.9887   20.3097   17.8812 O   0  0  0  0  0  0
   19.2639   20.1467   15.2628 C   0  0  0  0  0  0
   26.5851   26.3145   13.4518 Cl  0  0  0  0  0  0
   25.6016   24.4173   11.1947 C   0  0  0  0  0  0
   25.7403   20.2767   19.0487 H   0  0  0  0  0  0
   23.8371   23.0594   15.7472 H   0  0  0  0  0  0
   21.4245   22.8686   15.5297 H   0  0  0  0  0  0
   21.4070   19.5653   18.3134 H   0  0  0  0  0  0
   23.8314   19.6966   18.5039 H   0  0  0  0  0  0
   26.7902   24.6864   15.7326 H   0  0  0  0  0  0
   25.2426   21.8369   11.9718 H   0  0  0  0  0  0
   25.5827   20.8491   14.1857 H   0  0  0  0  0  0
   18.1914   20.0287   15.0950 H   0  0  0  0  0  0
   19.7305   19.1676   15.3863 H   0  0  0  0  0  0
   19.7130   20.6891   14.4288 H   0  0  0  0  0  0
   24.8547   25.2171   11.2260 H   0  0  0  0  0  0
   25.2376   23.6582   10.4940 H   0  0  0  0  0  0
   26.5430   24.8085   10.7959 H   0  0  0  0  0  0
  1  2  1  0  0  0
  1  5  2  0  0  0
  1  7  1  0  0  0
  2  3  1  0  0  0
  2  6  1  0  0  0
  3  4  2  0  0  0
  3 28  1  0  0  0
  4  5  1  0  0  0
  4 18  1  0  0  0
  6  8  2  0  0  0
  6 12  1  0  0  0
  7 13  2  0  0  0
  7 17  1  0  0  0
  8  9  1  0  0  0
  8 29  1  0  0  0
  9 10  2  0  0  0
  9 30  1  0  0  0
 10 11  1  0  0  0
 10 22  1  0  0  0
 11 12  2  0  0  0
 11 31  1  0  0  0
 12 32  1  0  0  0
 13 14  1  0  0  0
 13 33  1  0  0  0
 14 15  2  0  0  0
 14 26  1  0  0  0
 15 16  1  0  0  0
 15 27  1  0  0  0
 16 17  2  0  0  0
 16 34  1  0  0  0
 17 35  1  0  0  0
 18 19  1  0  0  0
 18 20  1  0  0  0
 18 21  1  0  0  0
 22 23  2  0  0  0
 22 24  2  0  0  0
 22 25  1  0  0  0
 25 36  1  0  0  0
 25 37  1  0  0  0
 25 38  1  0  0  0
 27 39  1  0  0  0
 27 40  1  0  0  0
 27 41  1  0  0  0
M  END
>  <Name>
3-50

>  <Family>
B.1

>  <IC50_uM>
0.030000

>  <set>
1

$$$$
3-51
  Cerius2 12120216093D 1   1.00000                          
 Structure written by MMmdl.
 41 43  0  0  0  0  0  0  0  0999 V2000
   26.4063   22.1320   16.4597 C   0  0  0  0  0  0
   25.4693   21.4594   17.2547 N   0  0  0  0  0  0
   26.1985   20.8829   18.2787 C   0  0  0  0  0  0
   27.4999   21.3256   18.1606 C   0  0  0  0  0  0
   27.6034   22.1189   17.0315 N   0  0  0  0  0  0
   24.0481   21.3741   17.1197 C   0  0  0  0  0  0
   26.1817   22.7105   15.1303 C   0  0  0  0  0  0
   23.3436   22.2589   16.2904 C   0  0  0  0  0  0
   21.9510   22.1720   16.1781 C   0  0  0  0  0  0
   21.2547   21.2090   16.9098 C   0  0  0  0  0  0
   21.9396   20.3261   17.7451 C   0  0  0  0  0  0
   23.3317   20.4156   17.8567 C   0  0  0  0  0  0
   26.4399   24.0683   14.9127 C   0  0  0  0  0  0
   26.2532   24.6186   13.6476 C   0  0  0  0  0  0
   25.8293   23.8396   12.5687 C   0  0  0  0  0  0
   25.5778   22.4804   12.7824 C   0  0  0  0  0  0
   25.7645   21.9182   14.0501 C   0  0  0  0  0  0
   28.6677   21.0443   19.0607 C   0  0  0  0  0  0
   28.3459   20.2282   20.1069 F   0  0  0  0  0  0
   29.1847   22.1826   19.6087 F   0  0  0  0  0  0
   29.6948   20.4332   18.4012 F   0  0  0  0  0  0
   19.4878   21.0849   16.7511 S   0  0  0  0  0  0
   18.9595   22.4310   16.5528 O   0  0  0  0  0  0
   18.9900   20.3030   17.8786 O   0  0  0  0  0  0
   19.2637   20.1525   15.2598 C   0  0  0  0  0  0
   26.4902   25.9268   13.4713 F   0  0  0  0  0  0
   25.6068   24.4618   11.2236 C   0  0  0  0  0  0
   25.7407   20.2732   19.0452 H   0  0  0  0  0  0
   23.8373   23.0598   15.7466 H   0  0  0  0  0  0
   21.4244   22.8697   15.5299 H   0  0  0  0  0  0
   21.4069   19.5661   18.3132 H   0  0  0  0  0  0
   23.8316   19.6971   18.5034 H   0  0  0  0  0  0
   26.7815   24.7064   15.7236 H   0  0  0  0  0  0
   25.2397   21.8450   11.9648 H   0  0  0  0  0  0
   25.5804   20.8528   14.1834 H   0  0  0  0  0  0
   18.1911   20.0336   15.0925 H   0  0  0  0  0  0
   19.7319   19.1735   15.3783 H   0  0  0  0  0  0
   19.7109   20.6992   14.4276 H   0  0  0  0  0  0
   24.6485   24.9901   11.2091 H   0  0  0  0  0  0
   25.5983   23.7039   10.4330 H   0  0  0  0  0  0
   26.4093   25.1684   10.9875 H   0  0  0  0  0  0
  1  2  1  0  0  0
  1  5  2  0  0  0
  1  7  1  0  0  0
  2  3  1  0  0  0
  2  6  1  0  0  0
  3  4  2  0  0  0
  3 28  1  0  0  0
  4  5  1  0  0  0
  4 18  1  0  0  0
  6  8  2  0  0  0
  6 12  1  0  0  0
  7 13  2  0  0  0
  7 17  1  0  0  0
  8  9  1  0  0  0
  8 29  1  0  0  0
  9 10  2  0  0  0
  9 30  1  0  0  0
 10 11  1  0  0  0
 10 22  1  0  0  0
 11 12  2  0  0  0
 11 31  1  0  0  0
 12 32  1  0  0  0
 13 14  1  0  0  0
 13 33  1  0  0  0
 14 15  2  0  0  0
 14 26  1  0  0  0
 15 16  1  0  0  0
 15 27  1  0  0  0
 16 17  2  0  0  0
 16 34  1  0  0  0
 17 35  1  0  0  0
 18 19  1  0  0  0
 18 20  1  0  0  0
 18 21  1  0  0  0
 22 23  2  0  0  0
 22 24  2  0  0  0
 22 25  1  0  0  0
 25 36  1  0  0  0
 25 37  1  0  0  0
 25 38  1  0  0  0
 27 39  1  0  0  0
 27 40  1  0  0  0
 27 41  1  0  0  0
M  END
>  <Name>
3-51

>  <Family>
B.1

>  <IC50_uM>
0.110000

>  <set>
0

$$$$
3-52
  Cerius2 12120216093D 1   1.00000                          
 Structure written by MMmdl.
 41 43  0  0  0  0  0  0  0  0999 V2000
   26.4078   22.1286   16.4599 C   0  0  0  0  0  0
   25.4701   21.4597   17.2571 N   0  0  0  0  0  0
   26.1987   20.8875   18.2840 C   0  0  0  0  0  0
   27.5011   21.3266   18.1627 C   0  0  0  0  0  0
   27.6054   22.1145   17.0300 N   0  0  0  0  0  0
   24.0489   21.3738   17.1207 C   0  0  0  0  0  0
   26.1804   22.7043   15.1295 C   0  0  0  0  0  0
   23.3446   22.2583   16.2909 C   0  0  0  0  0  0
   21.9522   22.1708   16.1771 C   0  0  0  0  0  0
   21.2555   21.2078   16.9081 C   0  0  0  0  0  0
   21.9399   20.3247   17.7436 C   0  0  0  0  0  0
   23.3319   20.4146   17.8563 C   0  0  0  0  0  0
   26.4368   24.0679   14.9090 C   0  0  0  0  0  0
   26.2529   24.6398   13.6415 C   0  0  0  0  0  0
   25.7995   23.8276   12.6000 C   0  0  0  0  0  0
   25.5596   22.4713   12.7940 C   0  0  0  0  0  0
   25.7583   21.9070   14.0551 C   0  0  0  0  0  0
   28.6688   21.0478   19.0637 C   0  0  0  0  0  0
   28.3561   20.2052   20.0915 F   0  0  0  0  0  0
   29.1621   22.1840   19.6374 F   0  0  0  0  0  0
   29.7105   20.4686   18.3982 F   0  0  0  0  0  0
   19.4886   21.0869   16.7482 S   0  0  0  0  0  0
   18.9630   22.4320   16.5361 O   0  0  0  0  0  0
   18.9880   20.3170   17.8827 O   0  0  0  0  0  0
   19.2645   20.1414   15.2650 C   0  0  0  0  0  0
   26.4850   26.1037   13.4195 C   0  0  0  0  0  0
   25.5939   24.3538   11.3840 F   0  0  0  0  0  0
   25.7403   20.2822   19.0536 H   0  0  0  0  0  0
   23.8377   23.0601   15.7479 H   0  0  0  0  0  0
   21.4259   22.8684   15.5285 H   0  0  0  0  0  0
   21.4070   19.5647   18.3115 H   0  0  0  0  0  0
   23.8314   19.6960   18.5033 H   0  0  0  0  0  0
   26.7795   24.6886   15.7370 H   0  0  0  0  0  0
   25.2203   21.8578   11.9641 H   0  0  0  0  0  0
   25.5790   20.8416   14.1907 H   0  0  0  0  0  0
   18.1918   20.0241   15.0968 H   0  0  0  0  0  0
   19.7295   19.1622   15.3933 H   0  0  0  0  0  0
   19.7151   20.6793   14.4290 H   0  0  0  0  0  0
   26.9387   26.2800   12.4387 H   0  0  0  0  0  0
   27.1680   26.5136   14.1709 H   0  0  0  0  0  0
   25.5361   26.6459   13.4771 H   0  0  0  0  0  0
  1  2  1  0  0  0
  1  5  2  0  0  0
  1  7  1  0  0  0
  2  3  1  0  0  0
  2  6  1  0  0  0
  3  4  2  0  0  0
  3 28  1  0  0  0
  4  5  1  0  0  0
  4 18  1  0  0  0
  6  8  2  0  0  0
  6 12  1  0  0  0
  7 13  2  0  0  0
  7 17  1  0  0  0
  8  9  1  0  0  0
  8 29  1  0  0  0
  9 10  2  0  0  0
  9 30  1  0  0  0
 10 11  1  0  0  0
 10 22  1  0  0  0
 11 12  2  0  0  0
 11 31  1  0  0  0
 12 32  1  0  0  0
 13 14  1  0  0  0
 13 33  1  0  0  0
 14 15  2  0  0  0
 14 26  1  0  0  0
 15 16  1  0  0  0
 15 27  1  0  0  0
 16 17  2  0  0  0
 16 34  1  0  0  0
 17 35  1  0  0  0
 18 19  1  0  0  0
 18 20  1  0  0  0
 18 21  1  0  0  0
 22 23  2  0  0  0
 22 24  2  0  0  0
 22 25  1  0  0  0
 25 36  1  0  0  0
 25 37  1  0  0  0
 25 38  1  0  0  0
 26 39  1  0  0  0
 26 40  1  0  0  0
 26 41  1  0  0  0
M  END
>  <Name>
3-52

>  <Family>
B.1

>  <IC50_uM>
0.170000

>  <set>
0

$$$$
3-53
  Cerius2 12120216093D 1   1.00000                          
 Structure written by MMmdl.
 41 43  0  0  0  0  0  0  0  0999 V2000
   26.4079   22.1274   16.4598 C   0  0  0  0  0  0
   25.4700   21.4596   17.2576 N   0  0  0  0  0  0
   26.1985   20.8877   18.2849 C   0  0  0  0  0  0
   27.5012   21.3257   18.1629 C   0  0  0  0  0  0
   27.6058   22.1129   17.0297 N   0  0  0  0  0  0
   24.0487   21.3741   17.1215 C   0  0  0  0  0  0
   26.1808   22.7022   15.1291 C   0  0  0  0  0  0
   23.3444   22.2585   16.2915 C   0  0  0  0  0  0
   21.9519   22.1709   16.1780 C   0  0  0  0  0  0
   21.2552   21.2078   16.9089 C   0  0  0  0  0  0
   21.9396   20.3252   17.7447 C   0  0  0  0  0  0
   23.3317   20.4151   17.8574 C   0  0  0  0  0  0
   26.4416   24.0631   14.9049 C   0  0  0  0  0  0
   26.2533   24.6444   13.6381 C   0  0  0  0  0  0
   25.8099   23.8307   12.5849 C   0  0  0  0  0  0
   25.5676   22.4709   12.7929 C   0  0  0  0  0  0
   25.7585   21.9074   14.0566 C   0  0  0  0  0  0
   28.6691   21.0466   19.0634 C   0  0  0  0  0  0
   28.3585   20.1972   20.0863 F   0  0  0  0  0  0
   29.1576   22.1814   19.6436 F   0  0  0  0  0  0
   29.7137   20.4748   18.3960 F   0  0  0  0  0  0
   19.4884   21.0858   16.7469 S   0  0  0  0  0  0
   18.9624   22.4298   16.5291 O   0  0  0  0  0  0
   18.9871   20.3201   17.8840 O   0  0  0  0  0  0
   19.2662   20.1348   15.2671 C   0  0  0  0  0  0
   26.5337   26.1090   13.4497 C   0  0  0  0  0  0
   25.5539   24.4657   10.9983 Cl  0  0  0  0  0  0
   25.7397   20.2834   19.0552 H   0  0  0  0  0  0
   23.8377   23.0598   15.7483 H   0  0  0  0  0  0
   21.4255   22.8681   15.5290 H   0  0  0  0  0  0
   21.4070   19.5649   18.3124 H   0  0  0  0  0  0
   23.8310   19.6965   18.5043 H   0  0  0  0  0  0
   26.7927   24.6781   15.7342 H   0  0  0  0  0  0
   25.2324   21.8379   11.9739 H   0  0  0  0  0  0
   25.5760   20.8425   14.1918 H   0  0  0  0  0  0
   18.1937   20.0158   15.0987 H   0  0  0  0  0  0
   19.7320   19.1565   15.3991 H   0  0  0  0  0  0
   19.7166   20.6702   14.4292 H   0  0  0  0  0  0
   27.3272   26.2535   12.7095 H   0  0  0  0  0  0
   26.8659   26.5775   14.3823 H   0  0  0  0  0  0
   25.6284   26.6321   13.1253 H   0  0  0  0  0  0
  1  2  1  0  0  0
  1  5  2  0  0  0
  1  7  1  0  0  0
  2  3  1  0  0  0
  2  6  1  0  0  0
  3  4  2  0  0  0
  3 28  1  0  0  0
  4  5  1  0  0  0
  4 18  1  0  0  0
  6  8  2  0  0  0
  6 12  1  0  0  0
  7 13  2  0  0  0
  7 17  1  0  0  0
  8  9  1  0  0  0
  8 29  1  0  0  0
  9 10  2  0  0  0
  9 30  1  0  0  0
 10 11  1  0  0  0
 10 22  1  0  0  0
 11 12  2  0  0  0
 11 31  1  0  0  0
 12 32  1  0  0  0
 13 14  1  0  0  0
 13 33  1  0  0  0
 14 15  2  0  0  0
 14 26  1  0  0  0
 15 16  1  0  0  0
 15 27  1  0  0  0
 16 17  2  0  0  0
 16 34  1  0  0  0
 17 35  1  0  0  0
 18 19  1  0  0  0
 18 20  1  0  0  0
 18 21  1  0  0  0
 22 23  2  0  0  0
 22 24  2  0  0  0
 22 25  1  0  0  0
 25 36  1  0  0  0
 25 37  1  0  0  0
 25 38  1  0  0  0
 26 39  1  0  0  0
 26 40  1  0  0  0
 26 41  1  0  0  0
M  END
>  <Name>
3-53

>  <Family>
B.1

>  <IC50_uM>
0.090000

>  <set>
0

$$$$
3-54
  Cerius2 12120216093D 1   1.00000                          
 Structure written by MMmdl.
 42 44  0  0  0  0  0  0  0  0999 V2000
   26.4072   22.1274   16.4582 C   0  0  0  0  0  0
   25.4699   21.4609   17.2581 N   0  0  0  0  0  0
   26.1995   20.8892   18.2844 C   0  0  0  0  0  0
   27.5026   21.3251   18.1593 C   0  0  0  0  0  0
   27.6059   22.1123   17.0259 N   0  0  0  0  0  0
   24.0485   21.3760   17.1234 C   0  0  0  0  0  0
   26.1793   22.7030   15.1274 C   0  0  0  0  0  0
   23.3441   22.2601   16.2933 C   0  0  0  0  0  0
   21.9519   22.1710   16.1787 C   0  0  0  0  0  0
   21.2554   21.2071   16.9093 C   0  0  0  0  0  0
   21.9400   20.3259   17.7462 C   0  0  0  0  0  0
   23.3319   20.4170   17.8597 C   0  0  0  0  0  0
   26.4418   24.0670   14.9079 C   0  0  0  0  0  0
   26.2543   24.6423   13.6447 C   0  0  0  0  0  0
   25.8109   23.8267   12.5903 C   0  0  0  0  0  0
   25.5673   22.4668   12.7933 C   0  0  0  0  0  0
   25.7578   21.9051   14.0561 C   0  0  0  0  0  0
   28.6718   21.0437   19.0575 C   0  0  0  0  0  0
   28.3595   20.2012   20.0855 F   0  0  0  0  0  0
   29.1687   22.1786   19.6306 F   0  0  0  0  0  0
   29.7106   20.4626   18.3893 F   0  0  0  0  0  0
   19.4891   21.0846   16.7435 S   0  0  0  0  0  0
   18.9629   22.4271   16.5162 O   0  0  0  0  0  0
   18.9858   20.3257   17.8842 O   0  0  0  0  0  0
   19.2702   20.1258   15.2682 C   0  0  0  0  0  0
   25.5558   24.4684   11.0033 Cl  0  0  0  0  0  0
   26.4768   25.9644   13.3516 O   0  0  0  0  0  0
   26.9092   26.8092   14.4156 C   0  0  0  0  0  0
   25.7416   20.2858   19.0560 H   0  0  0  0  0  0
   23.8368   23.0622   15.7507 H   0  0  0  0  0  0
   21.4250   22.8674   15.5290 H   0  0  0  0  0  0
   21.4079   19.5652   18.3141 H   0  0  0  0  0  0
   23.8319   19.6993   18.5072 H   0  0  0  0  0  0
   26.7913   24.6580   15.7509 H   0  0  0  0  0  0
   25.2323   21.8357   11.9732 H   0  0  0  0  0  0
   25.5762   20.8403   14.1928 H   0  0  0  0  0  0
   18.1981   20.0084   15.0968 H   0  0  0  0  0  0
   19.7330   19.1470   15.4075 H   0  0  0  0  0  0
   19.7250   20.6553   14.4291 H   0  0  0  0  0  0
   27.0281   27.8188   14.0106 H   0  0  0  0  0  0
   27.8820   26.4885   14.8021 H   0  0  0  0  0  0
   26.1588   26.8555   15.2115 H   0  0  0  0  0  0
  1  2  1  0  0  0
  1  5  2  0  0  0
  1  7  1  0  0  0
  2  3  1  0  0  0
  2  6  1  0  0  0
  3  4  2  0  0  0
  3 29  1  0  0  0
  4  5  1  0  0  0
  4 18  1  0  0  0
  6  8  2  0  0  0
  6 12  1  0  0  0
  7 13  2  0  0  0
  7 17  1  0  0  0
  8  9  1  0  0  0
  8 30  1  0  0  0
  9 10  2  0  0  0
  9 31  1  0  0  0
 10 11  1  0  0  0
 10 22  1  0  0  0
 11 12  2  0  0  0
 11 32  1  0  0  0
 12 33  1  0  0  0
 13 14  1  0  0  0
 13 34  1  0  0  0
 14 15  2  0  0  0
 14 27  1  0  0  0
 15 16  1  0  0  0
 15 26  1  0  0  0
 16 17  2  0  0  0
 16 35  1  0  0  0
 17 36  1  0  0  0
 18 19  1  0  0  0
 18 20  1  0  0  0
 18 21  1  0  0  0
 22 23  2  0  0  0
 22 24  2  0  0  0
 22 25  1  0  0  0
 25 37  1  0  0  0
 25 38  1  0  0  0
 25 39  1  0  0  0
 27 28  1  0  0  0
 28 40  1  0  0  0
 28 41  1  0  0  0
 28 42  1  0  0  0
M  END
>  <Name>
3-54

>  <Family>
B.1

>  <IC50_uM>
0.250000

>  <set>
1

$$$$
3-55
  Cerius2 12120216093D 1   1.00000                          
 Structure written by MMmdl.
 46 48  0  0  0  0  0  0  0  0999 V2000
   26.4073   22.1261   16.4587 C   0  0  0  0  0  0
   25.4696   21.4599   17.2580 N   0  0  0  0  0  0
   26.1982   20.8888   18.2854 C   0  0  0  0  0  0
   27.5009   21.3268   18.1629 C   0  0  0  0  0  0
   27.6049   22.1136   17.0292 N   0  0  0  0  0  0
   24.0485   21.3750   17.1224 C   0  0  0  0  0  0
   26.1807   22.6970   15.1259 C   0  0  0  0  0  0
   23.3446   22.2595   16.2922 C   0  0  0  0  0  0
   21.9522   22.1716   16.1782 C   0  0  0  0  0  0
   21.2555   21.2081   16.9090 C   0  0  0  0  0  0
   21.9398   20.3261   17.7455 C   0  0  0  0  0  0
   23.3317   20.4163   17.8588 C   0  0  0  0  0  0
   26.4423   24.0601   14.9003 C   0  0  0  0  0  0
   26.2567   24.6563   13.6386 C   0  0  0  0  0  0
   25.8114   23.8229   12.5880 C   0  0  0  0  0  0
   25.5670   22.4610   12.7959 C   0  0  0  0  0  0
   25.7564   21.8993   14.0582 C   0  0  0  0  0  0
   28.6682   21.0492   19.0647 C   0  0  0  0  0  0
   28.3771   20.1443   20.0447 F   0  0  0  0  0  0
   29.1084   22.1737   19.7009 F   0  0  0  0  0  0
   29.7404   20.5455   18.3863 F   0  0  0  0  0  0
   19.4890   21.0839   16.7464 S   0  0  0  0  0  0
   18.9609   22.4289   16.5393 O   0  0  0  0  0  0
   18.9888   20.3084   17.8773 O   0  0  0  0  0  0
   19.2682   20.1439   15.2594 C   0  0  0  0  0  0
   25.6077   24.4270   10.9752 Cl  0  0  0  0  0  0
   26.4905   26.0255   13.4503 N   0  0  0  0  0  0
   25.5812   26.9164   14.1755 C   0  0  0  0  0  0
   27.8733   26.4836   13.3180 C   0  0  0  0  0  0
   25.7395   20.2852   19.0564 H   0  0  0  0  0  0
   23.8382   23.0609   15.7493 H   0  0  0  0  0  0
   21.4257   22.8688   15.5292 H   0  0  0  0  0  0
   21.4071   19.5660   18.3134 H   0  0  0  0  0  0
   23.8315   19.6982   18.5060 H   0  0  0  0  0  0
   26.7754   24.6659   15.7418 H   0  0  0  0  0  0
   25.2391   21.8270   11.9750 H   0  0  0  0  0  0
   25.5745   20.8347   14.1954 H   0  0  0  0  0  0
   18.1959   20.0244   15.0901 H   0  0  0  0  0  0
   19.7358   19.1655   15.3840 H   0  0  0  0  0  0
   19.7177   20.6863   14.4256 H   0  0  0  0  0  0
   25.6910   27.9443   13.8129 H   0  0  0  0  0  0
   25.8084   26.9067   15.2475 H   0  0  0  0  0  0
   24.5312   26.6365   14.0434 H   0  0  0  0  0  0
   27.8931   27.4917   12.8900 H   0  0  0  0  0  0
   28.4405   25.8332   12.6429 H   0  0  0  0  0  0
   28.3773   26.5207   14.2896 H   0  0  0  0  0  0
  1  2  1  0  0  0
  1  5  2  0  0  0
  1  7  1  0  0  0
  2  3  1  0  0  0
  2  6  1  0  0  0
  3  4  2  0  0  0
  3 30  1  0  0  0
  4  5  1  0  0  0
  4 18  1  0  0  0
  6  8  2  0  0  0
  6 12  1  0  0  0
  7 13  2  0  0  0
  7 17  1  0  0  0
  8  9  1  0  0  0
  8 31  1  0  0  0
  9 10  2  0  0  0
  9 32  1  0  0  0
 10 11  1  0  0  0
 10 22  1  0  0  0
 11 12  2  0  0  0
 11 33  1  0  0  0
 12 34  1  0  0  0
 13 14  1  0  0  0
 13 35  1  0  0  0
 14 15  2  0  0  0
 14 27  1  0  0  0
 15 16  1  0  0  0
 15 26  1  0  0  0
 16 17  2  0  0  0
 16 36  1  0  0  0
 17 37  1  0  0  0
 18 19  1  0  0  0
 18 20  1  0  0  0
 18 21  1  0  0  0
 22 23  2  0  0  0
 22 24  2  0  0  0
 22 25  1  0  0  0
 25 38  1  0  0  0
 25 39  1  0  0  0
 25 40  1  0  0  0
 27 28  1  0  0  0
 27 29  1  0  0  0
 28 41  1  0  0  0
 28 42  1  0  0  0
 28 43  1  0  0  0
 29 44  1  0  0  0
 29 45  1  0  0  0
 29 46  1  0  0  0
M  END
>  <Name>
3-55

>  <Family>
B.1

>  <IC50_uM>
1.040000

>  <set>
1

$$$$
3-56
  Cerius2 12120216093D 1   1.00000                          
 Structure written by MMmdl.
 41 44  0  0  0  0  0  0  0  0999 V2000
   26.4085   22.1355   16.4608 C   0  0  0  0  0  0
   25.4720   21.4614   17.2548 N   0  0  0  0  0  0
   26.2018   20.8819   18.2766 C   0  0  0  0  0  0
   27.5040   21.3224   18.1569 C   0  0  0  0  0  0
   27.6068   22.1182   17.0296 N   0  0  0  0  0  0
   24.0507   21.3765   17.1195 C   0  0  0  0  0  0
   26.1808   22.7195   15.1339 C   0  0  0  0  0  0
   23.3466   22.2611   16.2896 C   0  0  0  0  0  0
   21.9542   22.1733   16.1756 C   0  0  0  0  0  0
   21.2574   21.2099   16.9064 C   0  0  0  0  0  0
   21.9416   20.3276   17.7424 C   0  0  0  0  0  0
   23.3337   20.4177   17.8555 C   0  0  0  0  0  0
   26.4426   24.0830   14.9252 C   0  0  0  0  0  0
   26.2408   24.5980   13.6612 C   0  0  0  0  0  0
   25.8089   23.8137   12.6178 C   0  0  0  0  0  0
   25.5594   22.4685   12.7775 C   0  0  0  0  0  0
   25.7553   21.9171   14.0489 C   0  0  0  0  0  0
   28.6728   21.0379   19.0548 C   0  0  0  0  0  0
   28.3653   20.1764   20.0684 F   0  0  0  0  0  0
   29.1567   22.1685   19.6473 F   0  0  0  0  0  0
   29.7198   20.4775   18.3816 F   0  0  0  0  0  0
   19.4907   21.0885   16.7435 S   0  0  0  0  0  0
   18.9652   22.4324   16.5235 O   0  0  0  0  0  0
   18.9886   20.3245   17.8814 O   0  0  0  0  0  0
   19.2691   20.1361   15.2645 C   0  0  0  0  0  0
   25.6759   24.5150   11.4608 O   0  0  0  0  0  0
   26.4352   25.8925   13.2915 O   0  0  0  0  0  0
   26.0711   25.8390   11.8916 C   0  0  0  0  0  0
   25.7443   20.2712   19.0426 H   0  0  0  0  0  0
   23.8400   23.0628   15.7468 H   0  0  0  0  0  0
   21.4276   22.8706   15.5267 H   0  0  0  0  0  0
   21.4091   19.5674   18.3102 H   0  0  0  0  0  0
   23.8331   19.6993   18.5027 H   0  0  0  0  0  0
   26.7910   24.7191   15.7336 H   0  0  0  0  0  0
   25.2272   21.8530   11.9475 H   0  0  0  0  0  0
   25.5772   20.8516   14.1907 H   0  0  0  0  0  0
   18.1967   20.0195   15.0941 H   0  0  0  0  0  0
   19.7322   19.1568   15.3986 H   0  0  0  0  0  0
   19.7225   20.6692   14.4269 H   0  0  0  0  0  0
   25.2366   26.5283   11.7191 H   0  0  0  0  0  0
   26.9303   26.1615   11.2925 H   0  0  0  0  0  0
  1  2  1  0  0  0
  1  5  2  0  0  0
  1  7  1  0  0  0
  2  3  1  0  0  0
  2  6  1  0  0  0
  3  4  2  0  0  0
  3 29  1  0  0  0
  4  5  1  0  0  0
  4 18  1  0  0  0
  6  8  2  0  0  0
  6 12  1  0  0  0
  7 13  2  0  0  0
  7 17  1  0  0  0
  8  9  1  0  0  0
  8 30  1  0  0  0
  9 10  2  0  0  0
  9 31  1  0  0  0
 10 11  1  0  0  0
 10 22  1  0  0  0
 11 12  2  0  0  0
 11 32  1  0  0  0
 12 33  1  0  0  0
 13 14  1  0  0  0
 13 34  1  0  0  0
 14 15  2  0  0  0
 14 27  1  0  0  0
 15 16  1  0  0  0
 15 26  1  0  0  0
 16 17  2  0  0  0
 16 35  1  0  0  0
 17 36  1  0  0  0
 18 19  1  0  0  0
 18 20  1  0  0  0
 18 21  1  0  0  0
 22 23  2  0  0  0
 22 24  2  0  0  0
 22 25  1  0  0  0
 25 37  1  0  0  0
 25 38  1  0  0  0
 25 39  1  0  0  0
 26 28  1  0  0  0
 27 28  1  0  0  0
 28 40  1  0  0  0
 28 41  1  0  0  0
M  END
>  <Name>
3-56

>  <Family>
B.1

>  <IC50_uM>
0.170000

>  <set>
2

$$$$
3-57
  Cerius2 12120216093D 1   1.00000                          
 Structure written by MMmdl.
 38 40  0  0  0  0  0  0  0  0999 V2000
   26.4048   22.1331   16.4599 C   0  0  0  0  0  0
   25.4689   21.4595   17.2552 N   0  0  0  0  0  0
   26.1993   20.8820   18.2777 C   0  0  0  0  0  0
   27.5005   21.3257   18.1587 C   0  0  0  0  0  0
   27.6022   22.1202   17.0301 N   0  0  0  0  0  0
   24.0479   21.3743   17.1208 C   0  0  0  0  0  0
   26.1795   22.7114   15.1303 C   0  0  0  0  0  0
   23.3434   22.2590   16.2913 C   0  0  0  0  0  0
   21.9509   22.1716   16.1789 C   0  0  0  0  0  0
   21.2547   21.2085   16.9104 C   0  0  0  0  0  0
   21.9398   20.3258   17.7461 C   0  0  0  0  0  0
   23.3317   20.4157   17.8580 C   0  0  0  0  0  0
   26.4400   24.0721   14.9144 C   0  0  0  0  0  0
   26.2565   24.6207   13.6488 C   0  0  0  0  0  0
   25.8278   23.8290   12.5903 C   0  0  0  0  0  0
   25.5829   22.4748   12.7803 C   0  0  0  0  0  0
   25.7659   21.9141   14.0481 C   0  0  0  0  0  0
   28.6692   21.0451   19.0578 C   0  0  0  0  0  0
   28.3565   20.2048   20.0874 F   0  0  0  0  0  0
   29.1669   22.1808   19.6287 F   0  0  0  0  0  0
   29.7079   20.4622   18.3907 F   0  0  0  0  0  0
   19.4878   21.0850   16.7509 S   0  0  0  0  0  0
   18.9598   22.4305   16.5477 O   0  0  0  0  0  0
   18.9894   20.3071   17.8809 O   0  0  0  0  0  0
   19.2642   20.1481   15.2622 C   0  0  0  0  0  0
   25.6551   24.3689   11.3752 F   0  0  0  0  0  0
   26.4998   25.9250   13.4533 F   0  0  0  0  0  0
   25.7424   20.2711   19.0440 H   0  0  0  0  0  0
   23.8369   23.0608   15.7488 H   0  0  0  0  0  0
   21.4239   22.8692   15.5307 H   0  0  0  0  0  0
   21.4072   19.5659   18.3143 H   0  0  0  0  0  0
   23.8320   19.6975   18.5048 H   0  0  0  0  0  0
   26.7831   24.7090   15.7255 H   0  0  0  0  0  0
   25.2574   21.8591   11.9469 H   0  0  0  0  0  0
   25.5868   20.8479   14.1819 H   0  0  0  0  0  0
   18.1916   20.0305   15.0939 H   0  0  0  0  0  0
   19.7305   19.1688   15.3842 H   0  0  0  0  0  0
   19.7134   20.6916   14.4289 H   0  0  0  0  0  0
  1  2  1  0  0  0
  1  5  2  0  0  0
  1  7  1  0  0  0
  2  3  1  0  0  0
  2  6  1  0  0  0
  3  4  2  0  0  0
  3 28  1  0  0  0
  4  5  1  0  0  0
  4 18  1  0  0  0
  6  8  2  0  0  0
  6 12  1  0  0  0
  7 13  2  0  0  0
  7 17  1  0  0  0
  8  9  1  0  0  0
  8 29  1  0  0  0
  9 10  2  0  0  0
  9 30  1  0  0  0
 10 11  1  0  0  0
 10 22  1  0  0  0
 11 12  2  0  0  0
 11 31  1  0  0  0
 12 32  1  0  0  0
 13 14  1  0  0  0
 13 33  1  0  0  0
 14 15  2  0  0  0
 14 27  1  0  0  0
 15 16  1  0  0  0
 15 26  1  0  0  0
 16 17  2  0  0  0
 16 34  1  0  0  0
 17 35  1  0  0  0
 18 19  1  0  0  0
 18 20  1  0  0  0
 18 21  1  0  0  0
 22 23  2  0  0  0
 22 24  2  0  0  0
 22 25  1  0  0  0
 25 36  1  0  0  0
 25 37  1  0  0  0
 25 38  1  0  0  0
M  END
>  <Name>
3-57

>  <Family>
B.1

>  <IC50_uM>
0.120000

>  <set>
0

$$$$
3-58
  Cerius2 12120216093D 1   1.00000                          
 Structure written by MMmdl.
 44 46  0  0  0  0  0  0  0  0999 V2000
   26.4090   22.1268   16.4595 C   0  0  0  0  0  0
   25.4705   21.4595   17.2573 N   0  0  0  0  0  0
   26.1982   20.8876   18.2851 C   0  0  0  0  0  0
   27.5011   21.3251   18.1640 C   0  0  0  0  0  0
   27.6066   22.1120   17.0307 N   0  0  0  0  0  0
   24.0490   21.3744   17.1219 C   0  0  0  0  0  0
   26.1816   22.7023   15.1289 C   0  0  0  0  0  0
   23.3446   22.2589   16.2921 C   0  0  0  0  0  0
   21.9523   22.1713   16.1784 C   0  0  0  0  0  0
   21.2554   21.2080   16.9091 C   0  0  0  0  0  0
   21.9398   20.3258   17.7454 C   0  0  0  0  0  0
   23.3319   20.4158   17.8581 C   0  0  0  0  0  0
   26.4421   24.0611   14.9038 C   0  0  0  0  0  0
   26.2503   24.6418   13.6378 C   0  0  0  0  0  0
   25.7980   23.8393   12.5723 C   0  0  0  0  0  0
   25.5611   22.4748   12.7946 C   0  0  0  0  0  0
   25.7569   21.9104   14.0572 C   0  0  0  0  0  0
   28.6676   21.0462   19.0663 C   0  0  0  0  0  0
   28.3573   20.1907   20.0843 F   0  0  0  0  0  0
   29.1500   22.1801   19.6536 F   0  0  0  0  0  0
   29.7163   20.4815   18.3992 F   0  0  0  0  0  0
   19.4891   21.0859   16.7444 S   0  0  0  0  0  0
   18.9628   22.4296   16.5252 O   0  0  0  0  0  0
   18.9866   20.3206   17.8811 O   0  0  0  0  0  0
   19.2687   20.1347   15.2644 C   0  0  0  0  0  0
   25.5761   24.4109   11.1975 C   0  0  0  0  0  0
   26.5315   26.1087   13.4514 C   0  0  0  0  0  0
   25.7391   20.2836   19.0555 H   0  0  0  0  0  0
   23.8382   23.0595   15.7477 H   0  0  0  0  0  0
   21.4259   22.8681   15.5289 H   0  0  0  0  0  0
   21.4074   19.5656   18.3134 H   0  0  0  0  0  0
   23.8310   19.6974   18.5053 H   0  0  0  0  0  0
   26.7955   24.6764   15.7318 H   0  0  0  0  0  0
   25.2219   21.8340   11.9809 H   0  0  0  0  0  0
   25.5739   20.8453   14.1918 H   0  0  0  0  0  0
   18.1964   20.0190   15.0929 H   0  0  0  0  0  0
   19.7311   19.1551   15.3985 H   0  0  0  0  0  0
   19.7234   20.6683   14.4277 H   0  0  0  0  0  0
   25.1926   23.6544   10.5046 H   0  0  0  0  0  0
   26.5179   24.7888   10.7875 H   0  0  0  0  0  0
   24.8419   25.2218   11.2361 H   0  0  0  0  0  0
   27.3012   26.2547   12.6871 H   0  0  0  0  0  0
   26.8952   26.5691   14.3762 H   0  0  0  0  0  0
   25.6186   26.6359   13.1570 H   0  0  0  0  0  0
  1  2  1  0  0  0
  1  5  2  0  0  0
  1  7  1  0  0  0
  2  3  1  0  0  0
  2  6  1  0  0  0
  3  4  2  0  0  0
  3 28  1  0  0  0
  4  5  1  0  0  0
  4 18  1  0  0  0
  6  8  2  0  0  0
  6 12  1  0  0  0
  7 13  2  0  0  0
  7 17  1  0  0  0
  8  9  1  0  0  0
  8 29  1  0  0  0
  9 10  2  0  0  0
  9 30  1  0  0  0
 10 11  1  0  0  0
 10 22  1  0  0  0
 11 12  2  0  0  0
 11 31  1  0  0  0
 12 32  1  0  0  0
 13 14  1  0  0  0
 13 33  1  0  0  0
 14 15  2  0  0  0
 14 27  1  0  0  0
 15 16  1  0  0  0
 15 26  1  0  0  0
 16 17  2  0  0  0
 16 34  1  0  0  0
 17 35  1  0  0  0
 18 19  1  0  0  0
 18 20  1  0  0  0
 18 21  1  0  0  0
 22 23  2  0  0  0
 22 24  2  0  0  0
 22 25  1  0  0  0
 25 36  1  0  0  0
 25 37  1  0  0  0
 25 38  1  0  0  0
 26 39  1  0  0  0
 26 40  1  0  0  0
 26 41  1  0  0  0
 27 42  1  0  0  0
 27 43  1  0  0  0
 27 44  1  0  0  0
M  END
>  <Name>
3-58

>  <Family>
B.1

>  <IC50_uM>
0.330000

>  <set>
0

$$$$
3-59
  Cerius2 12120216093D 1   1.00000                          
 Structure written by MMmdl.
 41 43  0  0  0  0  0  0  0  0999 V2000
   26.4088   22.1276   16.4595 C   0  0  0  0  0  0
   25.4708   21.4615   17.2587 N   0  0  0  0  0  0
   26.1994   20.8894   18.2856 C   0  0  0  0  0  0
   27.5028   21.3245   18.1614 C   0  0  0  0  0  0
   27.6076   22.1103   17.0272 N   0  0  0  0  0  0
   24.0498   21.3759   17.1217 C   0  0  0  0  0  0
   26.1799   22.7030   15.1297 C   0  0  0  0  0  0
   23.3459   22.2601   16.2909 C   0  0  0  0  0  0
   21.9537   22.1715   16.1754 C   0  0  0  0  0  0
   21.2568   21.2080   16.9058 C   0  0  0  0  0  0
   21.9409   20.3257   17.7422 C   0  0  0  0  0  0
   23.3327   20.4164   17.8567 C   0  0  0  0  0  0
   26.4369   24.0653   14.9088 C   0  0  0  0  0  0
   26.2486   24.6397   13.6435 C   0  0  0  0  0  0
   25.7870   23.8369   12.5940 C   0  0  0  0  0  0
   25.5516   22.4782   12.8034 C   0  0  0  0  0  0
   25.7539   21.9066   14.0585 C   0  0  0  0  0  0
   28.6714   21.0438   19.0606 C   0  0  0  0  0  0
   28.3593   20.1999   20.0875 F   0  0  0  0  0  0
   29.1662   22.1788   19.6353 F   0  0  0  0  0  0
   29.7120   20.4648   18.3931 F   0  0  0  0  0  0
   19.4901   21.0864   16.7446 S   0  0  0  0  0  0
   18.9643   22.4309   16.5290 O   0  0  0  0  0  0
   18.9887   20.3187   17.8802 O   0  0  0  0  0  0
   19.2678   20.1377   15.2633 C   0  0  0  0  0  0
   26.4822   26.1073   13.4343 C   0  0  0  0  0  0
   25.0035   21.4968   11.4986 Cl  0  0  0  0  0  0
   25.7403   20.2868   19.0571 H   0  0  0  0  0  0
   23.8387   23.0631   15.7495 H   0  0  0  0  0  0
   21.4275   22.8689   15.5266 H   0  0  0  0  0  0
   21.4078   19.5655   18.3097 H   0  0  0  0  0  0
   23.8319   19.6985   18.5044 H   0  0  0  0  0  0
   26.7835   24.6853   15.7361 H   0  0  0  0  0  0
   25.6173   24.2711   11.6103 H   0  0  0  0  0  0
   25.5764   20.8429   14.2012 H   0  0  0  0  0  0
   18.1953   20.0186   15.0948 H   0  0  0  0  0  0
   19.7339   19.1594   15.3938 H   0  0  0  0  0  0
   19.7179   20.6745   14.4262 H   0  0  0  0  0  0
   26.7743   26.3134   12.3993 H   0  0  0  0  0  0
   27.2911   26.4685   14.0779 H   0  0  0  0  0  0
   25.5699   26.6669   13.6625 H   0  0  0  0  0  0
  1  2  1  0  0  0
  1  5  2  0  0  0
  1  7  1  0  0  0
  2  3  1  0  0  0
  2  6  1  0  0  0
  3  4  2  0  0  0
  3 28  1  0  0  0
  4  5  1  0  0  0
  4 18  1  0  0  0
  6  8  2  0  0  0
  6 12  1  0  0  0
  7 13  2  0  0  0
  7 17  1  0  0  0
  8  9  1  0  0  0
  8 29  1  0  0  0
  9 10  2  0  0  0
  9 30  1  0  0  0
 10 11  1  0  0  0
 10 22  1  0  0  0
 11 12  2  0  0  0
 11 31  1  0  0  0
 12 32  1  0  0  0
 13 14  1  0  0  0
 13 33  1  0  0  0
 14 15  2  0  0  0
 14 26  1  0  0  0
 15 16  1  0  0  0
 15 34  1  0  0  0
 16 17  2  0  0  0
 16 27  1  0  0  0
 17 35  1  0  0  0
 18 19  1  0  0  0
 18 20  1  0  0  0
 18 21  1  0  0  0
 22 23  2  0  0  0
 22 24  2  0  0  0
 22 25  1  0  0  0
 25 36  1  0  0  0
 25 37  1  0  0  0
 25 38  1  0  0  0
 26 39  1  0  0  0
 26 40  1  0  0  0
 26 41  1  0  0  0
M  END
>  <Name>
3-59

>  <Family>
B.1

>  <IC50_uM>
0.080000

>  <set>
0

$$$$
3-60
  Cerius2 12120216093D 1   1.00000                          
 Structure written by MMmdl.
 41 43  0  0  0  0  0  0  0  0999 V2000
   26.4080   22.1280   16.4599 C   0  0  0  0  0  0
   25.4706   21.4605   17.2586 N   0  0  0  0  0  0
   26.1996   20.8877   18.2847 C   0  0  0  0  0  0
   27.5028   21.3241   18.1609 C   0  0  0  0  0  0
   27.6068   22.1111   17.0274 N   0  0  0  0  0  0
   24.0495   21.3753   17.1222 C   0  0  0  0  0  0
   26.1789   22.7031   15.1300 C   0  0  0  0  0  0
   23.3459   22.2599   16.2917 C   0  0  0  0  0  0
   21.9536   22.1717   16.1766 C   0  0  0  0  0  0
   21.2566   21.2083   16.9069 C   0  0  0  0  0  0
   21.9406   20.3259   17.7436 C   0  0  0  0  0  0
   23.3324   20.4164   17.8577 C   0  0  0  0  0  0
   26.4354   24.0665   14.9076 C   0  0  0  0  0  0
   26.2497   24.6409   13.6406 C   0  0  0  0  0  0
   25.7926   23.8364   12.5922 C   0  0  0  0  0  0
   25.5602   22.4821   12.8087 C   0  0  0  0  0  0
   25.7558   21.9071   14.0592 C   0  0  0  0  0  0
   28.6713   21.0434   19.0601 C   0  0  0  0  0  0
   28.3621   20.1900   20.0801 F   0  0  0  0  0  0
   29.1582   22.1769   19.6443 F   0  0  0  0  0  0
   29.7166   20.4756   18.3904 F   0  0  0  0  0  0
   19.4900   21.0862   16.7439 S   0  0  0  0  0  0
   18.9639   22.4303   16.5263 O   0  0  0  0  0  0
   18.9881   20.3200   17.8803 O   0  0  0  0  0  0
   19.2688   20.1359   15.2635 C   0  0  0  0  0  0
   26.4827   26.1082   13.4308 C   0  0  0  0  0  0
   25.1401   21.7170   11.7920 F   0  0  0  0  0  0
   25.7410   20.2838   19.0556 H   0  0  0  0  0  0
   23.8393   23.0625   15.7504 H   0  0  0  0  0  0
   21.4275   22.8691   15.5276 H   0  0  0  0  0  0
   21.4078   19.5657   18.3112 H   0  0  0  0  0  0
   23.8318   19.6983   18.5054 H   0  0  0  0  0  0
   26.7801   24.6876   15.7351 H   0  0  0  0  0  0
   25.6212   24.2519   11.6021 H   0  0  0  0  0  0
   25.5738   20.8433   14.1845 H   0  0  0  0  0  0
   18.1965   20.0174   15.0939 H   0  0  0  0  0  0
   19.7341   19.1573   15.3955 H   0  0  0  0  0  0
   19.7205   20.6715   14.4264 H   0  0  0  0  0  0
   26.7643   26.3155   12.3931 H   0  0  0  0  0  0
   27.2986   26.4676   14.0667 H   0  0  0  0  0  0
   25.5735   26.6688   13.6688 H   0  0  0  0  0  0
  1  2  1  0  0  0
  1  5  2  0  0  0
  1  7  1  0  0  0
  2  3  1  0  0  0
  2  6  1  0  0  0
  3  4  2  0  0  0
  3 28  1  0  0  0
  4  5  1  0  0  0
  4 18  1  0  0  0
  6  8  2  0  0  0
  6 12  1  0  0  0
  7 13  2  0  0  0
  7 17  1  0  0  0
  8  9  1  0  0  0
  8 29  1  0  0  0
  9 10  2  0  0  0
  9 30  1  0  0  0
 10 11  1  0  0  0
 10 22  1  0  0  0
 11 12  2  0  0  0
 11 31  1  0  0  0
 12 32  1  0  0  0
 13 14  1  0  0  0
 13 33  1  0  0  0
 14 15  2  0  0  0
 14 26  1  0  0  0
 15 16  1  0  0  0
 15 34  1  0  0  0
 16 17  2  0  0  0
 16 27  1  0  0  0
 17 35  1  0  0  0
 18 19  1  0  0  0
 18 20  1  0  0  0
 18 21  1  0  0  0
 22 23  2  0  0  0
 22 24  2  0  0  0
 22 25  1  0  0  0
 25 36  1  0  0  0
 25 37  1  0  0  0
 25 38  1  0  0  0
 26 39  1  0  0  0
 26 40  1  0  0  0
 26 41  1  0  0  0
M  END
>  <Name>
3-60

>  <Family>
B.1

>  <IC50_uM>
0.110000

>  <set>
0

$$$$
3-61
  Cerius2 12120216093D 1   1.00000                          
 Structure written by MMmdl.
 42 44  0  0  0  0  0  0  0  0999 V2000
   26.4069   22.1281   16.4594 C   0  0  0  0  0  0
   25.4703   21.4602   17.2588 N   0  0  0  0  0  0
   26.2000   20.8871   18.2842 C   0  0  0  0  0  0
   27.5027   21.3252   18.1605 C   0  0  0  0  0  0
   27.6059   22.1117   17.0263 N   0  0  0  0  0  0
   24.0493   21.3755   17.1238 C   0  0  0  0  0  0
   26.1782   22.7027   15.1292 C   0  0  0  0  0  0
   23.3459   22.2602   16.2936 C   0  0  0  0  0  0
   21.9536   22.1720   16.1787 C   0  0  0  0  0  0
   21.2566   21.2083   16.9086 C   0  0  0  0  0  0
   21.9402   20.3267   17.7461 C   0  0  0  0  0  0
   23.3322   20.4169   17.8601 C   0  0  0  0  0  0
   26.4389   24.0639   14.9043 C   0  0  0  0  0  0
   26.2512   24.6391   13.6413 C   0  0  0  0  0  0
   25.8111   23.8419   12.5877 C   0  0  0  0  0  0
   25.5742   22.4873   12.8063 C   0  0  0  0  0  0
   25.7574   21.9095   14.0574 C   0  0  0  0  0  0
   28.6715   21.0468   19.0606 C   0  0  0  0  0  0
   28.3554   20.2177   20.0982 F   0  0  0  0  0  0
   29.1756   22.1849   19.6207 F   0  0  0  0  0  0
   29.7063   20.4524   18.3979 F   0  0  0  0  0  0
   19.4902   21.0850   16.7415 S   0  0  0  0  0  0
   18.9633   22.4288   16.5239 O   0  0  0  0  0  0
   18.9872   20.3176   17.8766 O   0  0  0  0  0  0
   19.2721   20.1357   15.2599 C   0  0  0  0  0  0
   25.1635   21.7219   11.7855 F   0  0  0  0  0  0
   26.5323   25.9766   13.5730 O   0  0  0  0  0  0
   26.9719   26.6029   14.7778 C   0  0  0  0  0  0
   25.7416   20.2830   19.0549 H   0  0  0  0  0  0
   23.8396   23.0630   15.7526 H   0  0  0  0  0  0
   21.4274   22.8695   15.5296 H   0  0  0  0  0  0
   21.4074   19.5665   18.3140 H   0  0  0  0  0  0
   23.8320   19.6991   18.5078 H   0  0  0  0  0  0
   26.7900   24.6866   15.7268 H   0  0  0  0  0  0
   25.6478   24.2310   11.5886 H   0  0  0  0  0  0
   25.5723   20.8458   14.1795 H   0  0  0  0  0  0
   18.2002   20.0207   15.0859 H   0  0  0  0  0  0
   19.7339   19.1557   15.3934 H   0  0  0  0  0  0
   19.7283   20.6704   14.4248 H   0  0  0  0  0  0
   27.1536   27.6590   14.5572 H   0  0  0  0  0  0
   27.9140   26.1670   15.1262 H   0  0  0  0  0  0
   26.1992   26.5509   15.5519 H   0  0  0  0  0  0
  1  2  1  0  0  0
  1  5  2  0  0  0
  1  7  1  0  0  0
  2  3  1  0  0  0
  2  6  1  0  0  0
  3  4  2  0  0  0
  3 29  1  0  0  0
  4  5  1  0  0  0
  4 18  1  0  0  0
  6  8  2  0  0  0
  6 12  1  0  0  0
  7 13  2  0  0  0
  7 17  1  0  0  0
  8  9  1  0  0  0
  8 30  1  0  0  0
  9 10  2  0  0  0
  9 31  1  0  0  0
 10 11  1  0  0  0
 10 22  1  0  0  0
 11 12  2  0  0  0
 11 32  1  0  0  0
 12 33  1  0  0  0
 13 14  1  0  0  0
 13 34  1  0  0  0
 14 15  2  0  0  0
 14 27  1  0  0  0
 15 16  1  0  0  0
 15 35  1  0  0  0
 16 17  2  0  0  0
 16 26  1  0  0  0
 17 36  1  0  0  0
 18 19  1  0  0  0
 18 20  1  0  0  0
 18 21  1  0  0  0
 22 23  2  0  0  0
 22 24  2  0  0  0
 22 25  1  0  0  0
 25 37  1  0  0  0
 25 38  1  0  0  0
 25 39  1  0  0  0
 27 28  1  0  0  0
 28 40  1  0  0  0
 28 41  1  0  0  0
 28 42  1  0  0  0
M  END
>  <Name>
3-61

>  <Family>
B.1

>  <IC50_uM>
0.960000

>  <set>
1

$$$$
3-62
  Cerius2 12120216093D 1   1.00000                          
 Structure written by MMmdl.
 41 43  0  0  0  0  0  0  0  0999 V2000
   26.4052   22.1289   16.4604 C   0  0  0  0  0  0
   25.4692   21.4588   17.2580 N   0  0  0  0  0  0
   26.1993   20.8841   18.2822 C   0  0  0  0  0  0
   27.5010   21.3257   18.1609 C   0  0  0  0  0  0
   27.6032   22.1167   17.0296 N   0  0  0  0  0  0
   24.0484   21.3734   17.1224 C   0  0  0  0  0  0
   26.1780   22.7031   15.1293 C   0  0  0  0  0  0
   23.3449   22.2583   16.2922 C   0  0  0  0  0  0
   21.9526   22.1709   16.1782 C   0  0  0  0  0  0
   21.2557   21.2077   16.9090 C   0  0  0  0  0  0
   21.9397   20.3249   17.7451 C   0  0  0  0  0  0
   23.3317   20.4146   17.8585 C   0  0  0  0  0  0
   26.4355   24.0666   14.9068 C   0  0  0  0  0  0
   26.2568   24.6441   13.6367 C   0  0  0  0  0  0
   25.8101   23.8327   12.5853 C   0  0  0  0  0  0
   25.5761   22.4788   12.8028 C   0  0  0  0  0  0
   25.7623   21.9064   14.0561 C   0  0  0  0  0  0
   28.6700   21.0460   19.0598 C   0  0  0  0  0  0
   28.3597   20.1995   20.0850 F   0  0  0  0  0  0
   29.1620   22.1811   19.6366 F   0  0  0  0  0  0
   29.7119   20.4707   18.3913 F   0  0  0  0  0  0
   19.4887   21.0864   16.7487 S   0  0  0  0  0  0
   18.9627   22.4316   16.5384 O   0  0  0  0  0  0
   18.9886   20.3150   17.8823 O   0  0  0  0  0  0
   19.2652   20.1428   15.2643 C   0  0  0  0  0  0
   25.1659   21.7114   11.7839 F   0  0  0  0  0  0
   26.5053   26.1143   13.4215 C   0  0  0  0  0  0
   25.4044   26.8798   13.6880 F   0  0  0  0  0  0
   26.8665   26.4273   12.1400 F   0  0  0  0  0  0
   27.5022   26.6209   14.2091 F   0  0  0  0  0  0
   25.7420   20.2762   19.0507 H   0  0  0  0  0  0
   23.8387   23.0608   15.7509 H   0  0  0  0  0  0
   21.4262   22.8689   15.5301 H   0  0  0  0  0  0
   21.4066   19.5649   18.3130 H   0  0  0  0  0  0
   23.8314   19.6966   18.5058 H   0  0  0  0  0  0
   26.7780   24.6884   15.7354 H   0  0  0  0  0  0
   25.6494   24.2454   11.5918 H   0  0  0  0  0  0
   25.5813   20.8422   14.1807 H   0  0  0  0  0  0
   18.1926   20.0252   15.0956 H   0  0  0  0  0  0
   19.7306   19.1636   15.3912 H   0  0  0  0  0  0
   19.7156   20.6820   14.4289 H   0  0  0  0  0  0
  1  2  1  0  0  0
  1  5  2  0  0  0
  1  7  1  0  0  0
  2  3  1  0  0  0
  2  6  1  0  0  0
  3  4  2  0  0  0
  3 31  1  0  0  0
  4  5  1  0  0  0
  4 18  1  0  0  0
  6  8  2  0  0  0
  6 12  1  0  0  0
  7 13  2  0  0  0
  7 17  1  0  0  0
  8  9  1  0  0  0
  8 32  1  0  0  0
  9 10  2  0  0  0
  9 33  1  0  0  0
 10 11  1  0  0  0
 10 22  1  0  0  0
 11 12  2  0  0  0
 11 34  1  0  0  0
 12 35  1  0  0  0
 13 14  1  0  0  0
 13 36  1  0  0  0
 14 15  2  0  0  0
 14 27  1  0  0  0
 15 16  1  0  0  0
 15 37  1  0  0  0
 16 17  2  0  0  0
 16 26  1  0  0  0
 17 38  1  0  0  0
 18 19  1  0  0  0
 18 20  1  0  0  0
 18 21  1  0  0  0
 22 23  2  0  0  0
 22 24  2  0  0  0
 22 25  1  0  0  0
 25 39  1  0  0  0
 25 40  1  0  0  0
 25 41  1  0  0  0
 27 28  1  0  0  0
 27 29  1  0  0  0
 27 30  1  0  0  0
M  END
>  <Name>
3-62

>  <Family>
B.1

>  <IC50_uM>
>100

>  <set>
0

$$$$
3-63
  Cerius2 12120216093D 1   1.00000                          
 Structure written by MMmdl.
 38 40  0  0  0  0  0  0  0  0999 V2000
   26.4068   22.1308   16.4600 C   0  0  0  0  0  0
   25.4704   21.4606   17.2574 N   0  0  0  0  0  0
   26.2003   20.8843   18.2808 C   0  0  0  0  0  0
   27.5026   21.3240   18.1588 C   0  0  0  0  0  0
   27.6052   22.1151   17.0278 N   0  0  0  0  0  0
   24.0494   21.3758   17.1218 C   0  0  0  0  0  0
   26.1792   22.7084   15.1308 C   0  0  0  0  0  0
   23.3459   22.2605   16.2915 C   0  0  0  0  0  0
   21.9536   22.1724   16.1765 C   0  0  0  0  0  0
   21.2566   21.2090   16.9071 C   0  0  0  0  0  0
   21.9407   20.3267   17.7438 C   0  0  0  0  0  0
   23.3325   20.4170   17.8578 C   0  0  0  0  0  0
   26.4404   24.0681   14.9124 C   0  0  0  0  0  0
   26.2491   24.6242   13.6474 C   0  0  0  0  0  0
   25.8101   23.8391   12.5850 C   0  0  0  0  0  0
   25.5706   22.4839   12.7953 C   0  0  0  0  0  0
   25.7589   21.9134   14.0549 C   0  0  0  0  0  0
   28.6719   21.0424   19.0569 C   0  0  0  0  0  0
   28.3591   20.2018   20.0863 F   0  0  0  0  0  0
   29.1704   22.1775   19.6280 F   0  0  0  0  0  0
   29.7097   20.4590   18.3891 F   0  0  0  0  0  0
   19.4899   21.0859   16.7455 S   0  0  0  0  0  0
   18.9628   22.4309   16.5366 O   0  0  0  0  0  0
   18.9895   20.3124   17.8777 O   0  0  0  0  0  0
   19.2680   20.1437   15.2601 C   0  0  0  0  0  0
   25.0392   21.4990   11.4861 Cl  0  0  0  0  0  0
   26.5605   26.2996   13.3975 Cl  0  0  0  0  0  0
   25.7427   20.2766   19.0491 H   0  0  0  0  0  0
   23.8392   23.0636   15.7507 H   0  0  0  0  0  0
   21.4273   22.8701   15.5279 H   0  0  0  0  0  0
   21.4075   19.5666   18.3114 H   0  0  0  0  0  0
   23.8320   19.6990   18.5054 H   0  0  0  0  0  0
   26.7896   24.6917   15.7332 H   0  0  0  0  0  0
   25.6620   24.2773   11.6020 H   0  0  0  0  0  0
   25.5800   20.8493   14.1953 H   0  0  0  0  0  0
   18.1957   20.0237   15.0920 H   0  0  0  0  0  0
   19.7359   19.1655   15.3857 H   0  0  0  0  0  0
   19.7167   20.6849   14.4251 H   0  0  0  0  0  0
  1  2  1  0  0  0
  1  5  2  0  0  0
  1  7  1  0  0  0
  2  3  1  0  0  0
  2  6  1  0  0  0
  3  4  2  0  0  0
  3 28  1  0  0  0
  4  5  1  0  0  0
  4 18  1  0  0  0
  6  8  2  0  0  0
  6 12  1  0  0  0
  7 13  2  0  0  0
  7 17  1  0  0  0
  8  9  1  0  0  0
  8 29  1  0  0  0
  9 10  2  0  0  0
  9 30  1  0  0  0
 10 11  1  0  0  0
 10 22  1  0  0  0
 11 12  2  0  0  0
 11 31  1  0  0  0
 12 32  1  0  0  0
 13 14  1  0  0  0
 13 33  1  0  0  0
 14 15  2  0  0  0
 14 27  1  0  0  0
 15 16  1  0  0  0
 15 34  1  0  0  0
 16 17  2  0  0  0
 16 26  1  0  0  0
 17 35  1  0  0  0
 18 19  1  0  0  0
 18 20  1  0  0  0
 18 21  1  0  0  0
 22 23  2  0  0  0
 22 24  2  0  0  0
 22 25  1  0  0  0
 25 36  1  0  0  0
 25 37  1  0  0  0
 25 38  1  0  0  0
M  END
>  <Name>
3-63

>  <Family>
B.1

>  <IC50_uM>
0.170000

>  <set>
0

$$$$
3-64
  Cerius2 12120216093D 1   1.00000                          
 Structure written by MMmdl.
 41 43  0  0  0  0  0  0  0  0999 V2000
   26.4173   22.1307   16.4677 C   0  0  0  0  0  0
   25.4741   21.4683   17.2645 N   0  0  0  0  0  0
   26.2001   20.8865   18.2882 C   0  0  0  0  0  0
   27.5128   21.2872   18.1484 C   0  0  0  0  0  0
   27.6246   22.0680   17.0125 N   0  0  0  0  0  0
   24.0524   21.3843   17.1226 C   0  0  0  0  0  0
   26.1811   22.7330   15.1485 C   0  0  0  0  0  0
   23.3487   22.2646   16.2882 C   0  0  0  0  0  0
   21.9567   22.1735   16.1685 C   0  0  0  0  0  0
   21.2584   21.2099   16.8968 C   0  0  0  0  0  0
   21.9414   20.3297   17.7357 C   0  0  0  0  0  0
   23.3329   20.4233   17.8544 C   0  0  0  0  0  0
   26.4218   24.1051   14.9076 C   0  0  0  0  0  0
   26.2136   24.6252   13.6179 C   0  0  0  0  0  0
   25.7716   23.8022   12.5828 C   0  0  0  0  0  0
   25.5455   22.4559   12.8292 C   0  0  0  0  0  0
   25.7493   21.9143   14.0925 C   0  0  0  0  0  0
   28.6852   20.9741   19.0314 C   0  0  0  0  0  0
   28.3355   20.2671   20.1458 F   0  0  0  0  0  0
   29.3146   22.1009   19.4759 F   0  0  0  0  0  0
   29.6331   20.2313   18.3888 F   0  0  0  0  0  0
   19.4927   21.0841   16.7282 S   0  0  0  0  0  0
   18.9659   22.4259   16.4980 O   0  0  0  0  0  0
   18.9873   20.3264   17.8687 O   0  0  0  0  0  0
   19.2782   20.1216   15.2547 C   0  0  0  0  0  0
   25.1299   21.6638   11.8317 F   0  0  0  0  0  0
   26.9099   25.0262   15.9949 C   0  0  0  0  0  0
   25.7364   20.2940   19.0646 H   0  0  0  0  0  0
   23.8381   23.0683   15.7462 H   0  0  0  0  0  0
   21.4316   22.8695   15.5170 H   0  0  0  0  0  0
   21.4084   19.5683   18.3016 H   0  0  0  0  0  0
   23.8294   19.7051   18.5039 H   0  0  0  0  0  0
   26.3958   25.6795   13.4114 H   0  0  0  0  0  0
   25.6098   24.2065   11.5875 H   0  0  0  0  0  0
   25.5737   20.8521   14.2426 H   0  0  0  0  0  0
   18.2067   20.0011   15.0817 H   0  0  0  0  0  0
   19.7435   19.1445   15.3968 H   0  0  0  0  0  0
   19.7328   20.6504   14.4150 H   0  0  0  0  0  0
   27.9472   24.7913   16.2524 H   0  0  0  0  0  0
   26.2806   24.9386   16.8866 H   0  0  0  0  0  0
   26.8717   26.0739   15.6773 H   0  0  0  0  0  0
  1  2  1  0  0  0
  1  5  2  0  0  0
  1  7  1  0  0  0
  2  3  1  0  0  0
  2  6  1  0  0  0
  3  4  2  0  0  0
  3 28  1  0  0  0
  4  5  1  0  0  0
  4 18  1  0  0  0
  6  8  2  0  0  0
  6 12  1  0  0  0
  7 13  2  0  0  0
  7 17  1  0  0  0
  8  9  1  0  0  0
  8 29  1  0  0  0
  9 10  2  0  0  0
  9 30  1  0  0  0
 10 11  1  0  0  0
 10 22  1  0  0  0
 11 12  2  0  0  0
 11 31  1  0  0  0
 12 32  1  0  0  0
 13 14  1  0  0  0
 13 27  1  0  0  0
 14 15  2  0  0  0
 14 33  1  0  0  0
 15 16  1  0  0  0
 15 34  1  0  0  0
 16 17  2  0  0  0
 16 26  1  0  0  0
 17 35  1  0  0  0
 18 19  1  0  0  0
 18 20  1  0  0  0
 18 21  1  0  0  0
 22 23  2  0  0  0
 22 24  2  0  0  0
 22 25  1  0  0  0
 25 36  1  0  0  0
 25 37  1  0  0  0
 25 38  1  0  0  0
 27 39  1  0  0  0
 27 40  1  0  0  0
 27 41  1  0  0  0
M  END
>  <Name>
3-64

>  <Family>
B.1

>  <IC50_uM>
>100

>  <set>
1

$$$$
3-65
  Cerius2 12120216093D 1   1.00000                          
 Structure written by MMmdl.
 41 43  0  0  0  0  0  0  0  0999 V2000
   26.4194   22.1140   16.4584 C   0  0  0  0  0  0
   25.4703   21.4796   17.2715 N   0  0  0  0  0  0
   26.1931   20.9206   18.3107 C   0  0  0  0  0  0
   27.5101   21.3002   18.1567 C   0  0  0  0  0  0
   27.6276   22.0516   17.0024 N   0  0  0  0  0  0
   24.0478   21.3940   17.1298 C   0  0  0  0  0  0
   26.1856   22.7099   15.1337 C   0  0  0  0  0  0
   23.3395   22.2673   16.2924 C   0  0  0  0  0  0
   21.9477   22.1681   16.1715 C   0  0  0  0  0  0
   21.2537   21.2025   16.9009 C   0  0  0  0  0  0
   21.9407   20.3276   17.7413 C   0  0  0  0  0  0
   23.3316   20.4294   17.8609 C   0  0  0  0  0  0
   26.4437   24.0867   14.9216 C   0  0  0  0  0  0
   26.2376   24.6410   13.6469 C   0  0  0  0  0  0
   25.7830   23.8533   12.5913 C   0  0  0  0  0  0
   25.5391   22.4974   12.7904 C   0  0  0  0  0  0
   25.7447   21.9242   14.0488 C   0  0  0  0  0  0
   28.6812   20.9954   19.0443 C   0  0  0  0  0  0
   28.3320   20.2844   20.1563 F   0  0  0  0  0  0
   29.2992   22.1267   19.4929 F   0  0  0  0  0  0
   29.6378   20.2608   18.4056 F   0  0  0  0  0  0
   19.4888   21.0671   16.7317 S   0  0  0  0  0  0
   18.9530   22.4082   16.5199 O   0  0  0  0  0  0
   18.9892   20.2906   17.8621 O   0  0  0  0  0  0
   19.2800   20.1231   15.2454 C   0  0  0  0  0  0
   26.9431   24.9803   16.0277 C   0  0  0  0  0  0
   25.4560   20.2209   14.1947 Cl  0  0  0  0  0  0
   25.7260   20.3538   19.1040 H   0  0  0  0  0  0
   23.8210   23.0725   15.7476 H   0  0  0  0  0  0
   21.4195   22.8596   15.5177 H   0  0  0  0  0  0
   21.4117   19.5635   18.3074 H   0  0  0  0  0  0
   23.8300   19.7127   18.5105 H   0  0  0  0  0  0
   26.4311   25.6986   13.4672 H   0  0  0  0  0  0
   25.6257   24.2965   11.6094 H   0  0  0  0  0  0
   25.1953   21.8903   11.9555 H   0  0  0  0  0  0
   18.2092   19.9978   15.0711 H   0  0  0  0  0  0
   19.7518   19.1473   15.3740 H   0  0  0  0  0  0
   19.7306   20.6664   14.4127 H   0  0  0  0  0  0
   27.9655   24.7052   16.3051 H   0  0  0  0  0  0
   26.2917   24.9093   16.9048 H   0  0  0  0  0  0
   26.9528   26.0313   15.7193 H   0  0  0  0  0  0
  1  2  1  0  0  0
  1  5  2  0  0  0
  1  7  1  0  0  0
  2  3  1  0  0  0
  2  6  1  0  0  0
  3  4  2  0  0  0
  3 28  1  0  0  0
  4  5  1  0  0  0
  4 18  1  0  0  0
  6  8  2  0  0  0
  6 12  1  0  0  0
  7 13  2  0  0  0
  7 17  1  0  0  0
  8  9  1  0  0  0
  8 29  1  0  0  0
  9 10  2  0  0  0
  9 30  1  0  0  0
 10 11  1  0  0  0
 10 22  1  0  0  0
 11 12  2  0  0  0
 11 31  1  0  0  0
 12 32  1  0  0  0
 13 14  1  0  0  0
 13 26  1  0  0  0
 14 15  2  0  0  0
 14 33  1  0  0  0
 15 16  1  0  0  0
 15 34  1  0  0  0
 16 17  2  0  0  0
 16 35  1  0  0  0
 17 27  1  0  0  0
 18 19  1  0  0  0
 18 20  1  0  0  0
 18 21  1  0  0  0
 22 23  2  0  0  0
 22 24  2  0  0  0
 22 25  1  0  0  0
 25 36  1  0  0  0
 25 37  1  0  0  0
 25 38  1  0  0  0
 26 39  1  0  0  0
 26 40  1  0  0  0
 26 41  1  0  0  0
M  END
>  <Name>
3-65

>  <Family>
B.1

>  <IC50_uM>
>100

>  <set>
0

$$$$
3-66
  Cerius2 12120216093D 1   1.00000                          
 Structure written by MMmdl.
 41 43  0  0  0  0  0  0  0  0999 V2000
   26.4051   22.1307   16.4598 C   0  0  0  0  0  0
   25.4696   21.4585   17.2566 N   0  0  0  0  0  0
   26.2005   20.8822   18.2795 C   0  0  0  0  0  0
   27.5017   21.3254   18.1591 C   0  0  0  0  0  0
   27.6031   22.1184   17.0295 N   0  0  0  0  0  0
   24.0483   21.3735   17.1231 C   0  0  0  0  0  0
   26.1784   22.7081   15.1305 C   0  0  0  0  0  0
   23.3440   22.2589   16.2943 C   0  0  0  0  0  0
   21.9516   22.1711   16.1825 C   0  0  0  0  0  0
   21.2538   21.2070   16.9128 C   0  0  0  0  0  0
   21.9395   20.3261   17.7494 C   0  0  0  0  0  0
   23.3319   20.4154   17.8608 C   0  0  0  0  0  0
   26.4378   24.0650   14.9094 C   0  0  0  0  0  0
   26.2509   24.6232   13.6442 C   0  0  0  0  0  0
   25.8143   23.8449   12.5692 C   0  0  0  0  0  0
   25.5750   22.4848   12.7859 C   0  0  0  0  0  0
   25.7618   21.9175   14.0515 C   0  0  0  0  0  0
   28.6707   21.0455   19.0581 C   0  0  0  0  0  0
   28.3605   20.1980   20.0826 F   0  0  0  0  0  0
   29.1620   22.1804   19.6360 F   0  0  0  0  0  0
   29.7130   20.4712   18.3893 F   0  0  0  0  0  0
   19.4946   21.0883   16.7402 S   0  0  0  0  0  0
   18.9471   22.4012   16.4471 O   0  0  0  0  0  0
   18.9648   20.2966   17.8361 O   0  0  0  0  0  0
   19.3392   20.1751   15.3445 N   0  0  0  0  0  0
   26.5090   25.9315   13.5020 F   0  0  0  0  0  0
   25.5880   24.2561   11.2836 O   0  0  0  0  0  0
   25.8033   25.6350   10.9932 C   0  0  0  0  0  0
   25.7440   20.2724   19.0469 H   0  0  0  0  0  0
   23.8370   23.0612   15.7521 H   0  0  0  0  0  0
   21.4204   22.8687   15.5375 H   0  0  0  0  0  0
   21.4064   19.5677   18.3190 H   0  0  0  0  0  0
   23.8321   19.6977   18.5083 H   0  0  0  0  0  0
   26.7851   24.7014   15.7199 H   0  0  0  0  0  0
   25.2430   21.8521   11.9641 H   0  0  0  0  0  0
   25.5804   20.8513   14.1811 H   0  0  0  0  0  0
   18.8621   20.7034   14.6094 H   0  0  0  0  0  0
   18.8651   19.2883   15.5344 H   0  0  0  0  0  0
   25.5681   25.7913    9.9360 H   0  0  0  0  0  0
   26.8525   25.9091   11.1430 H   0  0  0  0  0  0
   25.1321   26.2707   11.5794 H   0  0  0  0  0  0
  1  2  1  0  0  0
  1  5  2  0  0  0
  1  7  1  0  0  0
  2  3  1  0  0  0
  2  6  1  0  0  0
  3  4  2  0  0  0
  3 29  1  0  0  0
  4  5  1  0  0  0
  4 18  1  0  0  0
  6  8  2  0  0  0
  6 12  1  0  0  0
  7 13  2  0  0  0
  7 17  1  0  0  0
  8  9  1  0  0  0
  8 30  1  0  0  0
  9 10  2  0  0  0
  9 31  1  0  0  0
 10 11  1  0  0  0
 10 22  1  0  0  0
 11 12  2  0  0  0
 11 32  1  0  0  0
 12 33  1  0  0  0
 13 14  1  0  0  0
 13 34  1  0  0  0
 14 15  2  0  0  0
 14 26  1  0  0  0
 15 16  1  0  0  0
 15 27  1  0  0  0
 16 17  2  0  0  0
 16 35  1  0  0  0
 17 36  1  0  0  0
 18 19  1  0  0  0
 18 20  1  0  0  0
 18 21  1  0  0  0
 22 23  2  0  0  0
 22 24  2  0  0  0
 22 25  1  0  0  0
 25 37  1  0  0  0
 25 38  1  0  0  0
 27 28  1  0  0  0
 28 39  1  0  0  0
 28 40  1  0  0  0
 28 41  1  0  0  0
M  END
>  <Name>
3-66

>  <Family>
B.1

>  <IC50_uM>
0.030000

>  <set>
1

$$$$
3-67
  Cerius2 12120216093D 1   1.00000                          
 Structure written by MMmdl.
 41 43  0  0  0  0  0  0  0  0999 V2000
   26.4016   22.1341   16.4592 C   0  0  0  0  0  0
   25.4645   21.4575   17.2504 N   0  0  0  0  0  0
   26.1930   20.8842   18.2771 C   0  0  0  0  0  0
   27.4932   21.3306   18.1630 C   0  0  0  0  0  0
   27.5971   22.1247   17.0348 N   0  0  0  0  0  0
   24.0437   21.3671   17.1131 C   0  0  0  0  0  0
   26.1827   22.7118   15.1287 C   0  0  0  0  0  0
   23.3362   22.2519   16.2861 C   0  0  0  0  0  0
   21.9424   22.1659   16.1827 C   0  0  0  0  0  0
   21.2474   21.2041   16.9185 C   0  0  0  0  0  0
   21.9372   20.3191   17.7475 C   0  0  0  0  0  0
   23.3301   20.4064   17.8505 C   0  0  0  0  0  0
   26.4415   24.0695   14.9111 C   0  0  0  0  0  0
   26.2723   24.6265   13.6396 C   0  0  0  0  0  0
   25.8534   23.8378   12.5554 C   0  0  0  0  0  0
   25.6126   22.4783   12.7718 C   0  0  0  0  0  0
   25.7829   21.9195   14.0453 C   0  0  0  0  0  0
   28.6590   21.0515   19.0664 C   0  0  0  0  0  0
   28.3310   20.2507   20.1224 F   0  0  0  0  0  0
   29.1849   22.1922   19.6007 F   0  0  0  0  0  0
   29.6811   20.4244   18.4144 F   0  0  0  0  0  0
   19.4858   21.0872   16.7684 S   0  0  0  0  0  0
   18.9386   22.4019   16.4836 O   0  0  0  0  0  0
   18.9650   20.2956   17.8690 O   0  0  0  0  0  0
   19.3139   20.1732   15.3755 N   0  0  0  0  0  0
   26.5999   26.3158   13.4454 Cl  0  0  0  0  0  0
   25.7166   24.4696   11.3456 O   0  0  0  0  0  0
   25.2971   23.6769   10.2373 C   0  0  0  0  0  0
   25.7354   20.2730   19.0426 H   0  0  0  0  0  0
   23.8267   23.0536   15.7411 H   0  0  0  0  0  0
   21.4092   22.8652   15.5415 H   0  0  0  0  0  0
   21.4053   19.5615   18.3192 H   0  0  0  0  0  0
   23.8323   19.6866   18.4943 H   0  0  0  0  0  0
   26.7762   24.6944   15.7368 H   0  0  0  0  0  0
   25.2951   21.8145   11.9720 H   0  0  0  0  0  0
   25.6041   20.8528   14.1765 H   0  0  0  0  0  0
   18.8307   20.7016   14.6445 H   0  0  0  0  0  0
   18.8411   19.2869   15.5706 H   0  0  0  0  0  0
   25.2421   24.3321    9.3626 H   0  0  0  0  0  0
   24.2982   23.2618   10.4062 H   0  0  0  0  0  0
   26.0252   22.8892   10.0180 H   0  0  0  0  0  0
  1  2  1  0  0  0
  1  5  2  0  0  0
  1  7  1  0  0  0
  2  3  1  0  0  0
  2  6  1  0  0  0
  3  4  2  0  0  0
  3 29  1  0  0  0
  4  5  1  0  0  0
  4 18  1  0  0  0
  6  8  2  0  0  0
  6 12  1  0  0  0
  7 13  2  0  0  0
  7 17  1  0  0  0
  8  9  1  0  0  0
  8 30  1  0  0  0
  9 10  2  0  0  0
  9 31  1  0  0  0
 10 11  1  0  0  0
 10 22  1  0  0  0
 11 12  2  0  0  0
 11 32  1  0  0  0
 12 33  1  0  0  0
 13 14  1  0  0  0
 13 34  1  0  0  0
 14 15  2  0  0  0
 14 26  1  0  0  0
 15 16  1  0  0  0
 15 27  1  0  0  0
 16 17  2  0  0  0
 16 35  1  0  0  0
 17 36  1  0  0  0
 18 19  1  0  0  0
 18 20  1  0  0  0
 18 21  1  0  0  0
 22 23  2  0  0  0
 22 24  2  0  0  0
 22 25  1  0  0  0
 25 37  1  0  0  0
 25 38  1  0  0  0
 27 28  1  0  0  0
 28 39  1  0  0  0
 28 40  1  0  0  0
 28 41  1  0  0  0
M  END
>  <Name>
3-67

>  <Family>
B.1

>  <IC50_uM>
0.020000

>  <set>
0

$$$$
3-68
  Cerius2 12120216093D 1   1.00000                          
 Structure written by MMmdl.
 41 43  0  0  0  0  0  0  0  0999 V2000
   26.4062   22.1303   16.4604 C   0  0  0  0  0  0
   25.4699   21.4590   17.2572 N   0  0  0  0  0  0
   26.2003   20.8822   18.2801 C   0  0  0  0  0  0
   27.5023   21.3225   18.1587 C   0  0  0  0  0  0
   27.6045   22.1153   17.0291 N   0  0  0  0  0  0
   24.0485   21.3744   17.1233 C   0  0  0  0  0  0
   26.1788   22.7086   15.1314 C   0  0  0  0  0  0
   23.3444   22.2595   16.2941 C   0  0  0  0  0  0
   21.9520   22.1715   16.1819 C   0  0  0  0  0  0
   21.2541   21.2074   16.9120 C   0  0  0  0  0  0
   21.9396   20.3265   17.7490 C   0  0  0  0  0  0
   23.3320   20.4162   17.8607 C   0  0  0  0  0  0
   26.4383   24.0655   14.9106 C   0  0  0  0  0  0
   26.2481   24.6240   13.6417 C   0  0  0  0  0  0
   25.8083   23.8379   12.5645 C   0  0  0  0  0  0
   25.5696   22.4784   12.7843 C   0  0  0  0  0  0
   25.7603   21.9181   14.0540 C   0  0  0  0  0  0
   28.6718   21.0393   19.0559 C   0  0  0  0  0  0
   28.3529   20.2181   20.0990 F   0  0  0  0  0  0
   29.1875   22.1761   19.6082 F   0  0  0  0  0  0
   29.6992   20.4330   18.3925 F   0  0  0  0  0  0
   19.4950   21.0879   16.7387 S   0  0  0  0  0  0
   18.9469   22.4004   16.4450 O   0  0  0  0  0  0
   18.9651   20.2962   17.8346 O   0  0  0  0  0  0
   19.3405   20.1743   15.3431 N   0  0  0  0  0  0
   26.6086   26.4802   13.4311 Br  0  0  0  0  0  0
   25.6483   24.4687   11.3581 O   0  0  0  0  0  0
   25.2079   23.6769   10.2570 C   0  0  0  0  0  0
   25.7431   20.2734   19.0479 H   0  0  0  0  0  0
   23.8375   23.0616   15.7517 H   0  0  0  0  0  0
   21.4211   22.8688   15.5366 H   0  0  0  0  0  0
   21.4066   19.5680   18.3182 H   0  0  0  0  0  0
   23.8317   19.6984   18.5083 H   0  0  0  0  0  0
   26.7864   24.6862   15.7344 H   0  0  0  0  0  0
   25.2370   21.8154   11.9899 H   0  0  0  0  0  0
   25.5795   20.8520   14.1878 H   0  0  0  0  0  0
   18.8645   20.7029   14.6075 H   0  0  0  0  0  0
   18.8656   19.2880   15.5327 H   0  0  0  0  0  0
   24.2140   23.2583   10.4457 H   0  0  0  0  0  0
   25.9338   22.8919   10.0215 H   0  0  0  0  0  0
   25.1329   24.3336    9.3849 H   0  0  0  0  0  0
  1  2  1  0  0  0
  1  5  2  0  0  0
  1  7  1  0  0  0
  2  3  1  0  0  0
  2  6  1  0  0  0
  3  4  2  0  0  0
  3 29  1  0  0  0
  4  5  1  0  0  0
  4 18  1  0  0  0
  6  8  2  0  0  0
  6 12  1  0  0  0
  7 13  2  0  0  0
  7 17  1  0  0  0
  8  9  1  0  0  0
  8 30  1  0  0  0
  9 10  2  0  0  0
  9 31  1  0  0  0
 10 11  1  0  0  0
 10 22  1  0  0  0
 11 12  2  0  0  0
 11 32  1  0  0  0
 12 33  1  0  0  0
 13 14  1  0  0  0
 13 34  1  0  0  0
 14 15  2  0  0  0
 14 26  1  0  0  0
 15 16  1  0  0  0
 15 27  1  0  0  0
 16 17  2  0  0  0
 16 35  1  0  0  0
 17 36  1  0  0  0
 18 19  1  0  0  0
 18 20  1  0  0  0
 18 21  1  0  0  0
 22 23  2  0  0  0
 22 24  2  0  0  0
 22 25  1  0  0  0
 25 37  1  0  0  0
 25 38  1  0  0  0
 27 28  1  0  0  0
 28 39  1  0  0  0
 28 40  1  0  0  0
 28 41  1  0  0  0
M  END
>  <Name>
3-68

>  <Family>
B.1

>  <IC50_uM>
0.030000

>  <set>
0

$$$$
3-69
  Cerius2 12120216093D 1   1.00000                          
 Structure written by MMmdl.
 41 43  0  0  0  0  0  0  0  0999 V2000
   26.4043   22.1307   16.4595 C   0  0  0  0  0  0
   25.4682   21.4593   17.2563 N   0  0  0  0  0  0
   26.1988   20.8835   18.2798 C   0  0  0  0  0  0
   27.5006   21.3240   18.1583 C   0  0  0  0  0  0
   27.6025   22.1167   17.0286 N   0  0  0  0  0  0
   24.0470   21.3736   17.1223 C   0  0  0  0  0  0
   26.1787   22.7073   15.1294 C   0  0  0  0  0  0
   23.3419   22.2584   16.2935 C   0  0  0  0  0  0
   21.9493   22.1700   16.1829 C   0  0  0  0  0  0
   21.2524   21.2060   16.9142 C   0  0  0  0  0  0
   21.9391   20.3250   17.7499 C   0  0  0  0  0  0
   23.3315   20.4149   17.8600 C   0  0  0  0  0  0
   26.4372   24.0662   14.9096 C   0  0  0  0  0  0
   26.2568   24.6311   13.6413 C   0  0  0  0  0  0
   25.8292   23.8379   12.5641 C   0  0  0  0  0  0
   25.5834   22.4762   12.7845 C   0  0  0  0  0  0
   25.7656   21.9140   14.0522 C   0  0  0  0  0  0
   28.6705   21.0405   19.0550 C   0  0  0  0  0  0
   28.3490   20.2298   20.1054 F   0  0  0  0  0  0
   29.1951   22.1783   19.5968 F   0  0  0  0  0  0
   29.6920   20.4221   18.3936 F   0  0  0  0  0  0
   19.4930   21.0864   16.7445 S   0  0  0  0  0  0
   18.9444   22.3990   16.4520 O   0  0  0  0  0  0
   18.9651   20.2947   17.8414 O   0  0  0  0  0  0
   19.3357   20.1728   15.3493 N   0  0  0  0  0  0
   26.5811   26.3240   13.4729 Cl  0  0  0  0  0  0
   25.5648   24.4682   10.9076 S   0  0  0  0  0  0
   25.0325   22.9244   10.1149 C   0  0  0  0  0  0
   25.7418   20.2748   19.0478 H   0  0  0  0  0  0
   23.8341   23.0607   15.7508 H   0  0  0  0  0  0
   21.4172   22.8672   15.5384 H   0  0  0  0  0  0
   21.4067   19.5662   18.3196 H   0  0  0  0  0  0
   23.8321   19.6973   18.5072 H   0  0  0  0  0  0
   26.7785   24.6880   15.7355 H   0  0  0  0  0  0
   25.2531   21.8323   11.9706 H   0  0  0  0  0  0
   25.5837   20.8483   14.1847 H   0  0  0  0  0  0
   18.8581   20.7012   14.6146 H   0  0  0  0  0  0
   18.8613   19.2864   15.5400 H   0  0  0  0  0  0
   24.8090   23.1207    9.0630 H   0  0  0  0  0  0
   24.1300   22.5383   10.5966 H   0  0  0  0  0  0
   25.8223   22.1705   10.1680 H   0  0  0  0  0  0
  1  2  1  0  0  0
  1  5  2  0  0  0
  1  7  1  0  0  0
  2  3  1  0  0  0
  2  6  1  0  0  0
  3  4  2  0  0  0
  3 29  1  0  0  0
  4  5  1  0  0  0
  4 18  1  0  0  0
  6  8  2  0  0  0
  6 12  1  0  0  0
  7 13  2  0  0  0
  7 17  1  0  0  0
  8  9  1  0  0  0
  8 30  1  0  0  0
  9 10  2  0  0  0
  9 31  1  0  0  0
 10 11  1  0  0  0
 10 22  1  0  0  0
 11 12  2  0  0  0
 11 32  1  0  0  0
 12 33  1  0  0  0
 13 14  1  0  0  0
 13 34  1  0  0  0
 14 15  2  0  0  0
 14 26  1  0  0  0
 15 16  1  0  0  0
 15 27  1  0  0  0
 16 17  2  0  0  0
 16 35  1  0  0  0
 17 36  1  0  0  0
 18 19  1  0  0  0
 18 20  1  0  0  0
 18 21  1  0  0  0
 22 23  2  0  0  0
 22 24  2  0  0  0
 22 25  1  0  0  0
 25 37  1  0  0  0
 25 38  1  0  0  0
 27 28  1  0  0  0
 28 39  1  0  0  0
 28 40  1  0  0  0
 28 41  1  0  0  0
M  END
>  <Name>
3-69

>  <Family>
B.1

>  <IC50_uM>
0.010000

>  <set>
1

$$$$
3-70
  Cerius2 12120216093D 1   1.00000                          
 Structure written by MMmdl.
 40 42  0  0  0  0  0  0  0  0999 V2000
   26.4057   22.1302   16.4591 C   0  0  0  0  0  0
   25.4688   21.4588   17.2551 N   0  0  0  0  0  0
   26.1984   20.8847   18.2804 C   0  0  0  0  0  0
   27.4999   21.3271   18.1610 C   0  0  0  0  0  0
   27.6029   22.1181   17.0304 N   0  0  0  0  0  0
   24.0475   21.3728   17.1202 C   0  0  0  0  0  0
   26.1804   22.7074   15.1294 C   0  0  0  0  0  0
   23.3419   22.2576   16.2919 C   0  0  0  0  0  0
   21.9492   22.1697   16.1822 C   0  0  0  0  0  0
   21.2524   21.2058   16.9134 C   0  0  0  0  0  0
   21.9392   20.3243   17.7486 C   0  0  0  0  0  0
   23.3317   20.4139   17.8577 C   0  0  0  0  0  0
   26.4411   24.0654   14.9094 C   0  0  0  0  0  0
   26.2546   24.6285   13.6431 C   0  0  0  0  0  0
   25.8159   23.8425   12.5668 C   0  0  0  0  0  0
   25.5773   22.4781   12.7867 C   0  0  0  0  0  0
   25.7640   21.9151   14.0525 C   0  0  0  0  0  0
   28.6676   21.0492   19.0623 C   0  0  0  0  0  0
   28.3532   20.2131   20.0948 F   0  0  0  0  0  0
   29.1655   22.1867   19.6293 F   0  0  0  0  0  0
   29.7066   20.4630   18.3986 F   0  0  0  0  0  0
   19.4925   21.0881   16.7458 S   0  0  0  0  0  0
   18.9450   22.4015   16.4551 O   0  0  0  0  0  0
   18.9647   20.2959   17.8425 O   0  0  0  0  0  0
   19.3330   20.1759   15.3499 N   0  0  0  0  0  0
   26.5836   26.3150   13.4522 Cl  0  0  0  0  0  0
   25.6062   24.4166   11.1935 C   0  0  0  0  0  0
   25.7409   20.2770   19.0488 H   0  0  0  0  0  0
   23.8340   23.0595   15.7484 H   0  0  0  0  0  0
   21.4171   22.8672   15.5379 H   0  0  0  0  0  0
   21.4068   19.5656   18.3184 H   0  0  0  0  0  0
   23.8323   19.6957   18.5044 H   0  0  0  0  0  0
   26.7884   24.6867   15.7329 H   0  0  0  0  0  0
   25.2463   21.8364   11.9706 H   0  0  0  0  0  0
   25.5830   20.8492   14.1854 H   0  0  0  0  0  0
   18.8531   20.7043   14.6169 H   0  0  0  0  0  0
   18.8602   19.2885   15.5406 H   0  0  0  0  0  0
   25.2509   23.6555   10.4907 H   0  0  0  0  0  0
   26.5465   24.8146   10.7991 H   0  0  0  0  0  0
   24.8537   25.2111   11.2227 H   0  0  0  0  0  0
  1  2  1  0  0  0
  1  5  2  0  0  0
  1  7  1  0  0  0
  2  3  1  0  0  0
  2  6  1  0  0  0
  3  4  2  0  0  0
  3 28  1  0  0  0
  4  5  1  0  0  0
  4 18  1  0  0  0
  6  8  2  0  0  0
  6 12  1  0  0  0
  7 13  2  0  0  0
  7 17  1  0  0  0
  8  9  1  0  0  0
  8 29  1  0  0  0
  9 10  2  0  0  0
  9 30  1  0  0  0
 10 11  1  0  0  0
 10 22  1  0  0  0
 11 12  2  0  0  0
 11 31  1  0  0  0
 12 32  1  0  0  0
 13 14  1  0  0  0
 13 33  1  0  0  0
 14 15  2  0  0  0
 14 26  1  0  0  0
 15 16  1  0  0  0
 15 27  1  0  0  0
 16 17  2  0  0  0
 16 34  1  0  0  0
 17 35  1  0  0  0
 18 19  1  0  0  0
 18 20  1  0  0  0
 18 21  1  0  0  0
 22 23  2  0  0  0
 22 24  2  0  0  0
 22 25  1  0  0  0
 25 36  1  0  0  0
 25 37  1  0  0  0
 27 38  1  0  0  0
 27 39  1  0  0  0
 27 40  1  0  0  0
M  END
>  <Name>
3-70

>  <Family>
B.1

>  <IC50_uM>
0.003000

>  <set>
0

$$$$
3-71
  Cerius2 12120216093D 1   1.00000                          
 Structure written by MMmdl.
 41 43  0  0  0  0  0  0  0  0999 V2000
   26.4057   22.1281   16.4584 C   0  0  0  0  0  0
   25.4695   21.4592   17.2572 N   0  0  0  0  0  0
   26.1998   20.8868   18.2826 C   0  0  0  0  0  0
   27.5015   21.3279   18.1605 C   0  0  0  0  0  0
   27.6037   22.1165   17.0279 N   0  0  0  0  0  0
   24.0482   21.3737   17.1230 C   0  0  0  0  0  0
   26.1781   22.7032   15.1271 C   0  0  0  0  0  0
   23.3436   22.2587   16.2942 C   0  0  0  0  0  0
   21.9512   22.1701   16.1823 C   0  0  0  0  0  0
   21.2539   21.2054   16.9122 C   0  0  0  0  0  0
   21.9398   20.3249   17.7491 C   0  0  0  0  0  0
   23.3322   20.4150   17.8605 C   0  0  0  0  0  0
   26.4404   24.0671   14.9070 C   0  0  0  0  0  0
   26.2544   24.6418   13.6433 C   0  0  0  0  0  0
   25.8125   23.8255   12.5888 C   0  0  0  0  0  0
   25.5690   22.4656   12.7924 C   0  0  0  0  0  0
   25.7582   21.9047   14.0557 C   0  0  0  0  0  0
   28.6704   21.0500   19.0601 C   0  0  0  0  0  0
   28.3568   20.2158   20.0944 F   0  0  0  0  0  0
   29.1707   22.1877   19.6248 F   0  0  0  0  0  0
   29.7075   20.4614   18.3956 F   0  0  0  0  0  0
   19.4947   21.0886   16.7400 S   0  0  0  0  0  0
   18.9477   22.4019   16.4483 O   0  0  0  0  0  0
   18.9656   20.2960   17.8357 O   0  0  0  0  0  0
   19.3373   20.1779   15.3430 N   0  0  0  0  0  0
   25.5602   24.4662   11.0010 Cl  0  0  0  0  0  0
   26.4767   25.9638   13.3497 O   0  0  0  0  0  0
   26.9148   26.8073   14.4125 C   0  0  0  0  0  0
   25.7427   20.2807   19.0525 H   0  0  0  0  0  0
   23.8358   23.0615   15.7522 H   0  0  0  0  0  0
   21.4194   22.8672   15.5374 H   0  0  0  0  0  0
   21.4072   19.5659   18.3185 H   0  0  0  0  0  0
   23.8323   19.6974   18.5080 H   0  0  0  0  0  0
   26.7888   24.6587   15.7501 H   0  0  0  0  0  0
   25.2358   21.8337   11.9721 H   0  0  0  0  0  0
   25.5773   20.8396   14.1926 H   0  0  0  0  0  0
   18.8611   20.7083   14.6089 H   0  0  0  0  0  0
   18.8614   19.2918   15.5315 H   0  0  0  0  0  0
   27.0316   27.8175   14.0083 H   0  0  0  0  0  0
   27.8898   26.4857   14.7930 H   0  0  0  0  0  0
   26.1688   26.8527   15.2125 H   0  0  0  0  0  0
  1  2  1  0  0  0
  1  5  2  0  0  0
  1  7  1  0  0  0
  2  3  1  0  0  0
  2  6  1  0  0  0
  3  4  2  0  0  0
  3 29  1  0  0  0
  4  5  1  0  0  0
  4 18  1  0  0  0
  6  8  2  0  0  0
  6 12  1  0  0  0
  7 13  2  0  0  0
  7 17  1  0  0  0
  8  9  1  0  0  0
  8 30  1  0  0  0
  9 10  2  0  0  0
  9 31  1  0  0  0
 10 11  1  0  0  0
 10 22  1  0  0  0
 11 12  2  0  0  0
 11 32  1  0  0  0
 12 33  1  0  0  0
 13 14  1  0  0  0
 13 34  1  0  0  0
 14 15  2  0  0  0
 14 27  1  0  0  0
 15 16  1  0  0  0
 15 26  1  0  0  0
 16 17  2  0  0  0
 16 35  1  0  0  0
 17 36  1  0  0  0
 18 19  1  0  0  0
 18 20  1  0  0  0
 18 21  1  0  0  0
 22 23  2  0  0  0
 22 24  2  0  0  0
 22 25  1  0  0  0
 25 37  1  0  0  0
 25 38  1  0  0  0
 27 28  1  0  0  0
 28 39  1  0  0  0
 28 40  1  0  0  0
 28 41  1  0  0  0
M  END
>  <Name>
3-71

>  <Family>
B.1

>  <IC50_uM>
0.020000

>  <set>
2

$$$$
3-72
  Cerius2 12120216093D 1   1.00000                          
 Structure written by MMmdl.
 37 39  0  0  0  0  0  0  0  0999 V2000
   26.4045   22.1333   16.4602 C   0  0  0  0  0  0
   25.4690   21.4597   17.2557 N   0  0  0  0  0  0
   26.2003   20.8810   18.2769 C   0  0  0  0  0  0
   27.5017   21.3238   18.1568 C   0  0  0  0  0  0
   27.6028   22.1192   17.0288 N   0  0  0  0  0  0
   24.0479   21.3746   17.1218 C   0  0  0  0  0  0
   26.1780   22.7115   15.1308 C   0  0  0  0  0  0
   23.3432   22.2596   16.2930 C   0  0  0  0  0  0
   21.9505   22.1718   16.1821 C   0  0  0  0  0  0
   21.2531   21.2082   16.9133 C   0  0  0  0  0  0
   21.9396   20.3268   17.7491 C   0  0  0  0  0  0
   23.3321   20.4161   17.8597 C   0  0  0  0  0  0
   26.4379   24.0723   14.9143 C   0  0  0  0  0  0
   26.2535   24.6200   13.6485 C   0  0  0  0  0  0
   25.8244   23.8277   12.5907 C   0  0  0  0  0  0
   25.5795   22.4735   12.7817 C   0  0  0  0  0  0
   25.7634   21.9136   14.0497 C   0  0  0  0  0  0
   28.6714   21.0403   19.0539 C   0  0  0  0  0  0
   28.3544   20.2127   20.0925 F   0  0  0  0  0  0
   29.1823   22.1763   19.6126 F   0  0  0  0  0  0
   29.7016   20.4413   18.3884 F   0  0  0  0  0  0
   19.4938   21.0863   16.7430 S   0  0  0  0  0  0
   18.9444   22.3982   16.4497 O   0  0  0  0  0  0
   18.9654   20.2950   17.8402 O   0  0  0  0  0  0
   19.3386   20.1707   15.3491 N   0  0  0  0  0  0
   25.6516   24.3668   11.3753 F   0  0  0  0  0  0
   26.4964   25.9242   13.4523 F   0  0  0  0  0  0
   25.7441   20.2692   19.0429 H   0  0  0  0  0  0
   23.8356   23.0620   15.7506 H   0  0  0  0  0  0
   21.4191   22.8692   15.5372 H   0  0  0  0  0  0
   21.4067   19.5684   18.3188 H   0  0  0  0  0  0
   23.8324   19.6981   18.5065 H   0  0  0  0  0  0
   26.7815   24.7095   15.7250 H   0  0  0  0  0  0
   25.2537   21.8573   11.9488 H   0  0  0  0  0  0
   25.5847   20.8475   14.1843 H   0  0  0  0  0  0
   18.8603   20.6974   14.6136 H   0  0  0  0  0  0
   18.8656   19.2838   15.5408 H   0  0  0  0  0  0
  1  2  1  0  0  0
  1  5  2  0  0  0
  1  7  1  0  0  0
  2  3  1  0  0  0
  2  6  1  0  0  0
  3  4  2  0  0  0
  3 28  1  0  0  0
  4  5  1  0  0  0
  4 18  1  0  0  0
  6  8  2  0  0  0
  6 12  1  0  0  0
  7 13  2  0  0  0
  7 17  1  0  0  0
  8  9  1  0  0  0
  8 29  1  0  0  0
  9 10  2  0  0  0
  9 30  1  0  0  0
 10 11  1  0  0  0
 10 22  1  0  0  0
 11 12  2  0  0  0
 11 31  1  0  0  0
 12 32  1  0  0  0
 13 14  1  0  0  0
 13 33  1  0  0  0
 14 15  2  0  0  0
 14 27  1  0  0  0
 15 16  1  0  0  0
 15 26  1  0  0  0
 16 17  2  0  0  0
 16 34  1  0  0  0
 17 35  1  0  0  0
 18 19  1  0  0  0
 18 20  1  0  0  0
 18 21  1  0  0  0
 22 23  2  0  0  0
 22 24  2  0  0  0
 22 25  1  0  0  0
 25 36  1  0  0  0
 25 37  1  0  0  0
M  END
>  <Name>
3-72

>  <Family>
B.1

>  <IC50_uM>
0.030000

>  <set>
0

$$$$
3-73
  Cerius2 12120216093D 1   1.00000                          
 Structure written by MMmdl.
 40 42  0  0  0  0  0  0  0  0999 V2000
   26.4087   22.1276   16.4598 C   0  0  0  0  0  0
   25.4713   21.4609   17.2592 N   0  0  0  0  0  0
   26.2009   20.8875   18.2848 C   0  0  0  0  0  0
   27.5041   21.3233   18.1601 C   0  0  0  0  0  0
   27.6079   22.1101   17.0265 N   0  0  0  0  0  0
   24.0501   21.3758   17.1234 C   0  0  0  0  0  0
   26.1784   22.7030   15.1300 C   0  0  0  0  0  0
   23.3463   22.2606   16.2933 C   0  0  0  0  0  0
   21.9539   22.1722   16.1795 C   0  0  0  0  0  0
   21.2556   21.2081   16.9091 C   0  0  0  0  0  0
   21.9406   20.3273   17.7464 C   0  0  0  0  0  0
   23.3329   20.4170   17.8595 C   0  0  0  0  0  0
   26.4354   24.0651   14.9081 C   0  0  0  0  0  0
   26.2445   24.6390   13.6428 C   0  0  0  0  0  0
   25.7804   23.8357   12.5947 C   0  0  0  0  0  0
   25.5455   22.4772   12.8052 C   0  0  0  0  0  0
   25.7504   21.9062   14.0600 C   0  0  0  0  0  0
   28.6730   21.0420   19.0587 C   0  0  0  0  0  0
   28.3625   20.1929   20.0818 F   0  0  0  0  0  0
   29.1647   22.1757   19.6385 F   0  0  0  0  0  0
   29.7153   20.4683   18.3894 F   0  0  0  0  0  0
   19.4967   21.0880   16.7344 S   0  0  0  0  0  0
   18.9486   22.4004   16.4405 O   0  0  0  0  0  0
   18.9660   20.2963   17.8299 O   0  0  0  0  0  0
   19.3434   20.1743   15.3390 N   0  0  0  0  0  0
   26.4769   26.1065   13.4313 C   0  0  0  0  0  0
   24.9938   21.4955   11.5020 Cl  0  0  0  0  0  0
   25.7426   20.2840   19.0559 H   0  0  0  0  0  0
   23.8391   23.0636   15.7521 H   0  0  0  0  0  0
   21.4236   22.8697   15.5340 H   0  0  0  0  0  0
   21.4071   19.5685   18.3151 H   0  0  0  0  0  0
   23.8322   19.6992   18.5074 H   0  0  0  0  0  0
   26.7837   24.6855   15.7343 H   0  0  0  0  0  0
   25.6082   24.2695   11.6114 H   0  0  0  0  0  0
   25.5731   20.8427   14.2036 H   0  0  0  0  0  0
   18.8672   20.7023   14.6030 H   0  0  0  0  0  0
   18.8693   19.2876   15.5285 H   0  0  0  0  0  0
   26.7832   26.3088   12.3996 H   0  0  0  0  0  0
   27.2753   26.4735   14.0847 H   0  0  0  0  0  0
   25.5600   26.6645   13.6441 H   0  0  0  0  0  0
  1  2  1  0  0  0
  1  5  2  0  0  0
  1  7  1  0  0  0
  2  3  1  0  0  0
  2  6  1  0  0  0
  3  4  2  0  0  0
  3 28  1  0  0  0
  4  5  1  0  0  0
  4 18  1  0  0  0
  6  8  2  0  0  0
  6 12  1  0  0  0
  7 13  2  0  0  0
  7 17  1  0  0  0
  8  9  1  0  0  0
  8 29  1  0  0  0
  9 10  2  0  0  0
  9 30  1  0  0  0
 10 11  1  0  0  0
 10 22  1  0  0  0
 11 12  2  0  0  0
 11 31  1  0  0  0
 12 32  1  0  0  0
 13 14  1  0  0  0
 13 33  1  0  0  0
 14 15  2  0  0  0
 14 26  1  0  0  0
 15 16  1  0  0  0
 15 34  1  0  0  0
 16 17  2  0  0  0
 16 27  1  0  0  0
 17 35  1  0  0  0
 18 19  1  0  0  0
 18 20  1  0  0  0
 18 21  1  0  0  0
 22 23  2  0  0  0
 22 24  2  0  0  0
 22 25  1  0  0  0
 25 36  1  0  0  0
 25 37  1  0  0  0
 26 38  1  0  0  0
 26 39  1  0  0  0
 26 40  1  0  0  0
M  END
>  <Name>
3-73

>  <Family>
B.1

>  <IC50_uM>
0.040000

>  <set>
0

$$$$
3-74
  Cerius2 12120216093D 1   1.00000                          
 Structure written by MMmdl.
 40 42  0  0  0  0  0  0  0  0999 V2000
   26.4076   22.1281   16.4600 C   0  0  0  0  0  0
   25.4710   21.4601   17.2592 N   0  0  0  0  0  0
   26.2008   20.8863   18.2841 C   0  0  0  0  0  0
   27.5038   21.3234   18.1598 C   0  0  0  0  0  0
   27.6069   22.1112   17.0268 N   0  0  0  0  0  0
   24.0498   21.3749   17.1235 C   0  0  0  0  0  0
   26.1774   22.7031   15.1303 C   0  0  0  0  0  0
   23.3461   22.2597   16.2936 C   0  0  0  0  0  0
   21.9538   22.1718   16.1802 C   0  0  0  0  0  0
   21.2554   21.2078   16.9097 C   0  0  0  0  0  0
   21.9403   20.3266   17.7469 C   0  0  0  0  0  0
   23.3327   20.4163   17.8600 C   0  0  0  0  0  0
   26.4334   24.0664   14.9072 C   0  0  0  0  0  0
   26.2464   24.6403   13.6400 C   0  0  0  0  0  0
   25.7881   23.8353   12.5924 C   0  0  0  0  0  0
   25.5560   22.4812   12.8096 C   0  0  0  0  0  0
   25.7530   21.9068   14.0602 C   0  0  0  0  0  0
   28.6731   21.0423   19.0581 C   0  0  0  0  0  0
   28.3629   20.1942   20.0821 F   0  0  0  0  0  0
   29.1649   22.1765   19.6368 F   0  0  0  0  0  0
   29.7149   20.4681   18.3888 F   0  0  0  0  0  0
   19.4964   21.0885   16.7354 S   0  0  0  0  0  0
   18.9487   22.4011   16.4418 O   0  0  0  0  0  0
   18.9658   20.2967   17.8310 O   0  0  0  0  0  0
   19.3424   20.1750   15.3397 N   0  0  0  0  0  0
   26.4787   26.1075   13.4285 C   0  0  0  0  0  0
   25.1348   21.7156   11.7937 F   0  0  0  0  0  0
   25.7430   20.2815   19.0546 H   0  0  0  0  0  0
   23.8390   23.0626   15.7523 H   0  0  0  0  0  0
   21.4234   22.8695   15.5349 H   0  0  0  0  0  0
   21.4068   19.5680   18.3156 H   0  0  0  0  0  0
   23.8321   19.6987   18.5081 H   0  0  0  0  0  0
   26.7787   24.6879   15.7341 H   0  0  0  0  0  0
   25.6156   24.2505   11.6024 H   0  0  0  0  0  0
   25.5712   20.8430   14.1861 H   0  0  0  0  0  0
   18.8664   20.7035   14.6041 H   0  0  0  0  0  0
   18.8675   19.2886   15.5295 H   0  0  0  0  0  0
   26.7734   26.3116   12.3939 H   0  0  0  0  0  0
   27.2851   26.4715   14.0738 H   0  0  0  0  0  0
   25.5652   26.6668   13.6528 H   0  0  0  0  0  0
  1  2  1  0  0  0
  1  5  2  0  0  0
  1  7  1  0  0  0
  2  3  1  0  0  0
  2  6  1  0  0  0
  3  4  2  0  0  0
  3 28  1  0  0  0
  4  5  1  0  0  0
  4 18  1  0  0  0
  6  8  2  0  0  0
  6 12  1  0  0  0
  7 13  2  0  0  0
  7 17  1  0  0  0
  8  9  1  0  0  0
  8 29  1  0  0  0
  9 10  2  0  0  0
  9 30  1  0  0  0
 10 11  1  0  0  0
 10 22  1  0  0  0
 11 12  2  0  0  0
 11 31  1  0  0  0
 12 32  1  0  0  0
 13 14  1  0  0  0
 13 33  1  0  0  0
 14 15  2  0  0  0
 14 26  1  0  0  0
 15 16  1  0  0  0
 15 34  1  0  0  0
 16 17  2  0  0  0
 16 27  1  0  0  0
 17 35  1  0  0  0
 18 19  1  0  0  0
 18 20  1  0  0  0
 18 21  1  0  0  0
 22 23  2  0  0  0
 22 24  2  0  0  0
 22 25  1  0  0  0
 25 36  1  0  0  0
 25 37  1  0  0  0
 26 38  1  0  0  0
 26 39  1  0  0  0
 26 40  1  0  0  0
M  END
>  <Name>
3-74

>  <Family>
B.1

>  <IC50_uM>
0.030000

>  <set>
0

$$$$
3-75
  Cerius2 12120216093D 1   1.00000                          
 Structure written by MMmdl.
 41 43  0  0  0  0  0  0  0  0999 V2000
   26.4075   22.1281   16.4600 C   0  0  0  0  0  0
   25.4713   21.4606   17.2599 N   0  0  0  0  0  0
   26.2014   20.8862   18.2841 C   0  0  0  0  0  0
   27.5040   21.3243   18.1597 C   0  0  0  0  0  0
   27.6067   22.1123   17.0265 N   0  0  0  0  0  0
   24.0504   21.3758   17.1246 C   0  0  0  0  0  0
   26.1771   22.7021   15.1297 C   0  0  0  0  0  0
   23.3473   22.2608   16.2942 C   0  0  0  0  0  0
   21.9554   22.1715   16.1790 C   0  0  0  0  0  0
   21.2570   21.2068   16.9079 C   0  0  0  0  0  0
   21.9415   20.3264   17.7461 C   0  0  0  0  0  0
   23.3335   20.4169   17.8607 C   0  0  0  0  0  0
   26.4379   24.0620   14.9049 C   0  0  0  0  0  0
   26.2439   24.6365   13.6437 C   0  0  0  0  0  0
   25.7956   23.8405   12.5906 C   0  0  0  0  0  0
   25.5556   22.4817   12.8044 C   0  0  0  0  0  0
   25.7502   21.9078   14.0595 C   0  0  0  0  0  0
   28.6738   21.0443   19.0578 C   0  0  0  0  0  0
   28.3596   20.2118   20.0933 F   0  0  0  0  0  0
   29.1774   22.1814   19.6206 F   0  0  0  0  0  0
   29.7085   20.4528   18.3923 F   0  0  0  0  0  0
   19.4980   21.0902   16.7337 S   0  0  0  0  0  0
   18.9516   22.4037   16.4416 O   0  0  0  0  0  0
   18.9672   20.2974   17.8285 O   0  0  0  0  0  0
   19.3427   20.1795   15.3366 N   0  0  0  0  0  0
   25.0128   21.4982   11.4972 Cl  0  0  0  0  0  0
   26.5263   25.9739   13.5761 O   0  0  0  0  0  0
   26.9744   26.5989   14.7780 C   0  0  0  0  0  0
   25.7438   20.2809   19.0544 H   0  0  0  0  0  0
   23.8404   23.0642   15.7540 H   0  0  0  0  0  0
   21.4250   22.8688   15.5332 H   0  0  0  0  0  0
   21.4080   19.5672   18.3142 H   0  0  0  0  0  0
   23.8328   19.6993   18.5087 H   0  0  0  0  0  0
   26.7925   24.6846   15.7260 H   0  0  0  0  0  0
   25.6305   24.2478   11.5980 H   0  0  0  0  0  0
   25.5702   20.8442   14.2004 H   0  0  0  0  0  0
   18.8681   20.7100   14.6015 H   0  0  0  0  0  0
   18.8666   19.2934   15.5243 H   0  0  0  0  0  0
   27.1516   27.6558   14.5567 H   0  0  0  0  0  0
   27.9207   26.1651   15.1174 H   0  0  0  0  0  0
   26.2084   26.5446   15.5585 H   0  0  0  0  0  0
  1  2  1  0  0  0
  1  5  2  0  0  0
  1  7  1  0  0  0
  2  3  1  0  0  0
  2  6  1  0  0  0
  3  4  2  0  0  0
  3 29  1  0  0  0
  4  5  1  0  0  0
  4 18  1  0  0  0
  6  8  2  0  0  0
  6 12  1  0  0  0
  7 13  2  0  0  0
  7 17  1  0  0  0
  8  9  1  0  0  0
  8 30  1  0  0  0
  9 10  2  0  0  0
  9 31  1  0  0  0
 10 11  1  0  0  0
 10 22  1  0  0  0
 11 12  2  0  0  0
 11 32  1  0  0  0
 12 33  1  0  0  0
 13 14  1  0  0  0
 13 34  1  0  0  0
 14 15  2  0  0  0
 14 27  1  0  0  0
 15 16  1  0  0  0
 15 35  1  0  0  0
 16 17  2  0  0  0
 16 26  1  0  0  0
 17 36  1  0  0  0
 18 19  1  0  0  0
 18 20  1  0  0  0
 18 21  1  0  0  0
 22 23  2  0  0  0
 22 24  2  0  0  0
 22 25  1  0  0  0
 25 37  1  0  0  0
 25 38  1  0  0  0
 27 28  1  0  0  0
 28 39  1  0  0  0
 28 40  1  0  0  0
 28 41  1  0  0  0
M  END
>  <Name>
3-75

>  <Family>
B.1

>  <IC50_uM>
0.460000

>  <set>
1

$$$$
3-76
  Cerius2 12120216093D 1   1.00000                          
 Structure written by MMmdl.
 42 44  0  0  0  0  0  0  0  0999 V2000
   26.4048   22.1306   16.4602 C   0  0  0  0  0  0
   25.4695   21.4594   17.2577 N   0  0  0  0  0  0
   26.1999   20.8828   18.2803 C   0  0  0  0  0  0
   27.5015   21.3248   18.1589 C   0  0  0  0  0  0
   27.6032   22.1162   17.0279 N   0  0  0  0  0  0
   24.0487   21.3747   17.1230 C   0  0  0  0  0  0
   26.1777   22.7072   15.1309 C   0  0  0  0  0  0
   23.3456   22.2599   16.2928 C   0  0  0  0  0  0
   21.9533   22.1721   16.1782 C   0  0  0  0  0  0
   21.2564   21.2085   16.9089 C   0  0  0  0  0  0
   21.9402   20.3263   17.7457 C   0  0  0  0  0  0
   23.3321   20.4164   17.8597 C   0  0  0  0  0  0
   26.4369   24.0647   14.9090 C   0  0  0  0  0  0
   26.2527   24.6255   13.6428 C   0  0  0  0  0  0
   25.8195   23.8526   12.5650 C   0  0  0  0  0  0
   25.5849   22.4940   12.7963 C   0  0  0  0  0  0
   25.7637   21.9174   14.0536 C   0  0  0  0  0  0
   28.6706   21.0455   19.0583 C   0  0  0  0  0  0
   28.3581   20.2054   20.0881 F   0  0  0  0  0  0
   29.1670   22.1819   19.6289 F   0  0  0  0  0  0
   29.7098   20.4633   18.3918 F   0  0  0  0  0  0
   19.4896   21.0854   16.7463 S   0  0  0  0  0  0
   18.9622   22.4304   16.5383 O   0  0  0  0  0  0
   18.9892   20.3109   17.8779 O   0  0  0  0  0  0
   19.2682   20.1444   15.2600 C   0  0  0  0  0  0
   25.1788   21.7075   11.7862 F   0  0  0  0  0  0
   26.5118   25.9343   13.5062 F   0  0  0  0  0  0
   25.5978   24.2724   11.2803 O   0  0  0  0  0  0
   25.8086   25.6533   10.9982 C   0  0  0  0  0  0
   25.7426   20.2746   19.0484 H   0  0  0  0  0  0
   23.8393   23.0631   15.7528 H   0  0  0  0  0  0
   21.4267   22.8699   15.5301 H   0  0  0  0  0  0
   21.4073   19.5662   18.3135 H   0  0  0  0  0  0
   23.8320   19.6989   18.5076 H   0  0  0  0  0  0
   26.7830   24.7012   15.7204 H   0  0  0  0  0  0
   25.5804   20.8526   14.1722 H   0  0  0  0  0  0
   18.1959   20.0263   15.0901 H   0  0  0  0  0  0
   19.7341   19.1652   15.3857 H   0  0  0  0  0  0
   19.7191   20.6852   14.4260 H   0  0  0  0  0  0
   25.5740   25.8149    9.9417 H   0  0  0  0  0  0
   26.8566   25.9302   11.1510 H   0  0  0  0  0  0
   25.1343   26.2835   11.5869 H   0  0  0  0  0  0
  1  2  1  0  0  0
  1  5  2  0  0  0
  1  7  1  0  0  0
  2  3  1  0  0  0
  2  6  1  0  0  0
  3  4  2  0  0  0
  3 30  1  0  0  0
  4  5  1  0  0  0
  4 18  1  0  0  0
  6  8  2  0  0  0
  6 12  1  0  0  0
  7 13  2  0  0  0
  7 17  1  0  0  0
  8  9  1  0  0  0
  8 31  1  0  0  0
  9 10  2  0  0  0
  9 32  1  0  0  0
 10 11  1  0  0  0
 10 22  1  0  0  0
 11 12  2  0  0  0
 11 33  1  0  0  0
 12 34  1  0  0  0
 13 14  1  0  0  0
 13 35  1  0  0  0
 14 15  2  0  0  0
 14 27  1  0  0  0
 15 16  1  0  0  0
 15 28  1  0  0  0
 16 17  2  0  0  0
 16 26  1  0  0  0
 17 36  1  0  0  0
 18 19  1  0  0  0
 18 20  1  0  0  0
 18 21  1  0  0  0
 22 23  2  0  0  0
 22 24  2  0  0  0
 22 25  1  0  0  0
 25 37  1  0  0  0
 25 38  1  0  0  0
 25 39  1  0  0  0
 28 29  1  0  0  0
 29 40  1  0  0  0
 29 41  1  0  0  0
 29 42  1  0  0  0
M  END
>  <Name>
3-76

>  <Family>
B.1

>  <IC50_uM>
0.170000

>  <set>
0

$$$$
3-77
  Cerius2 12120216093D 1   1.00000                          
 Structure written by MMmdl.
 42 44  0  0  0  0  0  0  0  0999 V2000
   26.4061   22.1310   16.4605 C   0  0  0  0  0  0
   25.4703   21.4611   17.2586 N   0  0  0  0  0  0
   26.2009   20.8836   18.2807 C   0  0  0  0  0  0
   27.5034   21.3229   18.1576 C   0  0  0  0  0  0
   27.6051   22.1149   17.0271 N   0  0  0  0  0  0
   24.0496   21.3764   17.1231 C   0  0  0  0  0  0
   26.1794   22.7065   15.1302 C   0  0  0  0  0  0
   23.3462   22.2610   16.2923 C   0  0  0  0  0  0
   21.9541   22.1716   16.1764 C   0  0  0  0  0  0
   21.2574   21.2074   16.9065 C   0  0  0  0  0  0
   21.9414   20.3260   17.7439 C   0  0  0  0  0  0
   23.3330   20.4173   17.8587 C   0  0  0  0  0  0
   26.4339   24.0672   14.9121 C   0  0  0  0  0  0
   26.2487   24.6285   13.6460 C   0  0  0  0  0  0
   25.8378   23.8301   12.5717 C   0  0  0  0  0  0
   25.5703   22.4729   12.7906 C   0  0  0  0  0  0
   25.7571   21.9107   14.0564 C   0  0  0  0  0  0
   28.6738   21.0390   19.0535 C   0  0  0  0  0  0
   28.3593   20.2052   20.0879 F   0  0  0  0  0  0
   29.1807   22.1739   19.6177 F   0  0  0  0  0  0
   29.7062   20.4466   18.3853 F   0  0  0  0  0  0
   19.4905   21.0873   16.7436 S   0  0  0  0  0  0
   18.9652   22.4316   16.5244 O   0  0  0  0  0  0
   18.9886   20.3226   17.8808 O   0  0  0  0  0  0
   19.2689   20.1366   15.2635 C   0  0  0  0  0  0
   24.9915   21.4512   11.5217 Cl  0  0  0  0  0  0
   26.5241   26.3246   13.4562 Cl  0  0  0  0  0  0
   25.6245   24.3879   11.3331 O   0  0  0  0  0  0
   26.8211   24.3241   10.5478 C   0  0  0  0  0  0
   25.7438   20.2752   19.0488 H   0  0  0  0  0  0
   23.8396   23.0649   15.7531 H   0  0  0  0  0  0
   21.4272   22.8689   15.5279 H   0  0  0  0  0  0
   21.4087   19.5659   18.3119 H   0  0  0  0  0  0
   23.8327   19.6999   18.5068 H   0  0  0  0  0  0
   26.7689   24.6920   15.7387 H   0  0  0  0  0  0
   25.5693   20.8488   14.2047 H   0  0  0  0  0  0
   18.1967   20.0216   15.0914 H   0  0  0  0  0  0
   19.7307   19.1565   15.3974 H   0  0  0  0  0  0
   19.7243   20.6700   14.4271 H   0  0  0  0  0  0
   27.1444   23.2895   10.3923 H   0  0  0  0  0  0
   27.6289   24.9059   11.0037 H   0  0  0  0  0  0
   26.5995   24.7606    9.5694 H   0  0  0  0  0  0
  1  2  1  0  0  0
  1  5  2  0  0  0
  1  7  1  0  0  0
  2  3  1  0  0  0
  2  6  1  0  0  0
  3  4  2  0  0  0
  3 30  1  0  0  0
  4  5  1  0  0  0
  4 18  1  0  0  0
  6  8  2  0  0  0
  6 12  1  0  0  0
  7 13  2  0  0  0
  7 17  1  0  0  0
  8  9  1  0  0  0
  8 31  1  0  0  0
  9 10  2  0  0  0
  9 32  1  0  0  0
 10 11  1  0  0  0
 10 22  1  0  0  0
 11 12  2  0  0  0
 11 33  1  0  0  0
 12 34  1  0  0  0
 13 14  1  0  0  0
 13 35  1  0  0  0
 14 15  2  0  0  0
 14 27  1  0  0  0
 15 16  1  0  0  0
 15 28  1  0  0  0
 16 17  2  0  0  0
 16 26  1  0  0  0
 17 36  1  0  0  0
 18 19  1  0  0  0
 18 20  1  0  0  0
 18 21  1  0  0  0
 22 23  2  0  0  0
 22 24  2  0  0  0
 22 25  1  0  0  0
 25 37  1  0  0  0
 25 38  1  0  0  0
 25 39  1  0  0  0
 28 29  1  0  0  0
 29 40  1  0  0  0
 29 41  1  0  0  0
 29 42  1  0  0  0
M  END
>  <Name>
3-77

>  <Family>
B.1

>  <IC50_uM>
0.140000

>  <set>
0

$$$$
3-78
  Cerius2 12120216093D 1   1.00000                          
 Structure written by MMmdl.
 42 44  0  0  0  0  0  0  0  0999 V2000
   26.4072   22.1299   16.4602 C   0  0  0  0  0  0
   25.4707   21.4611   17.2583 N   0  0  0  0  0  0
   26.2003   20.8854   18.2821 C   0  0  0  0  0  0
   27.5029   21.3242   18.1595 C   0  0  0  0  0  0
   27.6057   22.1143   17.0277 N   0  0  0  0  0  0
   24.0498   21.3760   17.1223 C   0  0  0  0  0  0
   26.1807   22.7057   15.1299 C   0  0  0  0  0  0
   23.3465   22.2605   16.2915 C   0  0  0  0  0  0
   21.9544   22.1717   16.1761 C   0  0  0  0  0  0
   21.2575   21.2080   16.9066 C   0  0  0  0  0  0
   21.9415   20.3258   17.7432 C   0  0  0  0  0  0
   23.3333   20.4166   17.8576 C   0  0  0  0  0  0
   26.4341   24.0664   14.9128 C   0  0  0  0  0  0
   26.2471   24.6293   13.6466 C   0  0  0  0  0  0
   25.8394   23.8305   12.5704 C   0  0  0  0  0  0
   25.5664   22.4740   12.7906 C   0  0  0  0  0  0
   25.7551   21.9107   14.0567 C   0  0  0  0  0  0
   28.6723   21.0423   19.0571 C   0  0  0  0  0  0
   28.3571   20.2106   20.0930 F   0  0  0  0  0  0
   29.1787   22.1785   19.6191 F   0  0  0  0  0  0
   29.7053   20.4484   18.3911 F   0  0  0  0  0  0
   19.4907   21.0878   16.7435 S   0  0  0  0  0  0
   18.9653   22.4316   16.5239 O   0  0  0  0  0  0
   18.9889   20.3234   17.8810 O   0  0  0  0  0  0
   19.2686   20.1363   15.2638 C   0  0  0  0  0  0
   24.9062   21.3479   11.4099 Br  0  0  0  0  0  0
   26.5330   26.4980   13.4560 Br  0  0  0  0  0  0
   25.6332   24.3871   11.3315 O   0  0  0  0  0  0
   26.8316   24.3185   10.5482 C   0  0  0  0  0  0
   25.7424   20.2786   19.0510 H   0  0  0  0  0  0
   23.8400   23.0636   15.7510 H   0  0  0  0  0  0
   21.4276   22.8686   15.5271 H   0  0  0  0  0  0
   21.4090   19.5652   18.3106 H   0  0  0  0  0  0
   23.8330   19.6986   18.5049 H   0  0  0  0  0  0
   26.7670   24.6879   15.7428 H   0  0  0  0  0  0
   25.5646   20.8499   14.2098 H   0  0  0  0  0  0
   18.1960   20.0223   15.0922 H   0  0  0  0  0  0
   19.7291   19.1559   15.3980 H   0  0  0  0  0  0
   19.7242   20.6688   14.4268 H   0  0  0  0  0  0
   27.1565   23.2839   10.3979 H   0  0  0  0  0  0
   27.6398   24.9014   11.0014 H   0  0  0  0  0  0
   26.6118   24.7502    9.5672 H   0  0  0  0  0  0
  1  2  1  0  0  0
  1  5  2  0  0  0
  1  7  1  0  0  0
  2  3  1  0  0  0
  2  6  1  0  0  0
  3  4  2  0  0  0
  3 30  1  0  0  0
  4  5  1  0  0  0
  4 18  1  0  0  0
  6  8  2  0  0  0
  6 12  1  0  0  0
  7 13  2  0  0  0
  7 17  1  0  0  0
  8  9  1  0  0  0
  8 31  1  0  0  0
  9 10  2  0  0  0
  9 32  1  0  0  0
 10 11  1  0  0  0
 10 22  1  0  0  0
 11 12  2  0  0  0
 11 33  1  0  0  0
 12 34  1  0  0  0
 13 14  1  0  0  0
 13 35  1  0  0  0
 14 15  2  0  0  0
 14 27  1  0  0  0
 15 16  1  0  0  0
 15 28  1  0  0  0
 16 17  2  0  0  0
 16 26  1  0  0  0
 17 36  1  0  0  0
 18 19  1  0  0  0
 18 20  1  0  0  0
 18 21  1  0  0  0
 22 23  2  0  0  0
 22 24  2  0  0  0
 22 25  1  0  0  0
 25 37  1  0  0  0
 25 38  1  0  0  0
 25 39  1  0  0  0
 28 29  1  0  0  0
 29 40  1  0  0  0
 29 41  1  0  0  0
 29 42  1  0  0  0
M  END
>  <Name>
3-78

>  <Family>
B.1

>  <IC50_uM>
0.090000

>  <set>
0

$$$$
3-79
  Cerius2 12120216093D 1   1.00000                          
 Structure written by MMmdl.
 48 50  0  0  0  0  0  0  0  0999 V2000
   26.4094   22.1275   16.4595 C   0  0  0  0  0  0
   25.4704   21.4608   17.2575 N   0  0  0  0  0  0
   26.1979   20.8894   18.2856 C   0  0  0  0  0  0
   27.5012   21.3258   18.1639 C   0  0  0  0  0  0
   27.6071   22.1117   17.0301 N   0  0  0  0  0  0
   24.0489   21.3750   17.1211 C   0  0  0  0  0  0
   26.1834   22.7030   15.1284 C   0  0  0  0  0  0
   23.3442   22.2589   16.2910 C   0  0  0  0  0  0
   21.9518   22.1702   16.1769 C   0  0  0  0  0  0
   21.2555   21.2070   16.9080 C   0  0  0  0  0  0
   21.9400   20.3245   17.7435 C   0  0  0  0  0  0
   23.3321   20.4152   17.8563 C   0  0  0  0  0  0
   26.4410   24.0626   14.9068 C   0  0  0  0  0  0
   26.2504   24.6406   13.6420 C   0  0  0  0  0  0
   25.8477   23.8181   12.5776 C   0  0  0  0  0  0
   25.5535   22.4600   12.7806 C   0  0  0  0  0  0
   25.7553   21.9082   14.0555 C   0  0  0  0  0  0
   28.6681   21.0456   19.0656 C   0  0  0  0  0  0
   28.3498   20.2147   20.1012 F   0  0  0  0  0  0
   29.1717   22.1826   19.6287 F   0  0  0  0  0  0
   29.7039   20.4519   18.4038 F   0  0  0  0  0  0
   19.4887   21.0867   16.7466 S   0  0  0  0  0  0
   18.9629   22.4313   16.5313 O   0  0  0  0  0  0
   18.9880   20.3193   17.8827 O   0  0  0  0  0  0
   19.2650   20.1392   15.2647 C   0  0  0  0  0  0
   25.0781   21.5726   11.6643 C   0  0  0  0  0  0
   26.5291   26.1057   13.4544 C   0  0  0  0  0  0
   25.6651   24.3683   11.3329 O   0  0  0  0  0  0
   26.8743   24.2815   10.5695 C   0  0  0  0  0  0
   25.7385   20.2859   19.0561 H   0  0  0  0  0  0
   23.8371   23.0604   15.7473 H   0  0  0  0  0  0
   21.4249   22.8669   15.5276 H   0  0  0  0  0  0
   21.4081   19.5638   18.3112 H   0  0  0  0  0  0
   23.8317   19.6966   18.5030 H   0  0  0  0  0  0
   26.7868   24.6811   15.7355 H   0  0  0  0  0  0
   25.5716   20.8451   14.2114 H   0  0  0  0  0  0
   18.1924   20.0240   15.0948 H   0  0  0  0  0  0
   19.7275   19.1593   15.3953 H   0  0  0  0  0  0
   19.7183   20.6749   14.4285 H   0  0  0  0  0  0
   24.5012   20.7272   12.0551 H   0  0  0  0  0  0
   25.9330   21.1813   11.1049 H   0  0  0  0  0  0
   24.4186   22.1169   10.9808 H   0  0  0  0  0  0
   27.5532   26.2512   13.0979 H   0  0  0  0  0  0
   26.4080   26.6515   14.3963 H   0  0  0  0  0  0
   25.8315   26.5513   12.7380 H   0  0  0  0  0  0
   26.6820   24.7313    9.5910 H   0  0  0  0  0  0
   27.1725   23.2400   10.4111 H   0  0  0  0  0  0
   27.6879   24.8390   11.0449 H   0  0  0  0  0  0
  1  2  1  0  0  0
  1  5  2  0  0  0
  1  7  1  0  0  0
  2  3  1  0  0  0
  2  6  1  0  0  0
  3  4  2  0  0  0
  3 30  1  0  0  0
  4  5  1  0  0  0
  4 18  1  0  0  0
  6  8  2  0  0  0
  6 12  1  0  0  0
  7 13  2  0  0  0
  7 17  1  0  0  0
  8  9  1  0  0  0
  8 31  1  0  0  0
  9 10  2  0  0  0
  9 32  1  0  0  0
 10 11  1  0  0  0
 10 22  1  0  0  0
 11 12  2  0  0  0
 11 33  1  0  0  0
 12 34  1  0  0  0
 13 14  1  0  0  0
 13 35  1  0  0  0
 14 15  2  0  0  0
 14 27  1  0  0  0
 15 16  1  0  0  0
 15 28  1  0  0  0
 16 17  2  0  0  0
 16 26  1  0  0  0
 17 36  1  0  0  0
 18 19  1  0  0  0
 18 20  1  0  0  0
 18 21  1  0  0  0
 22 23  2  0  0  0
 22 24  2  0  0  0
 22 25  1  0  0  0
 25 37  1  0  0  0
 25 38  1  0  0  0
 25 39  1  0  0  0
 26 40  1  0  0  0
 26 41  1  0  0  0
 26 42  1  0  0  0
 27 43  1  0  0  0
 27 44  1  0  0  0
 27 45  1  0  0  0
 28 29  1  0  0  0
 29 46  1  0  0  0
 29 47  1  0  0  0
 29 48  1  0  0  0
M  END
>  <Name>
3-79

>  <Family>
B.1

>  <IC50_uM>
0.720000

>  <set>
1

$$$$
3-80
  Cerius2 12120216093D 1   1.00000                          
 Structure written by MMmdl.
 48 50  0  0  0  0  0  0  0  0999 V2000
   26.4182   22.1305   16.4683 C   0  0  0  0  0  0
   25.4743   21.4678   17.2645 N   0  0  0  0  0  0
   26.1998   20.8847   18.2880 C   0  0  0  0  0  0
   27.5126   21.2848   18.1491 C   0  0  0  0  0  0
   27.6251   22.0674   17.0148 N   0  0  0  0  0  0
   24.0522   21.3847   17.1233 C   0  0  0  0  0  0
   26.1827   22.7347   15.1491 C   0  0  0  0  0  0
   23.3484   22.2649   16.2888 C   0  0  0  0  0  0
   21.9563   22.1736   16.1687 C   0  0  0  0  0  0
   21.2581   21.2101   16.8971 C   0  0  0  0  0  0
   21.9410   20.3302   17.7363 C   0  0  0  0  0  0
   23.3325   20.4238   17.8551 C   0  0  0  0  0  0
   26.4208   24.1014   14.9078 C   0  0  0  0  0  0
   26.2114   24.6212   13.6155 C   0  0  0  0  0  0
   25.7646   23.8072   12.5691 C   0  0  0  0  0  0
   25.5303   22.4436   12.8067 C   0  0  0  0  0  0
   25.7499   21.9191   14.0904 C   0  0  0  0  0  0
   28.6847   20.9691   19.0313 C   0  0  0  0  0  0
   28.3332   20.2681   20.1489 F   0  0  0  0  0  0
   29.3207   22.0942   19.4705 F   0  0  0  0  0  0
   29.6275   20.2188   18.3900 F   0  0  0  0  0  0
   19.4925   21.0837   16.7278 S   0  0  0  0  0  0
   18.9656   22.4248   16.4947 O   0  0  0  0  0  0
   18.9865   20.3278   17.8693 O   0  0  0  0  0  0
   19.2793   20.1184   15.2558 C   0  0  0  0  0  0
   25.0552   21.5345   11.7054 C   0  0  0  0  0  0
   25.5323   24.2357   11.2882 O   0  0  0  0  0  0
   25.7509   25.6173   11.0095 C   0  0  0  0  0  0
   26.9127   25.0235   15.9933 C   0  0  0  0  0  0
   25.7356   20.2913   19.0634 H   0  0  0  0  0  0
   23.8383   23.0674   15.7457 H   0  0  0  0  0  0
   21.4317   22.8690   15.5161 H   0  0  0  0  0  0
   21.4077   19.5689   18.3022 H   0  0  0  0  0  0
   23.8286   19.7054   18.5045 H   0  0  0  0  0  0
   26.4076   25.6786   13.4532 H   0  0  0  0  0  0
   25.5828   20.8563   14.2677 H   0  0  0  0  0  0
   18.2081   19.9966   15.0826 H   0  0  0  0  0  0
   19.7455   19.1419   15.3999 H   0  0  0  0  0  0
   19.7340   20.6462   14.4154 H   0  0  0  0  0  0
   24.9054   20.5108   12.0642 H   0  0  0  0  0  0
   25.7942   21.4997   10.8985 H   0  0  0  0  0  0
   24.0983   21.8888   11.3085 H   0  0  0  0  0  0
   25.5137   25.7848    9.9545 H   0  0  0  0  0  0
   26.8008   25.8878   11.1621 H   0  0  0  0  0  0
   25.0845   26.2493   11.6056 H   0  0  0  0  0  0
   27.9576   24.8022   16.2320 H   0  0  0  0  0  0
   26.3003   24.9216   16.8950 H   0  0  0  0  0  0
   26.8530   26.0726   15.6844 H   0  0  0  0  0  0
  1  2  1  0  0  0
  1  5  2  0  0  0
  1  7  1  0  0  0
  2  3  1  0  0  0
  2  6  1  0  0  0
  3  4  2  0  0  0
  3 30  1  0  0  0
  4  5  1  0  0  0
  4 18  1  0  0  0
  6  8  2  0  0  0
  6 12  1  0  0  0
  7 13  2  0  0  0
  7 17  1  0  0  0
  8  9  1  0  0  0
  8 31  1  0  0  0
  9 10  2  0  0  0
  9 32  1  0  0  0
 10 11  1  0  0  0
 10 22  1  0  0  0
 11 12  2  0  0  0
 11 33  1  0  0  0
 12 34  1  0  0  0
 13 14  1  0  0  0
 13 29  1  0  0  0
 14 15  2  0  0  0
 14 35  1  0  0  0
 15 16  1  0  0  0
 15 27  1  0  0  0
 16 17  2  0  0  0
 16 26  1  0  0  0
 17 36  1  0  0  0
 18 19  1  0  0  0
 18 20  1  0  0  0
 18 21  1  0  0  0
 22 23  2  0  0  0
 22 24  2  0  0  0
 22 25  1  0  0  0
 25 37  1  0  0  0
 25 38  1  0  0  0
 25 39  1  0  0  0
 26 40  1  0  0  0
 26 41  1  0  0  0
 26 42  1  0  0  0
 27 28  1  0  0  0
 28 43  1  0  0  0
 28 44  1  0  0  0
 28 45  1  0  0  0
 29 46  1  0  0  0
 29 47  1  0  0  0
 29 48  1  0  0  0
M  END
>  <Name>
3-80

>  <Family>
B.1

>  <IC50_uM>
12.200000

>  <set>
1

$$$$
3-81
  Cerius2 12120216093D 1   1.00000                          
 Structure written by MMmdl.
 46 48  0  0  0  0  0  0  0  0999 V2000
   26.4070   22.1302   16.4609 C   0  0  0  0  0  0
   25.4705   21.4602   17.2583 N   0  0  0  0  0  0
   26.2005   20.8828   18.2810 C   0  0  0  0  0  0
   27.5029   21.3220   18.1590 C   0  0  0  0  0  0
   27.6056   22.1137   17.0283 N   0  0  0  0  0  0
   24.0497   21.3758   17.1225 C   0  0  0  0  0  0
   26.1794   22.7080   15.1320 C   0  0  0  0  0  0
   23.3465   22.2609   16.2920 C   0  0  0  0  0  0
   21.9543   22.1725   16.1763 C   0  0  0  0  0  0
   21.2571   21.2090   16.9066 C   0  0  0  0  0  0
   21.9408   20.3268   17.7436 C   0  0  0  0  0  0
   23.3326   20.4170   17.8581 C   0  0  0  0  0  0
   26.4400   24.0619   14.9106 C   0  0  0  0  0  0
   26.2462   24.6228   13.6428 C   0  0  0  0  0  0
   25.7968   23.8523   12.5452 C   0  0  0  0  0  0
   25.5635   22.4806   12.7872 C   0  0  0  0  0  0
   25.7590   21.9182   14.0571 C   0  0  0  0  0  0
   28.6722   21.0394   19.0570 C   0  0  0  0  0  0
   28.3590   20.1989   20.0862 F   0  0  0  0  0  0
   29.1716   22.1740   19.6283 F   0  0  0  0  0  0
   29.7095   20.4556   18.3889 F   0  0  0  0  0  0
   19.4904   21.0865   16.7441 S   0  0  0  0  0  0
   18.9642   22.4308   16.5287 O   0  0  0  0  0  0
   18.9889   20.3183   17.8791 O   0  0  0  0  0  0
   19.2689   20.1385   15.2621 C   0  0  0  0  0  0
   25.0273   21.3995   11.5420 Cl  0  0  0  0  0  0
   26.5792   26.3176   13.4666 Cl  0  0  0  0  0  0
   25.6121   24.4674   11.3001 N   0  0  0  0  0  0
   26.8097   24.8185   10.5461 C   0  0  0  0  0  0
   24.4252   25.2988   11.1389 C   0  0  0  0  0  0
   25.7428   20.2748   19.0490 H   0  0  0  0  0  0
   23.8399   23.0646   15.7525 H   0  0  0  0  0  0
   21.4279   22.8703   15.5279 H   0  0  0  0  0  0
   21.4076   19.5667   18.3111 H   0  0  0  0  0  0
   23.8319   19.6992   18.5060 H   0  0  0  0  0  0
   26.7917   24.6852   15.7310 H   0  0  0  0  0  0
   25.5824   20.8536   14.2030 H   0  0  0  0  0  0
   18.1965   20.0212   15.0921 H   0  0  0  0  0  0
   19.7332   19.1593   15.3932 H   0  0  0  0  0  0
   19.7212   20.6746   14.4259 H   0  0  0  0  0  0
   26.5554   24.9798    9.4930 H   0  0  0  0  0  0
   27.5500   24.0113   10.5815 H   0  0  0  0  0  0
   27.2710   25.7359   10.9233 H   0  0  0  0  0  0
   24.2237   25.4631   10.0749 H   0  0  0  0  0  0
   24.5504   26.2773   11.6117 H   0  0  0  0  0  0
   23.5408   24.8122   11.5656 H   0  0  0  0  0  0
  1  2  1  0  0  0
  1  5  2  0  0  0
  1  7  1  0  0  0
  2  3  1  0  0  0
  2  6  1  0  0  0
  3  4  2  0  0  0
  3 31  1  0  0  0
  4  5  1  0  0  0
  4 18  1  0  0  0
  6  8  2  0  0  0
  6 12  1  0  0  0
  7 13  2  0  0  0
  7 17  1  0  0  0
  8  9  1  0  0  0
  8 32  1  0  0  0
  9 10  2  0  0  0
  9 33  1  0  0  0
 10 11  1  0  0  0
 10 22  1  0  0  0
 11 12  2  0  0  0
 11 34  1  0  0  0
 12 35  1  0  0  0
 13 14  1  0  0  0
 13 36  1  0  0  0
 14 15  2  0  0  0
 14 27  1  0  0  0
 15 16  1  0  0  0
 15 28  1  0  0  0
 16 17  2  0  0  0
 16 26  1  0  0  0
 17 37  1  0  0  0
 18 19  1  0  0  0
 18 20  1  0  0  0
 18 21  1  0  0  0
 22 23  2  0  0  0
 22 24  2  0  0  0
 22 25  1  0  0  0
 25 38  1  0  0  0
 25 39  1  0  0  0
 25 40  1  0  0  0
 28 29  1  0  0  0
 28 30  1  0  0  0
 29 41  1  0  0  0
 29 42  1  0  0  0
 29 43  1  0  0  0
 30 44  1  0  0  0
 30 45  1  0  0  0
 30 46  1  0  0  0
M  END
>  <Name>
3-81

>  <Family>
B.1

>  <IC50_uM>
0.140000

>  <set>
0

$$$$
3-82
  Cerius2 12120216093D 1   1.00000                          
 Structure written by MMmdl.
 41 43  0  0  0  0  0  0  0  0999 V2000
   26.4040   22.1325   16.4609 C   0  0  0  0  0  0
   25.4693   21.4591   17.2573 N   0  0  0  0  0  0
   26.2008   20.8799   18.2777 C   0  0  0  0  0  0
   27.5021   21.3226   18.1569 C   0  0  0  0  0  0
   27.6028   22.1172   17.0279 N   0  0  0  0  0  0
   24.0485   21.3743   17.1231 C   0  0  0  0  0  0
   26.1768   22.7111   15.1324 C   0  0  0  0  0  0
   23.3450   22.2599   16.2938 C   0  0  0  0  0  0
   21.9524   22.1721   16.1815 C   0  0  0  0  0  0
   21.2544   21.2084   16.9120 C   0  0  0  0  0  0
   21.9399   20.3269   17.7486 C   0  0  0  0  0  0
   23.3322   20.4161   17.8606 C   0  0  0  0  0  0
   26.4357   24.0672   14.9122 C   0  0  0  0  0  0
   26.2498   24.6161   13.6441 C   0  0  0  0  0  0
   25.8177   23.8449   12.5613 C   0  0  0  0  0  0
   25.5829   22.4881   12.7879 C   0  0  0  0  0  0
   25.7641   21.9212   14.0523 C   0  0  0  0  0  0
   28.6725   21.0395   19.0533 C   0  0  0  0  0  0
   28.3494   20.2367   20.1093 F   0  0  0  0  0  0
   29.2030   22.1783   19.5871 F   0  0  0  0  0  0
   29.6902   20.4128   18.3937 F   0  0  0  0  0  0
   19.4950   21.0872   16.7409 S   0  0  0  0  0  0
   18.9464   22.3996   16.4480 O   0  0  0  0  0  0
   18.9658   20.2956   17.8374 O   0  0  0  0  0  0
   19.3403   20.1721   15.3467 N   0  0  0  0  0  0
   25.1804   21.6736   11.8014 F   0  0  0  0  0  0
   26.4987   25.9246   13.4723 F   0  0  0  0  0  0
   25.6792   24.5238   11.3798 O   0  0  0  0  0  0
   25.9781   25.9172   11.3880 C   0  0  0  0  0  0
   25.7445   20.2686   19.0441 H   0  0  0  0  0  0
   23.8380   23.0638   15.7541 H   0  0  0  0  0  0
   21.4217   22.8705   15.5371 H   0  0  0  0  0  0
   21.4062   19.5688   18.3180 H   0  0  0  0  0  0
   23.8324   19.6987   18.5083 H   0  0  0  0  0  0
   26.7803   24.7069   15.7209 H   0  0  0  0  0  0
   25.5832   20.8558   14.1749 H   0  0  0  0  0  0
   18.8624   20.6990   14.6110 H   0  0  0  0  0  0
   18.8670   19.2852   15.5379 H   0  0  0  0  0  0
   25.8319   26.2933   10.3707 H   0  0  0  0  0  0
   27.0237   26.0947   11.6594 H   0  0  0  0  0  0
   25.2922   26.4625   12.0440 H   0  0  0  0  0  0
  1  2  1  0  0  0
  1  5  2  0  0  0
  1  7  1  0  0  0
  2  3  1  0  0  0
  2  6  1  0  0  0
  3  4  2  0  0  0
  3 30  1  0  0  0
  4  5  1  0  0  0
  4 18  1  0  0  0
  6  8  2  0  0  0
  6 12  1  0  0  0
  7 13  2  0  0  0
  7 17  1  0  0  0
  8  9  1  0  0  0
  8 31  1  0  0  0
  9 10  2  0  0  0
  9 32  1  0  0  0
 10 11  1  0  0  0
 10 22  1  0  0  0
 11 12  2  0  0  0
 11 33  1  0  0  0
 12 34  1  0  0  0
 13 14  1  0  0  0
 13 35  1  0  0  0
 14 15  2  0  0  0
 14 27  1  0  0  0
 15 16  1  0  0  0
 15 28  1  0  0  0
 16 17  2  0  0  0
 16 26  1  0  0  0
 17 36  1  0  0  0
 18 19  1  0  0  0
 18 20  1  0  0  0
 18 21  1  0  0  0
 22 23  2  0  0  0
 22 24  2  0  0  0
 22 25  1  0  0  0
 25 37  1  0  0  0
 25 38  1  0  0  0
 28 29  1  0  0  0
 29 39  1  0  0  0
 29 40  1  0  0  0
 29 41  1  0  0  0
M  END
>  <Name>
3-82

>  <Family>
B.1

>  <IC50_uM>
0.030000

>  <set>
0

$$$$
3-83
  Cerius2 12120216093D 1   1.00000                          
 Structure written by MMmdl.
 35 37  0  0  0  0  0  0  0  0999 V2000
   26.4091   22.1301   16.4594 C   0  0  0  0  0  0
   25.4676   21.4606   17.2549 N   0  0  0  0  0  0
   26.1974   20.8894   18.2818 C   0  0  0  0  0  0
   27.4859   21.3339   18.1451 C   0  0  0  0  0  0
   27.6071   22.1121   17.0321 N   0  0  0  0  0  0
   24.0465   21.3739   17.1188 C   0  0  0  0  0  0
   26.1841   22.7079   15.1293 C   0  0  0  0  0  0
   23.3405   22.2578   16.2896 C   0  0  0  0  0  0
   21.9479   22.1694   16.1783 C   0  0  0  0  0  0
   21.2529   21.2059   16.9105 C   0  0  0  0  0  0
   21.9390   20.3235   17.7450 C   0  0  0  0  0  0
   23.3310   20.4144   17.8556 C   0  0  0  0  0  0
   26.4441   24.0684   14.9082 C   0  0  0  0  0  0
   26.2555   24.6322   13.6427 C   0  0  0  0  0  0
   25.8187   23.8342   12.5876 C   0  0  0  0  0  0
   25.5746   22.4768   12.7857 C   0  0  0  0  0  0
   25.7635   21.9135   14.0517 C   0  0  0  0  0  0
   19.4857   21.0849   16.7527 S   0  0  0  0  0  0
   18.9586   22.4304   16.5461 O   0  0  0  0  0  0
   18.9879   20.3108   17.8855 O   0  0  0  0  0  0
   19.2598   20.1453   15.2662 C   0  0  0  0  0  0
   25.5872   24.5272   11.0292 Cl  0  0  0  0  0  0
   25.7440   20.2844   19.0540 H   0  0  0  0  0  0
   28.3274   21.1297   18.7974 H   0  0  0  0  0  0
   23.8325   23.0596   15.7459 H   0  0  0  0  0  0
   21.4199   22.8665   15.5305 H   0  0  0  0  0  0
   21.4077   19.5633   18.3141 H   0  0  0  0  0  0
   23.8318   19.6968   18.5027 H   0  0  0  0  0  0
   26.7927   24.6991   15.7249 H   0  0  0  0  0  0
   26.4551   25.6906   13.4919 H   0  0  0  0  0  0
   25.2419   21.8478   11.9634 H   0  0  0  0  0  0
   25.5813   20.8483   14.1860 H   0  0  0  0  0  0
   18.1869   20.0314   15.0973 H   0  0  0  0  0  0
   19.7224   19.1644   15.3908 H   0  0  0  0  0  0
   19.7119   20.6852   14.4321 H   0  0  0  0  0  0
  1  2  1  0  0  0
  1  5  2  0  0  0
  1  7  1  0  0  0
  2  3  1  0  0  0
  2  6  1  0  0  0
  3  4  2  0  0  0
  3 23  1  0  0  0
  4  5  1  0  0  0
  4 24  1  0  0  0
  6  8  2  0  0  0
  6 12  1  0  0  0
  7 13  2  0  0  0
  7 17  1  0  0  0
  8  9  1  0  0  0
  8 25  1  0  0  0
  9 10  2  0  0  0
  9 26  1  0  0  0
 10 11  1  0  0  0
 10 18  1  0  0  0
 11 12  2  0  0  0
 11 27  1  0  0  0
 12 28  1  0  0  0
 13 14  1  0  0  0
 13 29  1  0  0  0
 14 15  2  0  0  0
 14 30  1  0  0  0
 15 16  1  0  0  0
 15 22  1  0  0  0
 16 17  2  0  0  0
 16 31  1  0  0  0
 17 32  1  0  0  0
 18 19  2  0  0  0
 18 20  2  0  0  0
 18 21  1  0  0  0
 21 33  1  0  0  0
 21 34  1  0  0  0
 21 35  1  0  0  0
M  END
>  <Name>
3-83

>  <Family>
B.1

>  <IC50_uM>
>100

>  <set>
2

$$$$
3-87
  Cerius2 12120216093D 1   1.00000                          
 Structure written by MMmdl.
 38 40  0  0  0  0  0  0  0  0999 V2000
   26.4086   22.1296   16.4602 C   0  0  0  0  0  0
   25.4701   21.4604   17.2564 N   0  0  0  0  0  0
   26.1990   20.8864   18.2827 C   0  0  0  0  0  0
   27.4988   21.3261   18.1580 C   0  0  0  0  0  0
   27.6063   22.1127   17.0305 N   0  0  0  0  0  0
   24.0487   21.3751   17.1207 C   0  0  0  0  0  0
   26.1815   22.7069   15.1303 C   0  0  0  0  0  0
   23.3444   22.2595   16.2907 C   0  0  0  0  0  0
   21.9519   22.1718   16.1772 C   0  0  0  0  0  0
   21.2554   21.2088   16.9082 C   0  0  0  0  0  0
   21.9400   20.3262   17.7441 C   0  0  0  0  0  0
   23.3319   20.4162   17.8568 C   0  0  0  0  0  0
   26.4416   24.0671   14.9086 C   0  0  0  0  0  0
   26.2501   24.6309   13.6435 C   0  0  0  0  0  0
   25.8104   23.8330   12.5895 C   0  0  0  0  0  0
   25.5667   22.4756   12.7884 C   0  0  0  0  0  0
   25.7584   21.9124   14.0539 C   0  0  0  0  0  0
   19.4886   21.0850   16.7472 S   0  0  0  0  0  0
   18.9611   22.4300   16.5389 O   0  0  0  0  0  0
   18.9887   20.3111   17.8792 O   0  0  0  0  0  0
   19.2666   20.1433   15.2615 C   0  0  0  0  0  0
   25.5749   24.5257   11.0316 Cl  0  0  0  0  0  0
   28.6662   21.0480   19.0520 C   0  0  0  0  0  0
   29.1875   22.2093   19.5536 F   0  0  0  0  0  0
   29.6888   20.4625   18.3568 F   0  0  0  0  0  0
   25.7394   20.2808   19.0514 H   0  0  0  0  0  0
   23.8380   23.0607   15.7473 H   0  0  0  0  0  0
   21.4256   22.8693   15.5282 H   0  0  0  0  0  0
   21.4071   19.5660   18.3119 H   0  0  0  0  0  0
   23.8315   19.6979   18.5039 H   0  0  0  0  0  0
   26.7924   24.6978   15.7244 H   0  0  0  0  0  0
   26.4494   25.6892   13.4922 H   0  0  0  0  0  0
   25.2319   21.8465   11.9667 H   0  0  0  0  0  0
   25.5765   20.8472   14.1887 H   0  0  0  0  0  0
   18.1941   20.0243   15.0930 H   0  0  0  0  0  0
   19.7334   19.1647   15.3871 H   0  0  0  0  0  0
   19.7160   20.6842   14.4267 H   0  0  0  0  0  0
   28.4026   20.3978   19.8905 H   0  0  0  0  0  0
  1  2  1  0  0  0
  1  5  2  0  0  0
  1  7  1  0  0  0
  2  3  1  0  0  0
  2  6  1  0  0  0
  3  4  2  0  0  0
  3 26  1  0  0  0
  4  5  1  0  0  0
  4 23  1  0  0  0
  6  8  2  0  0  0
  6 12  1  0  0  0
  7 13  2  0  0  0
  7 17  1  0  0  0
  8  9  1  0  0  0
  8 27  1  0  0  0
  9 10  2  0  0  0
  9 28  1  0  0  0
 10 11  1  0  0  0
 10 18  1  0  0  0
 11 12  2  0  0  0
 11 29  1  0  0  0
 12 30  1  0  0  0
 13 14  1  0  0  0
 13 31  1  0  0  0
 14 15  2  0  0  0
 14 32  1  0  0  0
 15 16  1  0  0  0
 15 22  1  0  0  0
 16 17  2  0  0  0
 16 33  1  0  0  0
 17 34  1  0  0  0
 18 19  2  0  0  0
 18 20  2  0  0  0
 18 21  1  0  0  0
 21 35  1  0  0  0
 21 36  1  0  0  0
 21 37  1  0  0  0
 23 24  1  0  0  0
 23 25  1  0  0  0
 23 38  1  0  0  0
M  END
>  <Name>
3-87

>  <Family>
B.1

>  <IC50_uM>
0.610000

>  <set>
0

$$$$
3-88
  Cerius2 12120216093D 1   1.00000                          
 Structure written by MMmdl.
 38 40  0  0  0  0  0  0  0  0999 V2000
   26.4088   22.1298   16.4599 C   0  0  0  0  0  0
   25.4691   21.4612   17.2562 N   0  0  0  0  0  0
   26.1987   20.8878   18.2820 C   0  0  0  0  0  0
   27.4958   21.3275   18.1516 C   0  0  0  0  0  0
   27.6072   22.1109   17.0302 N   0  0  0  0  0  0
   24.0478   21.3757   17.1206 C   0  0  0  0  0  0
   26.1824   22.7073   15.1303 C   0  0  0  0  0  0
   23.3427   22.2595   16.2907 C   0  0  0  0  0  0
   21.9502   22.1710   16.1778 C   0  0  0  0  0  0
   21.2544   21.2077   16.9092 C   0  0  0  0  0  0
   21.9397   20.3256   17.7449 C   0  0  0  0  0  0
   23.3317   20.4164   17.8571 C   0  0  0  0  0  0
   26.4427   24.0676   14.9086 C   0  0  0  0  0  0
   26.2517   24.6313   13.6434 C   0  0  0  0  0  0
   25.8126   23.8333   12.5891 C   0  0  0  0  0  0
   25.5689   22.4760   12.7878 C   0  0  0  0  0  0
   25.7600   21.9128   14.0535 C   0  0  0  0  0  0
   19.4877   21.0841   16.7479 S   0  0  0  0  0  0
   18.9597   22.4285   16.5366 O   0  0  0  0  0  0
   18.9882   20.3125   17.8817 O   0  0  0  0  0  0
   19.2654   20.1400   15.2637 C   0  0  0  0  0  0
   25.5779   24.5261   11.0311 Cl  0  0  0  0  0  0
   28.6602   21.0557   19.0383 C   0  0  0  0  0  0
   28.4893   21.6637   20.2523 F   0  0  0  0  0  0
   25.7412   20.2847   19.0536 H   0  0  0  0  0  0
   23.8357   23.0608   15.7469 H   0  0  0  0  0  0
   21.4230   22.8678   15.5288 H   0  0  0  0  0  0
   21.4079   19.5652   18.3131 H   0  0  0  0  0  0
   23.8321   19.6984   18.5039 H   0  0  0  0  0  0
   26.7931   24.6983   15.7246 H   0  0  0  0  0  0
   26.4512   25.6896   13.4921 H   0  0  0  0  0  0
   25.2348   21.8468   11.9661 H   0  0  0  0  0  0
   25.5782   20.8475   14.1883 H   0  0  0  0  0  0
   18.1930   20.0229   15.0941 H   0  0  0  0  0  0
   19.7300   19.1605   15.3916 H   0  0  0  0  0  0
   19.7169   20.6786   14.4286 H   0  0  0  0  0  0
   29.5864   21.4404   18.6019 H   0  0  0  0  0  0
   28.7741   19.9820   19.2141 H   0  0  0  0  0  0
  1  2  1  0  0  0
  1  5  2  0  0  0
  1  7  1  0  0  0
  2  3  1  0  0  0
  2  6  1  0  0  0
  3  4  2  0  0  0
  3 25  1  0  0  0
  4  5  1  0  0  0
  4 23  1  0  0  0
  6  8  2  0  0  0
  6 12  1  0  0  0
  7 13  2  0  0  0
  7 17  1  0  0  0
  8  9  1  0  0  0
  8 26  1  0  0  0
  9 10  2  0  0  0
  9 27  1  0  0  0
 10 11  1  0  0  0
 10 18  1  0  0  0
 11 12  2  0  0  0
 11 28  1  0  0  0
 12 29  1  0  0  0
 13 14  1  0  0  0
 13 30  1  0  0  0
 14 15  2  0  0  0
 14 31  1  0  0  0
 15 16  1  0  0  0
 15 22  1  0  0  0
 16 17  2  0  0  0
 16 32  1  0  0  0
 17 33  1  0  0  0
 18 19  2  0  0  0
 18 20  2  0  0  0
 18 21  1  0  0  0
 21 34  1  0  0  0
 21 35  1  0  0  0
 21 36  1  0  0  0
 23 24  1  0  0  0
 23 37  1  0  0  0
 23 38  1  0  0  0
M  END
>  <Name>
3-88

>  <Family>
B.1

>  <IC50_uM>
0.410000

>  <set>
2

$$$$
3-89
  Cerius2 12120216093D 1   1.00000                          
 Structure written by MMmdl.
 37 39  0  0  0  0  0  0  0  0999 V2000
   26.4084   22.1301   16.4602 C   0  0  0  0  0  0
   25.4699   21.4602   17.2566 N   0  0  0  0  0  0
   26.1986   20.8856   18.2826 C   0  0  0  0  0  0
   27.4948   21.3280   18.1537 C   0  0  0  0  0  0
   27.6065   22.1140   17.0304 N   0  0  0  0  0  0
   24.0486   21.3746   17.1207 C   0  0  0  0  0  0
   26.1811   22.7073   15.1303 C   0  0  0  0  0  0
   23.3442   22.2590   16.2907 C   0  0  0  0  0  0
   21.9517   22.1711   16.1777 C   0  0  0  0  0  0
   21.2553   21.2078   16.9090 C   0  0  0  0  0  0
   21.9401   20.3253   17.7445 C   0  0  0  0  0  0
   23.3321   20.4155   17.8568 C   0  0  0  0  0  0
   26.4407   24.0675   14.9085 C   0  0  0  0  0  0
   26.2506   24.6308   13.6430 C   0  0  0  0  0  0
   25.8127   23.8323   12.5887 C   0  0  0  0  0  0
   25.5689   22.4750   12.7878 C   0  0  0  0  0  0
   25.7592   21.9123   14.0538 C   0  0  0  0  0  0
   19.4886   21.0864   16.7470 S   0  0  0  0  0  0
   18.9624   22.4307   16.5311 O   0  0  0  0  0  0
   18.9875   20.3189   17.8828 O   0  0  0  0  0  0
   19.2658   20.1382   15.2653 C   0  0  0  0  0  0
   25.5796   24.5243   11.0301 Cl  0  0  0  0  0  0
   28.5999   21.0289   19.0524 C   0  0  0  0  0  0
   28.4984   20.3253   20.0603 O   0  0  0  0  0  0
   25.7394   20.2793   19.0508 H   0  0  0  0  0  0
   23.8375   23.0603   15.7472 H   0  0  0  0  0  0
   21.4247   22.8681   15.5289 H   0  0  0  0  0  0
   21.4078   19.5652   18.3127 H   0  0  0  0  0  0
   23.8316   19.6970   18.5036 H   0  0  0  0  0  0
   26.7900   24.6988   15.7246 H   0  0  0  0  0  0
   26.4498   25.6891   13.4917 H   0  0  0  0  0  0
   25.2354   21.8455   11.9661 H   0  0  0  0  0  0
   25.5772   20.8471   14.1887 H   0  0  0  0  0  0
   18.1932   20.0224   15.0954 H   0  0  0  0  0  0
   19.7286   19.1584   15.3965 H   0  0  0  0  0  0
   19.7190   20.6736   14.4290 H   0  0  0  0  0  0
   29.5674   21.4805   18.7750 H   0  0  0  0  0  0
  1  2  1  0  0  0
  1  5  2  0  0  0
  1  7  1  0  0  0
  2  3  1  0  0  0
  2  6  1  0  0  0
  3  4  2  0  0  0
  3 25  1  0  0  0
  4  5  1  0  0  0
  4 23  1  0  0  0
  6  8  2  0  0  0
  6 12  1  0  0  0
  7 13  2  0  0  0
  7 17  1  0  0  0
  8  9  1  0  0  0
  8 26  1  0  0  0
  9 10  2  0  0  0
  9 27  1  0  0  0
 10 11  1  0  0  0
 10 18  1  0  0  0
 11 12  2  0  0  0
 11 28  1  0  0  0
 12 29  1  0  0  0
 13 14  1  0  0  0
 13 30  1  0  0  0
 14 15  2  0  0  0
 14 31  1  0  0  0
 15 16  1  0  0  0
 15 22  1  0  0  0
 16 17  2  0  0  0
 16 32  1  0  0  0
 17 33  1  0  0  0
 18 19  2  0  0  0
 18 20  2  0  0  0
 18 21  1  0  0  0
 21 34  1  0  0  0
 21 35  1  0  0  0
 21 36  1  0  0  0
 23 24  2  0  0  0
 23 37  1  0  0  0
M  END
>  <Name>
3-89

>  <Family>
B.1

>  <IC50_uM>
1.600000

>  <set>
2

$$$$
3-90
  Cerius2 12120216093D 1   1.00000                          
 Structure written by MMmdl.
 36 38  0  0  0  0  0  0  0  0999 V2000
   26.4089   22.1310   16.4597 C   0  0  0  0  0  0
   25.4694   21.4584   17.2569 N   0  0  0  0  0  0
   26.1965   20.8836   18.2841 C   0  0  0  0  0  0
   27.4834   21.3348   18.1442 C   0  0  0  0  0  0
   27.6081   22.1183   17.0294 N   0  0  0  0  0  0
   24.0483   21.3729   17.1203 C   0  0  0  0  0  0
   26.1812   22.7075   15.1298 C   0  0  0  0  0  0
   23.3442   22.2577   16.2909 C   0  0  0  0  0  0
   21.9515   22.1703   16.1783 C   0  0  0  0  0  0
   21.2549   21.2072   16.9096 C   0  0  0  0  0  0
   21.9395   20.3242   17.7447 C   0  0  0  0  0  0
   23.3315   20.4140   17.8567 C   0  0  0  0  0  0
   26.4413   24.0677   14.9080 C   0  0  0  0  0  0
   26.2517   24.6309   13.6425 C   0  0  0  0  0  0
   25.8140   23.8324   12.5882 C   0  0  0  0  0  0
   25.5704   22.4751   12.7872 C   0  0  0  0  0  0
   25.7602   21.9122   14.0532 C   0  0  0  0  0  0
   19.4879   21.0882   16.7478 S   0  0  0  0  0  0
   18.9631   22.4323   16.5269 O   0  0  0  0  0  0
   18.9866   20.3258   17.8870 O   0  0  0  0  0  0
   19.2636   20.1354   15.2693 C   0  0  0  0  0  0
   25.5812   24.5246   11.0296 Cl  0  0  0  0  0  0
   28.5957   21.0684   19.0058 C   0  0  0  0  0  0
   29.4996   20.8509   19.7083 N   0  0  0  0  0  0
   25.7421   20.2768   19.0540 H   0  0  0  0  0  0
   23.8375   23.0591   15.7474 H   0  0  0  0  0  0
   21.4245   22.8679   15.5301 H   0  0  0  0  0  0
   21.4073   19.5641   18.3131 H   0  0  0  0  0  0
   23.8311   19.6955   18.5035 H   0  0  0  0  0  0
   26.7908   24.6990   15.7239 H   0  0  0  0  0  0
   26.4513   25.6892   13.4911 H   0  0  0  0  0  0
   25.2375   21.8456   11.9652 H   0  0  0  0  0  0
   25.5787   20.8470   14.1876 H   0  0  0  0  0  0
   18.1909   20.0194   15.1002 H   0  0  0  0  0  0
   19.7262   19.1558   15.4030 H   0  0  0  0  0  0
   19.7164   20.6682   14.4310 H   0  0  0  0  0  0
  1  2  1  0  0  0
  1  5  2  0  0  0
  1  7  1  0  0  0
  2  3  1  0  0  0
  2  6  1  0  0  0
  3  4  2  0  0  0
  3 25  1  0  0  0
  4  5  1  0  0  0
  4 23  1  0  0  0
  6  8  2  0  0  0
  6 12  1  0  0  0
  7 13  2  0  0  0
  7 17  1  0  0  0
  8  9  1  0  0  0
  8 26  1  0  0  0
  9 10  2  0  0  0
  9 27  1  0  0  0
 10 11  1  0  0  0
 10 18  1  0  0  0
 11 12  2  0  0  0
 11 28  1  0  0  0
 12 29  1  0  0  0
 13 14  1  0  0  0
 13 30  1  0  0  0
 14 15  2  0  0  0
 14 31  1  0  0  0
 15 16  1  0  0  0
 15 22  1  0  0  0
 16 17  2  0  0  0
 16 32  1  0  0  0
 17 33  1  0  0  0
 18 19  2  0  0  0
 18 20  2  0  0  0
 18 21  1  0  0  0
 21 34  1  0  0  0
 21 35  1  0  0  0
 21 36  1  0  0  0
 23 24  3  0  0  0
M  END
>  <Name>
3-90

>  <Family>
B.1

>  <IC50_uM>
0.230000

>  <set>
2

$$$$
3-91
  Cerius2 12120216093D 1   1.00000                          
 Structure written by MMmdl.
 44 46  0  0  0  0  0  0  0  0999 V2000
   26.4077   22.1296   16.4600 C   0  0  0  0  0  0
   25.4701   21.4605   17.2573 N   0  0  0  0  0  0
   26.1989   20.8851   18.2813 C   0  0  0  0  0  0
   27.4984   21.3253   18.1555 C   0  0  0  0  0  0
   27.6056   22.1134   17.0290 N   0  0  0  0  0  0
   24.0487   21.3761   17.1227 C   0  0  0  0  0  0
   26.1805   22.7068   15.1303 C   0  0  0  0  0  0
   23.3442   22.2602   16.2928 C   0  0  0  0  0  0
   21.9520   22.1717   16.1787 C   0  0  0  0  0  0
   21.2555   21.2080   16.9094 C   0  0  0  0  0  0
   21.9402   20.3267   17.7462 C   0  0  0  0  0  0
   23.3321   20.4174   17.8594 C   0  0  0  0  0  0
   26.4411   24.0670   14.9090 C   0  0  0  0  0  0
   26.2512   24.6309   13.6436 C   0  0  0  0  0  0
   25.8126   23.8331   12.5892 C   0  0  0  0  0  0
   25.5690   22.4757   12.7874 C   0  0  0  0  0  0
   25.7593   21.9123   14.0531 C   0  0  0  0  0  0
   19.4892   21.0846   16.7444 S   0  0  0  0  0  0
   18.9618   22.4282   16.5264 O   0  0  0  0  0  0
   18.9872   20.3177   17.8802 O   0  0  0  0  0  0
   19.2700   20.1349   15.2633 C   0  0  0  0  0  0
   25.5791   24.5262   11.0312 Cl  0  0  0  0  0  0
   28.6063   21.0196   19.0618 C   0  0  0  0  0  0
   28.4931   20.3140   20.0620 O   0  0  0  0  0  0
   29.7754   21.6085   18.6666 O   0  0  0  0  0  0
   32.1048   22.0641   18.9502 C   0  0  0  0  0  0
   30.8979   21.3439   19.5190 C   0  0  0  0  0  0
   25.7421   20.2784   19.0507 H   0  0  0  0  0  0
   23.8375   23.0616   15.7492 H   0  0  0  0  0  0
   21.4252   22.8681   15.5290 H   0  0  0  0  0  0
   21.4078   19.5663   18.3142 H   0  0  0  0  0  0
   23.8316   19.6994   18.5069 H   0  0  0  0  0  0
   26.7913   24.6977   15.7250 H   0  0  0  0  0  0
   26.4512   25.6891   13.4925 H   0  0  0  0  0  0
   25.2359   21.8467   11.9652 H   0  0  0  0  0  0
   25.5777   20.8469   14.1871 H   0  0  0  0  0  0
   18.1978   20.0174   15.0916 H   0  0  0  0  0  0
   19.7342   19.1559   15.3959 H   0  0  0  0  0  0
   19.7235   20.6703   14.4271 H   0  0  0  0  0  0
   32.9896   21.8919   19.5694 H   0  0  0  0  0  0
   31.9184   23.1415   18.8914 H   0  0  0  0  0  0
   32.3137   21.7211   17.9315 H   0  0  0  0  0  0
   31.0903   20.2657   19.5506 H   0  0  0  0  0  0
   30.6884   21.7124   20.5293 H   0  0  0  0  0  0
  1  2  1  0  0  0
  1  5  2  0  0  0
  1  7  1  0  0  0
  2  3  1  0  0  0
  2  6  1  0  0  0
  3  4  2  0  0  0
  3 28  1  0  0  0
  4  5  1  0  0  0
  4 23  1  0  0  0
  6  8  2  0  0  0
  6 12  1  0  0  0
  7 13  2  0  0  0
  7 17  1  0  0  0
  8  9  1  0  0  0
  8 29  1  0  0  0
  9 10  2  0  0  0
  9 30  1  0  0  0
 10 11  1  0  0  0
 10 18  1  0  0  0
 11 12  2  0  0  0
 11 31  1  0  0  0
 12 32  1  0  0  0
 13 14  1  0  0  0
 13 33  1  0  0  0
 14 15  2  0  0  0
 14 34  1  0  0  0
 15 16  1  0  0  0
 15 22  1  0  0  0
 16 17  2  0  0  0
 16 35  1  0  0  0
 17 36  1  0  0  0
 18 19  2  0  0  0
 18 20  2  0  0  0
 18 21  1  0  0  0
 21 37  1  0  0  0
 21 38  1  0  0  0
 21 39  1  0  0  0
 23 24  2  0  0  0
 23 25  1  0  0  0
 25 27  1  0  0  0
 26 27  1  0  0  0
 26 40  1  0  0  0
 26 41  1  0  0  0
 26 42  1  0  0  0
 27 43  1  0  0  0
 27 44  1  0  0  0
M  END
>  <Name>
3-91

>  <Family>
B.1

>  <IC50_uM>
5.700000

>  <set>
1

$$$$
3-92
  Cerius2 12120216093D 1   1.00000                          
 Structure written by MMmdl.
 38 40  0  0  0  0  0  0  0  0999 V2000
   26.4085   22.1300   16.4605 C   0  0  0  0  0  0
   25.4707   21.4601   17.2570 N   0  0  0  0  0  0
   26.1991   20.8849   18.2812 C   0  0  0  0  0  0
   27.4983   21.3261   18.1565 C   0  0  0  0  0  0
   27.6061   22.1147   17.0302 N   0  0  0  0  0  0
   24.0491   21.3750   17.1216 C   0  0  0  0  0  0
   26.1811   22.7069   15.1307 C   0  0  0  0  0  0
   23.3445   22.2595   16.2921 C   0  0  0  0  0  0
   21.9523   22.1712   16.1779 C   0  0  0  0  0  0
   21.2556   21.2078   16.9086 C   0  0  0  0  0  0
   21.9401   20.3256   17.7448 C   0  0  0  0  0  0
   23.3321   20.4160   17.8576 C   0  0  0  0  0  0
   26.4411   24.0669   14.9085 C   0  0  0  0  0  0
   26.2494   24.6303   13.6431 C   0  0  0  0  0  0
   25.8094   23.8320   12.5896 C   0  0  0  0  0  0
   25.5660   22.4747   12.7889 C   0  0  0  0  0  0
   25.7581   21.9119   14.0546 C   0  0  0  0  0  0
   19.4889   21.0869   16.7452 S   0  0  0  0  0  0
   18.9635   22.4308   16.5256 O   0  0  0  0  0  0
   18.9866   20.3224   17.8825 O   0  0  0  0  0  0
   19.2671   20.1352   15.2657 C   0  0  0  0  0  0
   25.5732   24.5241   11.0315 Cl  0  0  0  0  0  0
   28.6015   21.0200   19.0633 C   0  0  0  0  0  0
   28.5194   20.3197   20.0674 O   0  0  0  0  0  0
   29.7816   21.5867   18.7085 O   0  0  0  0  0  0
   25.7429   20.2773   19.0499 H   0  0  0  0  0  0
   23.8375   23.0615   15.7493 H   0  0  0  0  0  0
   21.4256   22.8682   15.5286 H   0  0  0  0  0  0
   21.4077   19.5655   18.3128 H   0  0  0  0  0  0
   23.8315   19.6977   18.5049 H   0  0  0  0  0  0
   26.7921   24.6980   15.7240 H   0  0  0  0  0  0
   26.4491   25.6885   13.4914 H   0  0  0  0  0  0
   25.2314   21.8454   11.9677 H   0  0  0  0  0  0
   25.5765   20.8468   14.1895 H   0  0  0  0  0  0
   18.1947   20.0193   15.0952 H   0  0  0  0  0  0
   19.7298   19.1557   15.3992 H   0  0  0  0  0  0
   19.7208   20.6687   14.4283 H   0  0  0  0  0  0
   30.4144   21.2924   19.4042 H   0  0  0  0  0  0
  1  2  1  0  0  0
  1  5  2  0  0  0
  1  7  1  0  0  0
  2  3  1  0  0  0
  2  6  1  0  0  0
  3  4  2  0  0  0
  3 26  1  0  0  0
  4  5  1  0  0  0
  4 23  1  0  0  0
  6  8  2  0  0  0
  6 12  1  0  0  0
  7 13  2  0  0  0
  7 17  1  0  0  0
  8  9  1  0  0  0
  8 27  1  0  0  0
  9 10  2  0  0  0
  9 28  1  0  0  0
 10 11  1  0  0  0
 10 18  1  0  0  0
 11 12  2  0  0  0
 11 29  1  0  0  0
 12 30  1  0  0  0
 13 14  1  0  0  0
 13 31  1  0  0  0
 14 15  2  0  0  0
 14 32  1  0  0  0
 15 16  1  0  0  0
 15 22  1  0  0  0
 16 17  2  0  0  0
 16 33  1  0  0  0
 17 34  1  0  0  0
 18 19  2  0  0  0
 18 20  2  0  0  0
 18 21  1  0  0  0
 21 35  1  0  0  0
 21 36  1  0  0  0
 21 37  1  0  0  0
 23 24  2  0  0  0
 23 25  1  0  0  0
 25 38  1  0  0  0
M  END
>  <Name>
3-92

>  <Family>
B.1

>  <IC50_uM>
>100

>  <set>
1

$$$$
3-94
  Cerius2 12120216093D 1   1.00000                          
 Structure written by MMmdl.
 52 54  0  0  0  0  0  0  0  0999 V2000
   26.4083   22.1281   16.4590 C   0  0  0  0  0  0
   25.4695   21.4620   17.2571 N   0  0  0  0  0  0
   26.1969   20.8909   18.2847 C   0  0  0  0  0  0
   27.4982   21.3261   18.1565 C   0  0  0  0  0  0
   27.6069   22.1089   17.0265 N   0  0  0  0  0  0
   24.0486   21.3763   17.1212 C   0  0  0  0  0  0
   26.1816   22.7064   15.1302 C   0  0  0  0  0  0
   23.3438   22.2601   16.2910 C   0  0  0  0  0  0
   21.9514   22.1712   16.1772 C   0  0  0  0  0  0
   21.2554   21.2077   16.9083 C   0  0  0  0  0  0
   21.9404   20.3258   17.7443 C   0  0  0  0  0  0
   23.3323   20.4168   17.8571 C   0  0  0  0  0  0
   26.4427   24.0666   14.9106 C   0  0  0  0  0  0
   26.2518   24.6320   13.6461 C   0  0  0  0  0  0
   25.8131   23.8351   12.5909 C   0  0  0  0  0  0
   25.5690   22.4776   12.7880 C   0  0  0  0  0  0
   25.7590   21.9128   14.0530 C   0  0  0  0  0  0
   19.4888   21.0832   16.7473 S   0  0  0  0  0  0
   18.9604   22.4280   16.5404 O   0  0  0  0  0  0
   18.9894   20.3078   17.8786 O   0  0  0  0  0  0
   19.2674   20.1430   15.2605 C   0  0  0  0  0  0
   25.5791   24.5299   11.0337 Cl  0  0  0  0  0  0
   28.6072   21.0222   19.0631 C   0  0  0  0  0  0
   28.4813   20.3289   20.0743 O   0  0  0  0  0  0
   29.7835   21.6072   18.6331 O   0  0  0  0  0  0
   30.9112   21.3175   19.5355 N   0  0  0  0  0  0
   31.8543   23.6213   18.9721 C   0  0  0  0  0  0
   31.3702   22.6281   20.0247 C   0  0  0  0  0  0
   33.1314   20.1874   19.4692 C   0  0  0  0  0  0
   31.8789   20.5912   18.7020 C   0  0  0  0  0  0
   25.7386   20.2892   19.0570 H   0  0  0  0  0  0
   23.8363   23.0620   15.7477 H   0  0  0  0  0  0
   21.4245   22.8680   15.5280 H   0  0  0  0  0  0
   21.4081   19.5655   18.3124 H   0  0  0  0  0  0
   23.8321   19.6985   18.5041 H   0  0  0  0  0  0
   26.7931   24.6962   15.7273 H   0  0  0  0  0  0
   26.4509   25.6904   13.4965 H   0  0  0  0  0  0
   25.2350   21.8496   11.9653 H   0  0  0  0  0  0
   25.5760   20.8477   14.1866 H   0  0  0  0  0  0
   18.1950   20.0255   15.0903 H   0  0  0  0  0  0
   19.7331   19.1638   15.3858 H   0  0  0  0  0  0
   19.7186   20.6844   14.4269 H   0  0  0  0  0  0
   32.0941   24.5774   19.4496 H   0  0  0  0  0  0
   31.0887   23.8136   18.2140 H   0  0  0  0  0  0
   32.7612   23.2706   18.4707 H   0  0  0  0  0  0
   32.1636   22.4781   20.7659 H   0  0  0  0  0  0
   30.5436   23.0887   20.5806 H   0  0  0  0  0  0
   33.7625   19.5485   18.8428 H   0  0  0  0  0  0
   32.8768   19.6234   20.3729 H   0  0  0  0  0  0
   33.7283   21.0571   19.7599 H   0  0  0  0  0  0
   32.1561   21.1584   17.8059 H   0  0  0  0  0  0
   31.3993   19.6698   18.3486 H   0  0  0  0  0  0
  1  2  1  0  0  0
  1  5  2  0  0  0
  1  7  1  0  0  0
  2  3  1  0  0  0
  2  6  1  0  0  0
  3  4  2  0  0  0
  3 31  1  0  0  0
  4  5  1  0  0  0
  4 23  1  0  0  0
  6  8  2  0  0  0
  6 12  1  0  0  0
  7 13  2  0  0  0
  7 17  1  0  0  0
  8  9  1  0  0  0
  8 32  1  0  0  0
  9 10  2  0  0  0
  9 33  1  0  0  0
 10 11  1  0  0  0
 10 18  1  0  0  0
 11 12  2  0  0  0
 11 34  1  0  0  0
 12 35  1  0  0  0
 13 14  1  0  0  0
 13 36  1  0  0  0
 14 15  2  0  0  0
 14 37  1  0  0  0
 15 16  1  0  0  0
 15 22  1  0  0  0
 16 17  2  0  0  0
 16 38  1  0  0  0
 17 39  1  0  0  0
 18 19  2  0  0  0
 18 20  2  0  0  0
 18 21  1  0  0  0
 21 40  1  0  0  0
 21 41  1  0  0  0
 21 42  1  0  0  0
 23 24  2  0  0  0
 23 25  1  0  0  0
 25 26  1  0  0  0
 26 28  1  0  0  0
 26 30  1  0  0  0
 27 28  1  0  0  0
 27 43  1  0  0  0
 27 44  1  0  0  0
 27 45  1  0  0  0
 28 46  1  0  0  0
 28 47  1  0  0  0
 29 30  1  0  0  0
 29 48  1  0  0  0
 29 49  1  0  0  0
 29 50  1  0  0  0
 30 51  1  0  0  0
 30 52  1  0  0  0
M  END
>  <Name>
3-94

>  <Family>
B.1

>  <IC50_uM>
>100

>  <set>
2

$$$$
3-95
  Cerius2 12120216093D 1   1.00000                          
 Structure written by MMmdl.
 40 42  0  0  0  0  0  0  0  0999 V2000
   26.4093   22.1308   16.4612 C   0  0  0  0  0  0
   25.4700   21.4610   17.2567 N   0  0  0  0  0  0
   26.1992   20.8844   18.2799 C   0  0  0  0  0  0
   27.4945   21.3340   18.1562 C   0  0  0  0  0  0
   27.6071   22.1137   17.0322 N   0  0  0  0  0  0
   24.0486   21.3755   17.1206 C   0  0  0  0  0  0
   26.1822   22.7072   15.1307 C   0  0  0  0  0  0
   23.3436   22.2595   16.2908 C   0  0  0  0  0  0
   21.9512   22.1711   16.1773 C   0  0  0  0  0  0
   21.2550   21.2077   16.9086 C   0  0  0  0  0  0
   21.9400   20.3254   17.7442 C   0  0  0  0  0  0
   23.3320   20.4161   17.8566 C   0  0  0  0  0  0
   26.4418   24.0674   14.9074 C   0  0  0  0  0  0
   26.2492   24.6302   13.6420 C   0  0  0  0  0  0
   25.8086   23.8313   12.5892 C   0  0  0  0  0  0
   25.5653   22.4742   12.7892 C   0  0  0  0  0  0
   25.7583   21.9119   14.0549 C   0  0  0  0  0  0
   19.4882   21.0864   16.7470 S   0  0  0  0  0  0
   18.9621   22.4305   16.5293 O   0  0  0  0  0  0
   18.9875   20.3207   17.8842 O   0  0  0  0  0  0
   19.2649   20.1361   15.2667 C   0  0  0  0  0  0
   25.5717   24.5229   11.0309 Cl  0  0  0  0  0  0
   28.6653   21.0621   19.0440 C   0  0  0  0  0  0
   28.5901   21.9314   20.2223 N   0  0  0  0  0  0
   25.7436   20.2757   19.0482 H   0  0  0  0  0  0
   23.8368   23.0610   15.7476 H   0  0  0  0  0  0
   21.4240   22.8680   15.5285 H   0  0  0  0  0  0
   21.4081   19.5649   18.3122 H   0  0  0  0  0  0
   23.8321   19.6982   18.5037 H   0  0  0  0  0  0
   26.7931   24.6984   15.7228 H   0  0  0  0  0  0
   26.4483   25.6884   13.4898 H   0  0  0  0  0  0
   25.2298   21.8444   11.9684 H   0  0  0  0  0  0
   25.5766   20.8469   14.1907 H   0  0  0  0  0  0
   18.1923   20.0198   15.0973 H   0  0  0  0  0  0
   19.7280   19.1566   15.3990 H   0  0  0  0  0  0
   19.7175   20.6704   14.4293 H   0  0  0  0  0  0
   29.5976   21.2606   18.5052 H   0  0  0  0  0  0
   28.6718   20.0112   19.3528 H   0  0  0  0  0  0
   29.3699   21.6738   20.8363 H   0  0  0  0  0  0
   27.7634   21.6493   20.7589 H   0  0  0  0  0  0
  1  2  1  0  0  0
  1  5  2  0  0  0
  1  7  1  0  0  0
  2  3  1  0  0  0
  2  6  1  0  0  0
  3  4  2  0  0  0
  3 25  1  0  0  0
  4  5  1  0  0  0
  4 23  1  0  0  0
  6  8  2  0  0  0
  6 12  1  0  0  0
  7 13  2  0  0  0
  7 17  1  0  0  0
  8  9  1  0  0  0
  8 26  1  0  0  0
  9 10  2  0  0  0
  9 27  1  0  0  0
 10 11  1  0  0  0
 10 18  1  0  0  0
 11 12  2  0  0  0
 11 28  1  0  0  0
 12 29  1  0  0  0
 13 14  1  0  0  0
 13 30  1  0  0  0
 14 15  2  0  0  0
 14 31  1  0  0  0
 15 16  1  0  0  0
 15 22  1  0  0  0
 16 17  2  0  0  0
 16 32  1  0  0  0
 17 33  1  0  0  0
 18 19  2  0  0  0
 18 20  2  0  0  0
 18 21  1  0  0  0
 21 34  1  0  0  0
 21 35  1  0  0  0
 21 36  1  0  0  0
 23 24  1  0  0  0
 23 37  1  0  0  0
 23 38  1  0  0  0
 24 39  1  0  0  0
 24 40  1  0  0  0
M  END
>  <Name>
3-95

>  <Family>
B.1

>  <IC50_uM>
>100

>  <set>
1

$$$$
3-96
  Cerius2 12120216093D 1   1.00000                          
 Structure written by MMmdl.
 45 48  0  0  0  0  0  0  0  0999 V2000
   26.4077   22.1288   16.4596 C   0  0  0  0  0  0
   25.4703   21.4610   17.2568 N   0  0  0  0  0  0
   26.2001   20.8882   18.2847 C   0  0  0  0  0  0
   27.4945   21.3292   18.1504 C   0  0  0  0  0  0
   27.6049   22.1105   17.0298 N   0  0  0  0  0  0
   24.0489   21.3755   17.1213 C   0  0  0  0  0  0
   26.1808   22.7064   15.1300 C   0  0  0  0  0  0
   23.3449   22.2596   16.2907 C   0  0  0  0  0  0
   21.9526   22.1718   16.1769 C   0  0  0  0  0  0
   21.2561   21.2086   16.9080 C   0  0  0  0  0  0
   21.9406   20.3261   17.7441 C   0  0  0  0  0  0
   23.3325   20.4164   17.8573 C   0  0  0  0  0  0
   26.4412   24.0668   14.9091 C   0  0  0  0  0  0
   26.2501   24.6316   13.6444 C   0  0  0  0  0  0
   25.8102   23.8345   12.5899 C   0  0  0  0  0  0
   25.5662   22.4771   12.7878 C   0  0  0  0  0  0
   25.7578   21.9127   14.0528 C   0  0  0  0  0  0
   19.4895   21.0850   16.7462 S   0  0  0  0  0  0
   18.9620   22.4296   16.5363 O   0  0  0  0  0  0
   18.9891   20.3120   17.8788 O   0  0  0  0  0  0
   19.2682   20.1418   15.2611 C   0  0  0  0  0  0
   25.5749   24.5286   11.0326 Cl  0  0  0  0  0  0
   28.6144   21.0417   19.0374 C   0  0  0  0  0  0
   28.4806   20.2230   20.1688 C   0  0  0  0  0  0
   29.5763   19.9668   21.0000 C   0  0  0  0  0  0
   30.8196   20.5244   20.7118 C   0  0  0  0  0  0
   30.9701   21.3388   19.5928 C   0  0  0  0  0  0
   29.8750   21.5949   18.7621 C   0  0  0  0  0  0
   25.7288   20.2866   19.0479 H   0  0  0  0  0  0
   23.8392   23.0605   15.7472 H   0  0  0  0  0  0
   21.4263   22.8688   15.5278 H   0  0  0  0  0  0
   21.4078   19.5657   18.3115 H   0  0  0  0  0  0
   23.8323   19.6978   18.5039 H   0  0  0  0  0  0
   26.7922   24.6966   15.7256 H   0  0  0  0  0  0
   26.4501   25.6898   13.4940 H   0  0  0  0  0  0
   25.2313   21.8486   11.9657 H   0  0  0  0  0  0
   25.5758   20.8475   14.1867 H   0  0  0  0  0  0
   18.1959   20.0218   15.0928 H   0  0  0  0  0  0
   19.7360   19.1638   15.3876 H   0  0  0  0  0  0
   19.7171   20.6826   14.4260 H   0  0  0  0  0  0
   27.5261   19.7686   20.4265 H   0  0  0  0  0  0
   29.4559   19.3293   21.8745 H   0  0  0  0  0  0
   31.6712   20.3238   21.3596 H   0  0  0  0  0  0
   31.9399   21.7768   19.3633 H   0  0  0  0  0  0
   30.0168   22.2353   17.8919 H   0  0  0  0  0  0
  1  2  1  0  0  0
  1  5  2  0  0  0
  1  7  1  0  0  0
  2  3  1  0  0  0
  2  6  1  0  0  0
  3  4  2  0  0  0
  3 29  1  0  0  0
  4  5  1  0  0  0
  4 23  1  0  0  0
  6  8  2  0  0  0
  6 12  1  0  0  0
  7 13  2  0  0  0
  7 17  1  0  0  0
  8  9  1  0  0  0
  8 30  1  0  0  0
  9 10  2  0  0  0
  9 31  1  0  0  0
 10 11  1  0  0  0
 10 18  1  0  0  0
 11 12  2  0  0  0
 11 32  1  0  0  0
 12 33  1  0  0  0
 13 14  1  0  0  0
 13 34  1  0  0  0
 14 15  2  0  0  0
 14 35  1  0  0  0
 15 16  1  0  0  0
 15 22  1  0  0  0
 16 17  2  0  0  0
 16 36  1  0  0  0
 17 37  1  0  0  0
 18 19  2  0  0  0
 18 20  2  0  0  0
 18 21  1  0  0  0
 21 38  1  0  0  0
 21 39  1  0  0  0
 21 40  1  0  0  0
 23 24  2  0  0  0
 23 28  1  0  0  0
 24 25  1  0  0  0
 24 41  1  0  0  0
 25 26  2  0  0  0
 25 42  1  0  0  0
 26 27  1  0  0  0
 26 43  1  0  0  0
 27 28  2  0  0  0
 27 44  1  0  0  0
 28 45  1  0  0  0
M  END
>  <Name>
3-96

>  <Family>
B.1

>  <IC50_uM>
0.240000

>  <set>
0

$$$$
3-97
  Cerius2 12120216093D 1   1.00000                          
 Structure written by MMmdl.
 49 52  0  0  0  0  0  0  0  0999 V2000
   26.4095   22.1285   16.4601 C   0  0  0  0  0  0
   25.4695   21.4636   17.2589 N   0  0  0  0  0  0
   26.1987   20.8906   18.2851 C   0  0  0  0  0  0
   27.4972   21.3240   18.1496 C   0  0  0  0  0  0
   27.6097   22.1036   17.0262 N   0  0  0  0  0  0
   24.0483   21.3783   17.1228 C   0  0  0  0  0  0
   26.1812   22.7072   15.1308 C   0  0  0  0  0  0
   23.3441   22.2610   16.2910 C   0  0  0  0  0  0
   21.9517   22.1718   16.1760 C   0  0  0  0  0  0
   21.2556   21.2079   16.9068 C   0  0  0  0  0  0
   21.9404   20.3266   17.7438 C   0  0  0  0  0  0
   23.3321   20.4188   17.8587 C   0  0  0  0  0  0
   26.4409   24.0676   14.9093 C   0  0  0  0  0  0
   26.2486   24.6319   13.6444 C   0  0  0  0  0  0
   25.8079   23.8343   12.5903 C   0  0  0  0  0  0
   25.5643   22.4770   12.7889 C   0  0  0  0  0  0
   25.7567   21.9133   14.0542 C   0  0  0  0  0  0
   19.4890   21.0820   16.7446 S   0  0  0  0  0  0
   18.9603   22.4265   16.5380 O   0  0  0  0  0  0
   18.9888   20.3057   17.8750 O   0  0  0  0  0  0
   19.2694   20.1416   15.2574 C   0  0  0  0  0  0
   25.5707   24.5271   11.0328 Cl  0  0  0  0  0  0
   28.6741   21.0474   19.0326 C   0  0  0  0  0  0
   28.8155   22.0829   20.0158 O   0  0  0  0  0  0
   29.8800   21.9873   20.8690 C   0  0  0  0  0  0
   30.8053   20.9426   20.9156 C   0  0  0  0  0  0
   31.8538   20.9718   21.8433 C   0  0  0  0  0  0
   31.9765   22.0438   22.7245 C   0  0  0  0  0  0
   31.0573   23.0882   22.6879 C   0  0  0  0  0  0
   30.0112   23.0564   21.7614 C   0  0  0  0  0  0
   33.2678   22.0758   23.8613 Cl  0  0  0  0  0  0
   25.7402   20.2898   19.0583 H   0  0  0  0  0  0
   23.8374   23.0622   15.7472 H   0  0  0  0  0  0
   21.4252   22.8681   15.5263 H   0  0  0  0  0  0
   21.4080   19.5660   18.3112 H   0  0  0  0  0  0
   23.8325   19.7021   18.5068 H   0  0  0  0  0  0
   26.7924   24.6980   15.7253 H   0  0  0  0  0  0
   26.4481   25.6902   13.4931 H   0  0  0  0  0  0
   25.2288   21.8482   11.9675 H   0  0  0  0  0  0
   25.5745   20.8483   14.1887 H   0  0  0  0  0  0
   18.1973   20.0240   15.0863 H   0  0  0  0  0  0
   19.7349   19.1622   15.3834 H   0  0  0  0  0  0
   19.7215   20.6830   14.4243 H   0  0  0  0  0  0
   29.5738   21.0013   18.4066 H   0  0  0  0  0  0
   28.5247   20.0810   19.5297 H   0  0  0  0  0  0
   30.7462   20.0863   20.2493 H   0  0  0  0  0  0
   32.5684   20.1518   21.8685 H   0  0  0  0  0  0
   31.1444   23.9290   23.3720 H   0  0  0  0  0  0
   29.2953   23.8765   21.7378 H   0  0  0  0  0  0
  1  2  1  0  0  0
  1  5  2  0  0  0
  1  7  1  0  0  0
  2  3  1  0  0  0
  2  6  1  0  0  0
  3  4  2  0  0  0
  3 32  1  0  0  0
  4  5  1  0  0  0
  4 23  1  0  0  0
  6  8  2  0  0  0
  6 12  1  0  0  0
  7 13  2  0  0  0
  7 17  1  0  0  0
  8  9  1  0  0  0
  8 33  1  0  0  0
  9 10  2  0  0  0
  9 34  1  0  0  0
 10 11  1  0  0  0
 10 18  1  0  0  0
 11 12  2  0  0  0
 11 35  1  0  0  0
 12 36  1  0  0  0
 13 14  1  0  0  0
 13 37  1  0  0  0
 14 15  2  0  0  0
 14 38  1  0  0  0
 15 16  1  0  0  0
 15 22  1  0  0  0
 16 17  2  0  0  0
 16 39  1  0  0  0
 17 40  1  0  0  0
 18 19  2  0  0  0
 18 20  2  0  0  0
 18 21  1  0  0  0
 21 41  1  0  0  0
 21 42  1  0  0  0
 21 43  1  0  0  0
 23 24  1  0  0  0
 23 44  1  0  0  0
 23 45  1  0  0  0
 24 25  1  0  0  0
 25 26  2  0  0  0
 25 30  1  0  0  0
 26 27  1  0  0  0
 26 46  1  0  0  0
 27 28  2  0  0  0
 27 47  1  0  0  0
 28 29  1  0  0  0
 28 31  1  0  0  0
 29 30  2  0  0  0
 29 48  1  0  0  0
 30 49  1  0  0  0
M  END
>  <Name>
3-97

>  <Family>
B.1

>  <IC50_uM>
0.030000

>  <set>
2

$$$$
3-98
  Cerius2 12120216093D 1   1.00000                          
 Structure written by MMmdl.
 49 52  0  0  0  0  0  0  0  0999 V2000
   26.4086   22.1305   16.4610 C   0  0  0  0  0  0
   25.4696   21.4611   17.2569 N   0  0  0  0  0  0
   26.1996   20.8847   18.2804 C   0  0  0  0  0  0
   27.4945   21.3340   18.1556 C   0  0  0  0  0  0
   27.6066   22.1129   17.0315 N   0  0  0  0  0  0
   24.0485   21.3758   17.1211 C   0  0  0  0  0  0
   26.1815   22.7070   15.1307 C   0  0  0  0  0  0
   23.3443   22.2600   16.2908 C   0  0  0  0  0  0
   21.9520   22.1722   16.1769 C   0  0  0  0  0  0
   21.2557   21.2088   16.9079 C   0  0  0  0  0  0
   21.9401   20.3265   17.7440 C   0  0  0  0  0  0
   23.3319   20.4169   17.8574 C   0  0  0  0  0  0
   26.4412   24.0671   14.9082 C   0  0  0  0  0  0
   26.2493   24.6302   13.6428 C   0  0  0  0  0  0
   25.8098   23.8315   12.5892 C   0  0  0  0  0  0
   25.5662   22.4743   12.7888 C   0  0  0  0  0  0
   25.7581   21.9118   14.0546 C   0  0  0  0  0  0
   19.4892   21.0849   16.7468 S   0  0  0  0  0  0
   18.9615   22.4297   16.5377 O   0  0  0  0  0  0
   18.9890   20.3114   17.8787 O   0  0  0  0  0  0
   19.2680   20.1426   15.2610 C   0  0  0  0  0  0
   25.5747   24.5233   11.0309 Cl  0  0  0  0  0  0
   28.6682   21.0607   19.0370 C   0  0  0  0  0  0
   28.7965   22.3392   20.3433 S   0  0  0  0  0  0
   30.3619   21.8867   21.0686 C   0  0  0  0  0  0
   30.9283   22.6183   22.1183 C   0  0  0  0  0  0
   32.1656   22.2458   22.6536 C   0  0  0  0  0  0
   32.8439   21.1460   22.1333 C   0  0  0  0  0  0
   32.2966   20.4183   21.0793 C   0  0  0  0  0  0
   31.0594   20.7919   20.5453 C   0  0  0  0  0  0
   34.3669   20.6887   22.7909 Cl  0  0  0  0  0  0
   25.7434   20.2754   19.0479 H   0  0  0  0  0  0
   23.8382   23.0612   15.7476 H   0  0  0  0  0  0
   21.4257   22.8695   15.5280 H   0  0  0  0  0  0
   21.4074   19.5663   18.3119 H   0  0  0  0  0  0
   23.8317   19.6991   18.5049 H   0  0  0  0  0  0
   26.7919   24.6979   15.7240 H   0  0  0  0  0  0
   26.4485   25.6884   13.4910 H   0  0  0  0  0  0
   25.2312   21.8448   11.9677 H   0  0  0  0  0  0
   25.5760   20.8468   14.1902 H   0  0  0  0  0  0
   18.1958   20.0266   15.0901 H   0  0  0  0  0  0
   19.7319   19.1628   15.3887 H   0  0  0  0  0  0
   19.7211   20.6816   14.4269 H   0  0  0  0  0  0
   29.5858   21.0625   18.4391 H   0  0  0  0  0  0
   28.5603   20.0726   19.4958 H   0  0  0  0  0  0
   30.4253   23.4920   22.5278 H   0  0  0  0  0  0
   32.5915   22.8233   23.4710 H   0  0  0  0  0  0
   32.8230   19.5617   20.6646 H   0  0  0  0  0  0
   30.6473   20.2141   19.7194 H   0  0  0  0  0  0
  1  2  1  0  0  0
  1  5  2  0  0  0
  1  7  1  0  0  0
  2  3  1  0  0  0
  2  6  1  0  0  0
  3  4  2  0  0  0
  3 32  1  0  0  0
  4  5  1  0  0  0
  4 23  1  0  0  0
  6  8  2  0  0  0
  6 12  1  0  0  0
  7 13  2  0  0  0
  7 17  1  0  0  0
  8  9  1  0  0  0
  8 33  1  0  0  0
  9 10  2  0  0  0
  9 34  1  0  0  0
 10 11  1  0  0  0
 10 18  1  0  0  0
 11 12  2  0  0  0
 11 35  1  0  0  0
 12 36  1  0  0  0
 13 14  1  0  0  0
 13 37  1  0  0  0
 14 15  2  0  0  0
 14 38  1  0  0  0
 15 16  1  0  0  0
 15 22  1  0  0  0
 16 17  2  0  0  0
 16 39  1  0  0  0
 17 40  1  0  0  0
 18 19  2  0  0  0
 18 20  2  0  0  0
 18 21  1  0  0  0
 21 41  1  0  0  0
 21 42  1  0  0  0
 21 43  1  0  0  0
 23 24  1  0  0  0
 23 44  1  0  0  0
 23 45  1  0  0  0
 24 25  1  0  0  0
 25 26  2  0  0  0
 25 30  1  0  0  0
 26 27  1  0  0  0
 26 46  1  0  0  0
 27 28  2  0  0  0
 27 47  1  0  0  0
 28 29  1  0  0  0
 28 31  1  0  0  0
 29 30  2  0  0  0
 29 48  1  0  0  0
 30 49  1  0  0  0
M  END
>  <Name>
3-98

>  <Family>
B.1

>  <IC50_uM>
0.050000

>  <set>
1

$$$$
3-99
  Cerius2 12120216093D 1   1.00000                          
 Structure written by MMmdl.
 42 44  0  0  0  0  0  0  0  0999 V2000
   26.4090   22.1296   16.4601 C   0  0  0  0  0  0
   25.4692   21.4608   17.2561 N   0  0  0  0  0  0
   26.1985   20.8871   18.2817 C   0  0  0  0  0  0
   27.4943   21.3306   18.1527 C   0  0  0  0  0  0
   27.6068   22.1125   17.0314 N   0  0  0  0  0  0
   24.0480   21.3753   17.1202 C   0  0  0  0  0  0
   26.1826   22.7069   15.1301 C   0  0  0  0  0  0
   23.3432   22.2595   16.2904 C   0  0  0  0  0  0
   21.9508   22.1714   16.1773 C   0  0  0  0  0  0
   21.2547   21.2081   16.9087 C   0  0  0  0  0  0
   21.9397   20.3258   17.7443 C   0  0  0  0  0  0
   23.3316   20.4162   17.8566 C   0  0  0  0  0  0
   26.4427   24.0672   14.9084 C   0  0  0  0  0  0
   26.2514   24.6312   13.6433 C   0  0  0  0  0  0
   25.8116   23.8335   12.5892 C   0  0  0  0  0  0
   25.5679   22.4761   12.7879 C   0  0  0  0  0  0
   25.7596   21.9126   14.0534 C   0  0  0  0  0  0
   19.4878   21.0845   16.7488 S   0  0  0  0  0  0
   18.9599   22.4298   16.5433 O   0  0  0  0  0  0
   18.9889   20.3084   17.8798 O   0  0  0  0  0  0
   19.2646   20.1453   15.2615 C   0  0  0  0  0  0
   25.5760   24.5266   11.0316 Cl  0  0  0  0  0  0
   28.6641   21.0651   19.0423 C   0  0  0  0  0  0
   28.7552   22.0629   20.0726 O   0  0  0  0  0  0
   29.8760   21.8147   20.9189 C   0  0  0  0  0  0
   25.7413   20.2835   19.0531 H   0  0  0  0  0  0
   23.8365   23.0607   15.7468 H   0  0  0  0  0  0
   21.4239   22.8686   15.5285 H   0  0  0  0  0  0
   21.4074   19.5654   18.3124 H   0  0  0  0  0  0
   23.8320   19.6983   18.5036 H   0  0  0  0  0  0
   26.7932   24.6978   15.7245 H   0  0  0  0  0  0
   26.4508   25.6895   13.4923 H   0  0  0  0  0  0
   25.2330   21.8472   11.9662 H   0  0  0  0  0  0
   25.5775   20.8475   14.1879 H   0  0  0  0  0  0
   18.1922   20.0273   15.0930 H   0  0  0  0  0  0
   19.7311   19.1662   15.3856 H   0  0  0  0  0  0
   19.7142   20.6874   14.4276 H   0  0  0  0  0  0
   29.5849   21.0753   18.4473 H   0  0  0  0  0  0
   28.5577   20.0758   19.5032 H   0  0  0  0  0  0
   29.9052   22.5942   21.6848 H   0  0  0  0  0  0
   30.8058   21.8541   20.3435 H   0  0  0  0  0  0
   29.7753   20.8430   21.4117 H   0  0  0  0  0  0
  1  2  1  0  0  0
  1  5  2  0  0  0
  1  7  1  0  0  0
  2  3  1  0  0  0
  2  6  1  0  0  0
  3  4  2  0  0  0
  3 26  1  0  0  0
  4  5  1  0  0  0
  4 23  1  0  0  0
  6  8  2  0  0  0
  6 12  1  0  0  0
  7 13  2  0  0  0
  7 17  1  0  0  0
  8  9  1  0  0  0
  8 27  1  0  0  0
  9 10  2  0  0  0
  9 28  1  0  0  0
 10 11  1  0  0  0
 10 18  1  0  0  0
 11 12  2  0  0  0
 11 29  1  0  0  0
 12 30  1  0  0  0
 13 14  1  0  0  0
 13 31  1  0  0  0
 14 15  2  0  0  0
 14 32  1  0  0  0
 15 16  1  0  0  0
 15 22  1  0  0  0
 16 17  2  0  0  0
 16 33  1  0  0  0
 17 34  1  0  0  0
 18 19  2  0  0  0
 18 20  2  0  0  0
 18 21  1  0  0  0
 21 35  1  0  0  0
 21 36  1  0  0  0
 21 37  1  0  0  0
 23 24  1  0  0  0
 23 38  1  0  0  0
 23 39  1  0  0  0
 24 25  1  0  0  0
 25 40  1  0  0  0
 25 41  1  0  0  0
 25 42  1  0  0  0
M  END
>  <Name>
3-99

>  <Family>
B.1

>  <IC50_uM>
3.720000

>  <set>
1

$$$$
3-100
  Cerius2 12120216093D 1   1.00000                          
 Structure written by MMmdl.
 39 41  0  0  0  0  0  0  0  0999 V2000
   26.4090   22.1297   16.4602 C   0  0  0  0  0  0
   25.4695   21.4612   17.2567 N   0  0  0  0  0  0
   26.1989   20.8871   18.2817 C   0  0  0  0  0  0
   27.4952   21.3291   18.1519 C   0  0  0  0  0  0
   27.6074   22.1111   17.0305 N   0  0  0  0  0  0
   24.0481   21.3759   17.1212 C   0  0  0  0  0  0
   26.1821   22.7072   15.1303 C   0  0  0  0  0  0
   23.3433   22.2598   16.2912 C   0  0  0  0  0  0
   21.9509   22.1714   16.1776 C   0  0  0  0  0  0
   21.2548   21.2080   16.9088 C   0  0  0  0  0  0
   21.9398   20.3260   17.7449 C   0  0  0  0  0  0
   23.3316   20.4168   17.8576 C   0  0  0  0  0  0
   26.4420   24.0674   14.9083 C   0  0  0  0  0  0
   26.2505   24.6312   13.6432 C   0  0  0  0  0  0
   25.8108   23.8330   12.5894 C   0  0  0  0  0  0
   25.5670   22.4757   12.7883 C   0  0  0  0  0  0
   25.7589   21.9126   14.0538 C   0  0  0  0  0  0
   19.4882   21.0843   16.7467 S   0  0  0  0  0  0
   18.9604   22.4290   16.5370 O   0  0  0  0  0  0
   18.9880   20.3112   17.8792 O   0  0  0  0  0  0
   19.2670   20.1415   15.2615 C   0  0  0  0  0  0
   25.5753   24.5258   11.0314 Cl  0  0  0  0  0  0
   28.6634   21.0606   19.0384 C   0  0  0  0  0  0
   28.7687   22.0474   20.0696 O   0  0  0  0  0  0
   25.7422   20.2839   19.0537 H   0  0  0  0  0  0
   23.8365   23.0612   15.7477 H   0  0  0  0  0  0
   21.4241   22.8683   15.5286 H   0  0  0  0  0  0
   21.4074   19.5656   18.3128 H   0  0  0  0  0  0
   23.8319   19.6990   18.5048 H   0  0  0  0  0  0
   26.7926   24.6980   15.7243 H   0  0  0  0  0  0
   26.4500   25.6894   13.4918 H   0  0  0  0  0  0
   25.2321   21.8466   11.9668 H   0  0  0  0  0  0
   25.5767   20.8475   14.1889 H   0  0  0  0  0  0
   18.1947   20.0225   15.0922 H   0  0  0  0  0  0
   19.7336   19.1629   15.3880 H   0  0  0  0  0  0
   19.7172   20.6819   14.4268 H   0  0  0  0  0  0
   29.5906   21.0732   18.4561 H   0  0  0  0  0  0
   28.5627   20.0777   19.5103 H   0  0  0  0  0  0
   29.5641   21.7867   20.5795 H   0  0  0  0  0  0
  1  2  1  0  0  0
  1  5  2  0  0  0
  1  7  1  0  0  0
  2  3  1  0  0  0
  2  6  1  0  0  0
  3  4  2  0  0  0
  3 25  1  0  0  0
  4  5  1  0  0  0
  4 23  1  0  0  0
  6  8  2  0  0  0
  6 12  1  0  0  0
  7 13  2  0  0  0
  7 17  1  0  0  0
  8  9  1  0  0  0
  8 26  1  0  0  0
  9 10  2  0  0  0
  9 27  1  0  0  0
 10 11  1  0  0  0
 10 18  1  0  0  0
 11 12  2  0  0  0
 11 28  1  0  0  0
 12 29  1  0  0  0
 13 14  1  0  0  0
 13 30  1  0  0  0
 14 15  2  0  0  0
 14 31  1  0  0  0
 15 16  1  0  0  0
 15 22  1  0  0  0
 16 17  2  0  0  0
 16 32  1  0  0  0
 17 33  1  0  0  0
 18 19  2  0  0  0
 18 20  2  0  0  0
 18 21  1  0  0  0
 21 34  1  0  0  0
 21 35  1  0  0  0
 21 36  1  0  0  0
 23 24  1  0  0  0
 23 37  1  0  0  0
 23 38  1  0  0  0
 24 39  1  0  0  0
M  END
>  <Name>
3-100

>  <Family>
B.1

>  <IC50_uM>
8.350000

>  <set>
1

$$$$
3-101
  Cerius2 12120216093D 1   1.00000                          
 Structure written by MMmdl.
 42 44  0  0  0  0  0  0  0  0999 V2000
   26.4084   22.1301   16.4602 C   0  0  0  0  0  0
   25.4688   21.4610   17.2558 N   0  0  0  0  0  0
   26.1982   20.8863   18.2806 C   0  0  0  0  0  0
   27.4929   21.3364   18.1570 C   0  0  0  0  0  0
   27.6060   22.1132   17.0315 N   0  0  0  0  0  0
   24.0475   21.3754   17.1201 C   0  0  0  0  0  0
   26.1830   22.7070   15.1298 C   0  0  0  0  0  0
   23.3421   22.2594   16.2905 C   0  0  0  0  0  0
   21.9495   22.1711   16.1780 C   0  0  0  0  0  0
   21.2540   21.2078   16.9097 C   0  0  0  0  0  0
   21.9395   20.3257   17.7451 C   0  0  0  0  0  0
   23.3315   20.4161   17.8567 C   0  0  0  0  0  0
   26.4433   24.0673   14.9083 C   0  0  0  0  0  0
   26.2536   24.6314   13.6431 C   0  0  0  0  0  0
   25.8150   23.8337   12.5885 C   0  0  0  0  0  0
   25.5713   22.4762   12.7867 C   0  0  0  0  0  0
   25.7616   21.9127   14.0524 C   0  0  0  0  0  0
   19.4871   21.0837   16.7500 S   0  0  0  0  0  0
   18.9586   22.4286   16.5439 O   0  0  0  0  0  0
   18.9888   20.3082   17.8816 O   0  0  0  0  0  0
   19.2640   20.1441   15.2630 C   0  0  0  0  0  0
   25.5810   24.5272   11.0307 Cl  0  0  0  0  0  0
   28.6645   21.0677   19.0419 C   0  0  0  0  0  0
   28.7911   22.3442   20.3458 S   0  0  0  0  0  0
   30.2704   21.7078   21.1757 C   0  0  0  0  0  0
   25.7418   20.2787   19.0492 H   0  0  0  0  0  0
   23.8351   23.0608   15.7468 H   0  0  0  0  0  0
   21.4222   22.8681   15.5294 H   0  0  0  0  0  0
   21.4076   19.5654   18.3135 H   0  0  0  0  0  0
   23.8319   19.6980   18.5034 H   0  0  0  0  0  0
   26.7934   24.6975   15.7249 H   0  0  0  0  0  0
   26.4535   25.6896   13.4922 H   0  0  0  0  0  0
   25.2375   21.8474   11.9646 H   0  0  0  0  0  0
   25.5798   20.8475   14.1867 H   0  0  0  0  0  0
   18.1915   20.0249   15.0955 H   0  0  0  0  0  0
   19.7317   19.1656   15.3865 H   0  0  0  0  0  0
   19.7122   20.6869   14.4286 H   0  0  0  0  0  0
   29.5841   21.0717   18.4479 H   0  0  0  0  0  0
   28.5593   20.0839   19.5108 H   0  0  0  0  0  0
   30.5167   22.3580   22.0193 H   0  0  0  0  0  0
   31.1182   21.6969   20.4859 H   0  0  0  0  0  0
   30.0895   20.6989   21.5552 H   0  0  0  0  0  0
  1  2  1  0  0  0
  1  5  2  0  0  0
  1  7  1  0  0  0
  2  3  1  0  0  0
  2  6  1  0  0  0
  3  4  2  0  0  0
  3 26  1  0  0  0
  4  5  1  0  0  0
  4 23  1  0  0  0
  6  8  2  0  0  0
  6 12  1  0  0  0
  7 13  2  0  0  0
  7 17  1  0  0  0
  8  9  1  0  0  0
  8 27  1  0  0  0
  9 10  2  0  0  0
  9 28  1  0  0  0
 10 11  1  0  0  0
 10 18  1  0  0  0
 11 12  2  0  0  0
 11 29  1  0  0  0
 12 30  1  0  0  0
 13 14  1  0  0  0
 13 31  1  0  0  0
 14 15  2  0  0  0
 14 32  1  0  0  0
 15 16  1  0  0  0
 15 22  1  0  0  0
 16 17  2  0  0  0
 16 33  1  0  0  0
 17 34  1  0  0  0
 18 19  2  0  0  0
 18 20  2  0  0  0
 18 21  1  0  0  0
 21 35  1  0  0  0
 21 36  1  0  0  0
 21 37  1  0  0  0
 23 24  1  0  0  0
 23 38  1  0  0  0
 23 39  1  0  0  0
 24 25  1  0  0  0
 25 40  1  0  0  0
 25 41  1  0  0  0
 25 42  1  0  0  0
M  END
>  <Name>
3-101

>  <Family>
B.1

>  <IC50_uM>
0.320000

>  <set>
1

$$$$
3-102
  Cerius2 12120216093D 1   1.00000                          
 Structure written by MMmdl.
 44 46  0  0  0  0  0  0  0  0999 V2000
   26.4079   22.1303   16.4606 C   0  0  0  0  0  0
   25.4694   21.4630   17.2586 N   0  0  0  0  0  0
   26.2027   20.8866   18.2812 C   0  0  0  0  0  0
   27.4969   21.3377   18.1577 C   0  0  0  0  0  0
   27.6077   22.1078   17.0278 N   0  0  0  0  0  0
   24.0481   21.3775   17.1240 C   0  0  0  0  0  0
   26.1806   22.7071   15.1306 C   0  0  0  0  0  0
   23.3434   22.2613   16.2937 C   0  0  0  0  0  0
   21.9513   22.1719   16.1787 C   0  0  0  0  0  0
   21.2549   21.2079   16.9088 C   0  0  0  0  0  0
   21.9395   20.3270   17.7463 C   0  0  0  0  0  0
   23.3313   20.4188   17.8605 C   0  0  0  0  0  0
   26.4408   24.0672   14.9087 C   0  0  0  0  0  0
   26.2495   24.6309   13.6435 C   0  0  0  0  0  0
   25.8099   23.8328   12.5895 C   0  0  0  0  0  0
   25.5662   22.4755   12.7886 C   0  0  0  0  0  0
   25.7578   21.9123   14.0541 C   0  0  0  0  0  0
   19.4889   21.0833   16.7413 S   0  0  0  0  0  0
   18.9609   22.4259   16.5203 O   0  0  0  0  0  0
   18.9861   20.3182   17.8781 O   0  0  0  0  0  0
   19.2714   20.1307   15.2616 C   0  0  0  0  0  0
   25.5744   24.5253   11.0315 Cl  0  0  0  0  0  0
   28.6820   21.0423   19.0101 C   0  0  0  0  0  0
   28.9354   22.2562   20.3037 S   0  0  0  0  0  0
   27.8444   22.1815   21.2729 O   0  0  0  0  0  0
   29.2562   23.5546   19.7157 O   0  0  0  0  0  0
   30.4018   21.6551   21.1039 C   0  0  0  0  0  0
   25.7474   20.2708   19.0445 H   0  0  0  0  0  0
   23.8368   23.0629   15.7505 H   0  0  0  0  0  0
   21.4245   22.8680   15.5288 H   0  0  0  0  0  0
   21.4075   19.5664   18.3141 H   0  0  0  0  0  0
   23.8311   19.7018   18.5089 H   0  0  0  0  0  0
   26.7915   24.6977   15.7247 H   0  0  0  0  0  0
   26.4494   25.6892   13.4923 H   0  0  0  0  0  0
   25.2317   21.8463   11.9670 H   0  0  0  0  0  0
   25.5759   20.8473   14.1890 H   0  0  0  0  0  0
   18.1994   20.0130   15.0893 H   0  0  0  0  0  0
   19.7351   19.1518   15.3966 H   0  0  0  0  0  0
   19.7259   20.6645   14.4251 H   0  0  0  0  0  0
   29.5924   21.0270   18.4025 H   0  0  0  0  0  0
   28.5670   20.0686   19.4968 H   0  0  0  0  0  0
   30.6459   22.3334   21.9241 H   0  0  0  0  0  0
   31.2173   21.6373   20.3786 H   0  0  0  0  0  0
   30.2065   20.6539   21.4923 H   0  0  0  0  0  0
  1  2  1  0  0  0
  1  5  2  0  0  0
  1  7  1  0  0  0
  2  3  1  0  0  0
  2  6  1  0  0  0
  3  4  2  0  0  0
  3 28  1  0  0  0
  4  5  1  0  0  0
  4 23  1  0  0  0
  6  8  2  0  0  0
  6 12  1  0  0  0
  7 13  2  0  0  0
  7 17  1  0  0  0
  8  9  1  0  0  0
  8 29  1  0  0  0
  9 10  2  0  0  0
  9 30  1  0  0  0
 10 11  1  0  0  0
 10 18  1  0  0  0
 11 12  2  0  0  0
 11 31  1  0  0  0
 12 32  1  0  0  0
 13 14  1  0  0  0
 13 33  1  0  0  0
 14 15  2  0  0  0
 14 34  1  0  0  0
 15 16  1  0  0  0
 15 22  1  0  0  0
 16 17  2  0  0  0
 16 35  1  0  0  0
 17 36  1  0  0  0
 18 19  2  0  0  0
 18 20  2  0  0  0
 18 21  1  0  0  0
 21 37  1  0  0  0
 21 38  1  0  0  0
 21 39  1  0  0  0
 23 24  1  0  0  0
 23 40  1  0  0  0
 23 41  1  0  0  0
 24 25  2  0  0  0
 24 26  2  0  0  0
 24 27  1  0  0  0
 27 42  1  0  0  0
 27 43  1  0  0  0
 27 44  1  0  0  0
M  END
>  <Name>
3-102

>  <Family>
B.1

>  <IC50_uM>
>100

>  <set>
1

$$$$
3-103
  Cerius2 12120216093D 1   1.00000                          
 Structure written by MMmdl.
 39 41  0  0  0  0  0  0  0  0999 V2000
   26.4086   22.1293   16.4597 C   0  0  0  0  0  0
   25.4695   21.4625   17.2582 N   0  0  0  0  0  0
   26.2010   20.8888   18.2832 C   0  0  0  0  0  0
   27.4980   21.3307   18.1526 C   0  0  0  0  0  0
   27.6083   22.1078   17.0270 N   0  0  0  0  0  0
   24.0480   21.3770   17.1235 C   0  0  0  0  0  0
   26.1812   22.7069   15.1303 C   0  0  0  0  0  0
   23.3429   22.2608   16.2935 C   0  0  0  0  0  0
   21.9508   22.1707   16.1786 C   0  0  0  0  0  0
   21.2550   21.2065   16.9090 C   0  0  0  0  0  0
   21.9398   20.3258   17.7462 C   0  0  0  0  0  0
   23.3318   20.4174   17.8595 C   0  0  0  0  0  0
   26.4415   24.0672   14.9091 C   0  0  0  0  0  0
   26.2497   24.6315   13.6443 C   0  0  0  0  0  0
   25.8095   23.8341   12.5901 C   0  0  0  0  0  0
   25.5655   22.4767   12.7885 C   0  0  0  0  0  0
   25.7576   21.9128   14.0537 C   0  0  0  0  0  0
   19.4887   21.0845   16.7419 S   0  0  0  0  0  0
   18.9623   22.4268   16.5140 O   0  0  0  0  0  0
   18.9854   20.3258   17.8826 O   0  0  0  0  0  0
   19.2699   20.1261   15.2665 C   0  0  0  0  0  0
   25.5738   24.5277   11.0327 Cl  0  0  0  0  0  0
   28.6779   21.0472   19.0224 C   0  0  0  0  0  0
   28.7642   22.0287   20.1148 C   0  0  0  0  0  0
   28.8464   22.7953   20.9887 N   0  0  0  0  0  0
   25.7439   20.2804   19.0512 H   0  0  0  0  0  0
   23.8354   23.0628   15.7505 H   0  0  0  0  0  0
   21.4234   22.8662   15.5284 H   0  0  0  0  0  0
   21.4083   19.5650   18.3142 H   0  0  0  0  0  0
   23.8318   19.6995   18.5067 H   0  0  0  0  0  0
   26.7927   24.6973   15.7252 H   0  0  0  0  0  0
   26.4492   25.6899   13.4935 H   0  0  0  0  0  0
   25.2302   21.8481   11.9669 H   0  0  0  0  0  0
   25.5757   20.8477   14.1883 H   0  0  0  0  0  0
   18.1977   20.0115   15.0933 H   0  0  0  0  0  0
   19.7299   19.1461   15.4060 H   0  0  0  0  0  0
   19.7272   20.6547   14.4281 H   0  0  0  0  0  0
   29.5924   21.0789   18.4194 H   0  0  0  0  0  0
   28.6003   20.0342   19.4333 H   0  0  0  0  0  0
  1  2  1  0  0  0
  1  5  2  0  0  0
  1  7  1  0  0  0
  2  3  1  0  0  0
  2  6  1  0  0  0
  3  4  2  0  0  0
  3 26  1  0  0  0
  4  5  1  0  0  0
  4 23  1  0  0  0
  6  8  2  0  0  0
  6 12  1  0  0  0
  7 13  2  0  0  0
  7 17  1  0  0  0
  8  9  1  0  0  0
  8 27  1  0  0  0
  9 10  2  0  0  0
  9 28  1  0  0  0
 10 11  1  0  0  0
 10 18  1  0  0  0
 11 12  2  0  0  0
 11 29  1  0  0  0
 12 30  1  0  0  0
 13 14  1  0  0  0
 13 31  1  0  0  0
 14 15  2  0  0  0
 14 32  1  0  0  0
 15 16  1  0  0  0
 15 22  1  0  0  0
 16 17  2  0  0  0
 16 33  1  0  0  0
 17 34  1  0  0  0
 18 19  2  0  0  0
 18 20  2  0  0  0
 18 21  1  0  0  0
 21 35  1  0  0  0
 21 36  1  0  0  0
 21 37  1  0  0  0
 23 24  1  0  0  0
 23 38  1  0  0  0
 23 39  1  0  0  0
 24 25  3  0  0  0
M  END
>  <Name>
3-103

>  <Family>
B.1

>  <IC50_uM>
1.540000

>  <set>
1

$$$$
4-25
  Cerius2 12120216093D 1   1.00000                          
 Structure written by MMmdl.
 37 39  0  0  0  0  0  0  0  0999 V2000
   26.4060   22.1346   16.4658 C   0  0  0  0  0  0
   25.4700   21.4552   17.2558 N   0  0  0  0  0  0
   26.1986   20.8733   18.2767 C   0  0  0  0  0  0
   27.4984   21.3225   18.1656 C   0  0  0  0  0  0
   27.6014   22.1232   17.0413 N   0  0  0  0  0  0
   24.0499   21.3682   17.1171 C   0  0  0  0  0  0
   26.1809   22.7142   15.1401 C   0  0  0  0  0  0
   23.3474   22.2554   16.2886 C   0  0  0  0  0  0
   21.9551   22.1679   16.1733 C   0  0  0  0  0  0
   21.2590   21.1927   16.8890 C   0  0  0  0  0  0
   21.9408   20.3196   17.7374 C   0  0  0  0  0  0
   23.3323   20.4099   17.8529 C   0  0  0  0  0  0
   26.4347   24.0676   14.9021 C   0  0  0  0  0  0
   26.2420   24.5982   13.6277 C   0  0  0  0  0  0
   25.8131   23.7528   12.6182 C   0  0  0  0  0  0
   25.5748   22.4324   12.7978 N   0  0  0  0  0  0
   25.7708   21.9449   14.0526 C   0  0  0  0  0  0
   19.4877   21.0982   16.7589 S   0  0  0  0  0  0
   18.9782   22.4553   16.5880 O   0  0  0  0  0  0
   18.9955   20.3086   17.8835 O   0  0  0  0  0  0
   19.2246   20.1896   15.2593 C   0  0  0  0  0  0
   28.6644   21.0422   19.0688 C   0  0  0  0  0  0
   29.1311   22.1720   19.6762 F   0  0  0  0  0  0
   29.7221   20.5007   18.3970 F   0  0  0  0  0  0
   28.3597   20.1667   20.0711 F   0  0  0  0  0  0
   25.7407   20.2569   19.0382 H   0  0  0  0  0  0
   23.8413   23.0619   15.7525 H   0  0  0  0  0  0
   21.4287   22.8708   15.5303 H   0  0  0  0  0  0
   21.4066   19.5625   18.3080 H   0  0  0  0  0  0
   23.8310   19.6945   18.5040 H   0  0  0  0  0  0
   26.7798   24.7145   15.7066 H   0  0  0  0  0  0
   26.4265   25.6491   13.4265 H   0  0  0  0  0  0
   25.6517   24.1310   11.6109 H   0  0  0  0  0  0
   25.5870   20.8772   14.1580 H   0  0  0  0  0  0
   18.1477   20.0879   15.1093 H   0  0  0  0  0  0
   19.6810   19.2028   15.3564 H   0  0  0  0  0  0
   19.6649   20.7414   14.4267 H   0  0  0  0  0  0
  1  2  1  0  0  0
  1  5  2  0  0  0
  1  7  1  0  0  0
  2  3  1  0  0  0
  2  6  1  0  0  0
  3  4  2  0  0  0
  3 26  1  0  0  0
  4  5  1  0  0  0
  4 22  1  0  0  0
  6  8  2  0  0  0
  6 12  1  0  0  0
  7 13  2  0  0  0
  7 17  1  0  0  0
  8  9  1  0  0  0
  8 27  1  0  0  0
  9 10  2  0  0  0
  9 28  1  0  0  0
 10 11  1  0  0  0
 10 18  1  0  0  0
 11 12  2  0  0  0
 11 29  1  0  0  0
 12 30  1  0  0  0
 13 14  1  0  0  0
 13 31  1  0  0  0
 14 15  2  0  0  0
 14 32  1  0  0  0
 15 16  1  0  0  0
 15 33  1  0  0  0
 16 17  2  0  0  0
 17 34  1  0  0  0
 18 19  2  0  0  0
 18 20  2  0  0  0
 18 21  1  0  0  0
 21 35  1  0  0  0
 21 36  1  0  0  0
 21 37  1  0  0  0
 22 23  1  0  0  0
 22 24  1  0  0  0
 22 25  1  0  0  0
M  END
>  <Name>
4-25

>  <Family>
B.2

>  <IC50_uM>
1.690000

>  <set>
0

$$$$
4-36
  Cerius2 12120216093D 1   1.00000                          
 Structure written by MMmdl.
 40 42  0  0  0  0  0  0  0  0999 V2000
   26.4127   22.1114   16.4511 C   0  0  0  0  0  0
   25.4666   21.4829   17.2719 N   0  0  0  0  0  0
   26.1924   20.9330   18.3135 C   0  0  0  0  0  0
   27.5069   21.3218   18.1590 C   0  0  0  0  0  0
   27.6199   22.0648   16.9982 N   0  0  0  0  0  0
   24.0443   21.3941   17.1330 C   0  0  0  0  0  0
   26.1829   22.6920   15.1257 C   0  0  0  0  0  0
   23.3341   22.2665   16.2963 C   0  0  0  0  0  0
   21.9430   22.1621   16.1733 C   0  0  0  0  0  0
   21.2534   21.1824   16.8881 C   0  0  0  0  0  0
   21.9403   20.3214   17.7430 C   0  0  0  0  0  0
   23.3305   20.4288   17.8656 C   0  0  0  0  0  0
   26.4570   24.0515   14.9245 C   0  0  0  0  0  0
   26.2604   24.6273   13.6734 C   0  0  0  0  0  0
   25.8069   23.8211   12.6472 C   0  0  0  0  0  0
   25.5543   22.4987   12.7895 N   0  0  0  0  0  0
   25.7559   21.9427   14.0193 C   0  0  0  0  0  0
   19.4848   21.0659   16.7443 S   0  0  0  0  0  0
   18.9602   22.4163   16.5667 O   0  0  0  0  0  0
   18.9931   20.2722   17.8662 O   0  0  0  0  0  0
   19.2454   20.1511   15.2444 C   0  0  0  0  0  0
   28.6779   21.0361   19.0542 C   0  0  0  0  0  0
   29.2000   22.1726   19.6007 F   0  0  0  0  0  0
   29.7005   20.4227   18.3899 F   0  0  0  0  0  0
   28.3579   20.2200   20.1007 F   0  0  0  0  0  0
   25.4993   20.4640   14.1080 C   0  0  0  0  0  0
   25.7281   20.3700   19.1113 H   0  0  0  0  0  0
   23.8142   23.0756   15.7556 H   0  0  0  0  0  0
   21.4128   22.8558   15.5234 H   0  0  0  0  0  0
   21.4125   19.5589   18.3124 H   0  0  0  0  0  0
   23.8297   19.7174   18.5203 H   0  0  0  0  0  0
   26.8182   24.6684   15.7456 H   0  0  0  0  0  0
   26.4576   25.6812   13.5042 H   0  0  0  0  0  0
   25.6364   24.2313   11.6541 H   0  0  0  0  0  0
   18.1712   20.0353   15.0858 H   0  0  0  0  0  0
   19.7135   19.1704   15.3473 H   0  0  0  0  0  0
   19.6855   20.7068   14.4142 H   0  0  0  0  0  0
   25.3584   20.0387   13.1084 H   0  0  0  0  0  0
   24.5928   20.2638   14.6848 H   0  0  0  0  0  0
   26.3488   19.9479   14.5660 H   0  0  0  0  0  0
  1  2  1  0  0  0
  1  5  2  0  0  0
  1  7  1  0  0  0
  2  3  1  0  0  0
  2  6  1  0  0  0
  3  4  2  0  0  0
  3 27  1  0  0  0
  4  5  1  0  0  0
  4 22  1  0  0  0
  6  8  2  0  0  0
  6 12  1  0  0  0
  7 13  2  0  0  0
  7 17  1  0  0  0
  8  9  1  0  0  0
  8 28  1  0  0  0
  9 10  2  0  0  0
  9 29  1  0  0  0
 10 11  1  0  0  0
 10 18  1  0  0  0
 11 12  2  0  0  0
 11 30  1  0  0  0
 12 31  1  0  0  0
 13 14  1  0  0  0
 13 32  1  0  0  0
 14 15  2  0  0  0
 14 33  1  0  0  0
 15 16  1  0  0  0
 15 34  1  0  0  0
 16 17  2  0  0  0
 17 26  1  0  0  0
 18 19  2  0  0  0
 18 20  2  0  0  0
 18 21  1  0  0  0
 21 35  1  0  0  0
 21 36  1  0  0  0
 21 37  1  0  0  0
 22 23  1  0  0  0
 22 24  1  0  0  0
 22 25  1  0  0  0
 26 38  1  0  0  0
 26 39  1  0  0  0
 26 40  1  0  0  0
M  END
>  <Name>
4-36

>  <Family>
B.2

>  <IC50_uM>
9.600000

>  <set>
0

$$$$
4-37
  Cerius2 12120216093D 1   1.00000                          
 Structure written by MMmdl.
 40 42  0  0  0  0  0  0  0  0999 V2000
   26.4063   22.1343   16.4660 C   0  0  0  0  0  0
   25.4703   21.4546   17.2558 N   0  0  0  0  0  0
   26.1988   20.8726   18.2767 C   0  0  0  0  0  0
   27.4983   21.3234   18.1666 C   0  0  0  0  0  0
   27.6015   22.1237   17.0421 N   0  0  0  0  0  0
   24.0502   21.3678   17.1169 C   0  0  0  0  0  0
   26.1810   22.7141   15.1406 C   0  0  0  0  0  0
   23.3482   22.2552   16.2885 C   0  0  0  0  0  0
   21.9557   22.1680   16.1729 C   0  0  0  0  0  0
   21.2594   21.1928   16.8885 C   0  0  0  0  0  0
   21.9408   20.3196   17.7369 C   0  0  0  0  0  0
   23.3325   20.4096   17.8526 C   0  0  0  0  0  0
   26.4344   24.0657   14.9018 C   0  0  0  0  0  0
   26.2402   24.5965   13.6265 C   0  0  0  0  0  0
   25.8075   23.7573   12.6048 C   0  0  0  0  0  0
   25.5732   22.4357   12.7994 N   0  0  0  0  0  0
   25.7704   21.9472   14.0537 C   0  0  0  0  0  0
   19.4880   21.0991   16.7586 S   0  0  0  0  0  0
   18.9789   22.4564   16.5877 O   0  0  0  0  0  0
   18.9956   20.3098   17.8833 O   0  0  0  0  0  0
   19.2241   20.1907   15.2589 C   0  0  0  0  0  0
   28.6641   21.0442   19.0704 C   0  0  0  0  0  0
   29.1557   22.1799   19.6464 F   0  0  0  0  0  0
   29.7076   20.4661   18.4066 F   0  0  0  0  0  0
   28.3491   20.2003   20.0964 F   0  0  0  0  0  0
   25.5915   24.3060   11.2253 C   0  0  0  0  0  0
   25.7411   20.2555   19.0376 H   0  0  0  0  0  0
   23.8422   23.0618   15.7528 H   0  0  0  0  0  0
   21.4297   22.8713   15.5302 H   0  0  0  0  0  0
   21.4064   19.5626   18.3073 H   0  0  0  0  0  0
   23.8309   19.6941   18.5038 H   0  0  0  0  0  0
   26.7804   24.7131   15.7053 H   0  0  0  0  0  0
   26.4289   25.6504   13.4394 H   0  0  0  0  0  0
   25.5863   20.8794   14.1574 H   0  0  0  0  0  0
   18.1471   20.0902   15.1088 H   0  0  0  0  0  0
   19.6794   19.2034   15.3563 H   0  0  0  0  0  0
   19.6652   20.7420   14.4264 H   0  0  0  0  0  0
   24.8371   25.0985   11.2474 H   0  0  0  0  0  0
   25.2427   23.5220   10.5456 H   0  0  0  0  0  0
   26.5279   24.7103   10.8285 H   0  0  0  0  0  0
  1  2  1  0  0  0
  1  5  2  0  0  0
  1  7  1  0  0  0
  2  3  1  0  0  0
  2  6  1  0  0  0
  3  4  2  0  0  0
  3 27  1  0  0  0
  4  5  1  0  0  0
  4 22  1  0  0  0
  6  8  2  0  0  0
  6 12  1  0  0  0
  7 13  2  0  0  0
  7 17  1  0  0  0
  8  9  1  0  0  0
  8 28  1  0  0  0
  9 10  2  0  0  0
  9 29  1  0  0  0
 10 11  1  0  0  0
 10 18  1  0  0  0
 11 12  2  0  0  0
 11 30  1  0  0  0
 12 31  1  0  0  0
 13 14  1  0  0  0
 13 32  1  0  0  0
 14 15  2  0  0  0
 14 33  1  0  0  0
 15 16  1  0  0  0
 15 26  1  0  0  0
 16 17  2  0  0  0
 17 34  1  0  0  0
 18 19  2  0  0  0
 18 20  2  0  0  0
 18 21  1  0  0  0
 21 35  1  0  0  0
 21 36  1  0  0  0
 21 37  1  0  0  0
 22 23  1  0  0  0
 22 24  1  0  0  0
 22 25  1  0  0  0
 26 38  1  0  0  0
 26 39  1  0  0  0
 26 40  1  0  0  0
M  END
>  <Name>
4-37

>  <Family>
B.2

>  <IC50_uM>
1.800000

>  <set>
0

$$$$
4-38
  Cerius2 12120216093D 1   1.00000                          
 Structure written by MMmdl.
 40 42  0  0  0  0  0  0  0  0999 V2000
   26.4056   22.1332   16.4655 C   0  0  0  0  0  0
   25.4696   21.4551   17.2566 N   0  0  0  0  0  0
   26.1984   20.8739   18.2778 C   0  0  0  0  0  0
   27.4984   21.3228   18.1657 C   0  0  0  0  0  0
   27.6012   22.1222   17.0405 N   0  0  0  0  0  0
   24.0495   21.3684   17.1182 C   0  0  0  0  0  0
   26.1800   22.7119   15.1394 C   0  0  0  0  0  0
   23.3471   22.2555   16.2895 C   0  0  0  0  0  0
   21.9548   22.1678   16.1738 C   0  0  0  0  0  0
   21.2589   21.1925   16.8895 C   0  0  0  0  0  0
   21.9404   20.3198   17.7382 C   0  0  0  0  0  0
   23.3321   20.4101   17.8541 C   0  0  0  0  0  0
   26.4291   24.0674   14.9025 C   0  0  0  0  0  0
   26.2447   24.6066   13.6247 C   0  0  0  0  0  0
   25.8009   23.7520   12.6214 C   0  0  0  0  0  0
   25.5676   22.4293   12.8014 N   0  0  0  0  0  0
   25.7712   21.9415   14.0534 C   0  0  0  0  0  0
   19.4877   21.0971   16.7586 S   0  0  0  0  0  0
   18.9773   22.4538   16.5871 O   0  0  0  0  0  0
   18.9955   20.3076   17.8833 O   0  0  0  0  0  0
   19.2256   20.1880   15.2590 C   0  0  0  0  0  0
   28.6647   21.0430   19.0686 C   0  0  0  0  0  0
   29.1338   22.1737   19.6726 F   0  0  0  0  0  0
   29.7211   20.4981   18.3972 F   0  0  0  0  0  0
   28.3596   20.1708   20.0736 F   0  0  0  0  0  0
   26.4598   26.0643   13.3605 C   0  0  0  0  0  0
   25.7409   20.2584   19.0399 H   0  0  0  0  0  0
   23.8410   23.0620   15.7535 H   0  0  0  0  0  0
   21.4286   22.8705   15.5305 H   0  0  0  0  0  0
   21.4061   19.5626   18.3087 H   0  0  0  0  0  0
   23.8305   19.6948   18.5053 H   0  0  0  0  0  0
   26.7658   24.7057   15.7185 H   0  0  0  0  0  0
   25.6198   24.1200   11.6128 H   0  0  0  0  0  0
   25.5919   20.8730   14.1588 H   0  0  0  0  0  0
   18.1488   20.0858   15.1085 H   0  0  0  0  0  0
   19.6823   19.2013   15.3569 H   0  0  0  0  0  0
   19.6664   20.7396   14.4266 H   0  0  0  0  0  0
   26.7739   26.2316   12.3249 H   0  0  0  0  0  0
   27.2468   26.4659   14.0074 H   0  0  0  0  0  0
   25.5345   26.6189   13.5434 H   0  0  0  0  0  0
  1  2  1  0  0  0
  1  5  2  0  0  0
  1  7  1  0  0  0
  2  3  1  0  0  0
  2  6  1  0  0  0
  3  4  2  0  0  0
  3 27  1  0  0  0
  4  5  1  0  0  0
  4 22  1  0  0  0
  6  8  2  0  0  0
  6 12  1  0  0  0
  7 13  2  0  0  0
  7 17  1  0  0  0
  8  9  1  0  0  0
  8 28  1  0  0  0
  9 10  2  0  0  0
  9 29  1  0  0  0
 10 11  1  0  0  0
 10 18  1  0  0  0
 11 12  2  0  0  0
 11 30  1  0  0  0
 12 31  1  0  0  0
 13 14  1  0  0  0
 13 32  1  0  0  0
 14 15  2  0  0  0
 14 26  1  0  0  0
 15 16  1  0  0  0
 15 33  1  0  0  0
 16 17  2  0  0  0
 17 34  1  0  0  0
 18 19  2  0  0  0
 18 20  2  0  0  0
 18 21  1  0  0  0
 21 35  1  0  0  0
 21 36  1  0  0  0
 21 37  1  0  0  0
 22 23  1  0  0  0
 22 24  1  0  0  0
 22 25  1  0  0  0
 26 38  1  0  0  0
 26 39  1  0  0  0
 26 40  1  0  0  0
M  END
>  <Name>
4-38

>  <Family>
B.2

>  <IC50_uM>
1.800000

>  <set>
1

$$$$
4-39
  Cerius2 12120216093D 1   1.00000                          
 Structure written by MMmdl.
 40 42  0  0  0  0  0  0  0  0999 V2000
   26.4156   22.1361   16.4739 C   0  0  0  0  0  0
   25.4745   21.4616   17.2626 N   0  0  0  0  0  0
   26.2004   20.8709   18.2807 C   0  0  0  0  0  0
   27.5095   21.2877   18.1544 C   0  0  0  0  0  0
   27.6196   22.0825   17.0276 N   0  0  0  0  0  0
   24.0538   21.3769   17.1185 C   0  0  0  0  0  0
   26.1814   22.7405   15.1581 C   0  0  0  0  0  0
   23.3524   22.2610   16.2862 C   0  0  0  0  0  0
   21.9605   22.1710   16.1647 C   0  0  0  0  0  0
   21.2626   21.1954   16.8774 C   0  0  0  0  0  0
   21.9421   20.3242   17.7288 C   0  0  0  0  0  0
   23.3333   20.4169   17.8501 C   0  0  0  0  0  0
   26.4142   24.1037   14.9018 C   0  0  0  0  0  0
   26.2032   24.5891   13.6037 C   0  0  0  0  0  0
   25.7707   23.7171   12.6165 C   0  0  0  0  0  0
   25.5431   22.4017   12.8264 N   0  0  0  0  0  0
   25.7601   21.9469   14.0882 C   0  0  0  0  0  0
   19.4920   21.0978   16.7399 S   0  0  0  0  0  0
   18.9807   22.4536   16.5646 O   0  0  0  0  0  0
   18.9966   20.3092   17.8639 O   0  0  0  0  0  0
   19.2368   20.1864   15.2406 C   0  0  0  0  0  0
   28.6795   20.9781   19.0423 C   0  0  0  0  0  0
   29.2775   22.1071   19.5230 F   0  0  0  0  0  0
   29.6513   20.2746   18.3912 F   0  0  0  0  0  0
   28.3343   20.2340   20.1336 F   0  0  0  0  0  0
   26.8970   25.0459   15.9704 C   0  0  0  0  0  0
   25.7377   20.2648   19.0473 H   0  0  0  0  0  0
   23.8436   23.0688   15.7511 H   0  0  0  0  0  0
   21.4361   22.8728   15.5188 H   0  0  0  0  0  0
   21.4068   19.5661   18.2971 H   0  0  0  0  0  0
   23.8285   19.7010   18.5032 H   0  0  0  0  0  0
   26.3721   25.6340   13.3561 H   0  0  0  0  0  0
   25.5973   24.0729   11.6028 H   0  0  0  0  0  0
   25.5849   20.8802   14.2204 H   0  0  0  0  0  0
   18.1607   20.0836   15.0857 H   0  0  0  0  0  0
   19.6934   19.2002   15.3417 H   0  0  0  0  0  0
   19.6807   20.7372   14.4093 H   0  0  0  0  0  0
   27.9402   24.8306   16.2218 H   0  0  0  0  0  0
   26.2780   24.9609   16.8694 H   0  0  0  0  0  0
   26.8391   26.0880   15.6383 H   0  0  0  0  0  0
  1  2  1  0  0  0
  1  5  2  0  0  0
  1  7  1  0  0  0
  2  3  1  0  0  0
  2  6  1  0  0  0
  3  4  2  0  0  0
  3 27  1  0  0  0
  4  5  1  0  0  0
  4 22  1  0  0  0
  6  8  2  0  0  0
  6 12  1  0  0  0
  7 13  2  0  0  0
  7 17  1  0  0  0
  8  9  1  0  0  0
  8 28  1  0  0  0
  9 10  2  0  0  0
  9 29  1  0  0  0
 10 11  1  0  0  0
 10 18  1  0  0  0
 11 12  2  0  0  0
 11 30  1  0  0  0
 12 31  1  0  0  0
 13 14  1  0  0  0
 13 26  1  0  0  0
 14 15  2  0  0  0
 14 32  1  0  0  0
 15 16  1  0  0  0
 15 33  1  0  0  0
 16 17  2  0  0  0
 17 34  1  0  0  0
 18 19  2  0  0  0
 18 20  2  0  0  0
 18 21  1  0  0  0
 21 35  1  0  0  0
 21 36  1  0  0  0
 21 37  1  0  0  0
 22 23  1  0  0  0
 22 24  1  0  0  0
 22 25  1  0  0  0
 26 38  1  0  0  0
 26 39  1  0  0  0
 26 40  1  0  0  0
M  END
>  <Name>
4-39

>  <Family>
B.2

>  <IC50_uM>
54.000000

>  <set>
1

$$$$
4-40
  Cerius2 12120216093D 1   1.00000                          
 Structure written by MMmdl.
 41 43  0  0  0  0  0  0  0  0999 V2000
   26.4056   22.1343   16.4659 C   0  0  0  0  0  0
   25.4700   21.4554   17.2567 N   0  0  0  0  0  0
   26.1990   20.8731   18.2770 C   0  0  0  0  0  0
   27.4990   21.3220   18.1648 C   0  0  0  0  0  0
   27.6015   22.1222   17.0401 N   0  0  0  0  0  0
   24.0500   21.3688   17.1183 C   0  0  0  0  0  0
   26.1803   22.7144   15.1406 C   0  0  0  0  0  0
   23.3479   22.2561   16.2894 C   0  0  0  0  0  0
   21.9556   22.1682   16.1732 C   0  0  0  0  0  0
   21.2594   21.1928   16.8887 C   0  0  0  0  0  0
   21.9408   20.3202   17.7377 C   0  0  0  0  0  0
   23.3324   20.4106   17.8540 C   0  0  0  0  0  0
   26.4339   24.0675   14.9032 C   0  0  0  0  0  0
   26.2415   24.5970   13.6276 C   0  0  0  0  0  0
   25.8125   23.7504   12.6189 C   0  0  0  0  0  0
   25.5748   22.4337   12.7976 N   0  0  0  0  0  0
   25.7709   21.9464   14.0520 C   0  0  0  0  0  0
   19.4882   21.0976   16.7576 S   0  0  0  0  0  0
   18.9780   22.4544   16.5861 O   0  0  0  0  0  0
   18.9956   20.3080   17.8821 O   0  0  0  0  0  0
   19.2263   20.1887   15.2579 C   0  0  0  0  0  0
   28.6660   21.0412   19.0666 C   0  0  0  0  0  0
   29.1598   22.1762   19.6422 F   0  0  0  0  0  0
   29.7075   20.4622   18.4007 F   0  0  0  0  0  0
   28.3517   20.1973   20.0929 F   0  0  0  0  0  0
   25.6355   24.3173   11.3736 O   0  0  0  0  0  0
   25.9252   25.7140   11.3406 C   0  0  0  0  0  0
   25.7414   20.2567   19.0385 H   0  0  0  0  0  0
   23.8417   23.0633   15.7546 H   0  0  0  0  0  0
   21.4293   22.8711   15.5302 H   0  0  0  0  0  0
   21.4065   19.5631   18.3082 H   0  0  0  0  0  0
   23.8308   19.6955   18.5055 H   0  0  0  0  0  0
   26.7789   24.7148   15.7072 H   0  0  0  0  0  0
   26.4276   25.6480   13.4310 H   0  0  0  0  0  0
   25.5878   20.8784   14.1562 H   0  0  0  0  0  0
   18.1496   20.0861   15.1074 H   0  0  0  0  0  0
   19.6835   19.2023   15.3554 H   0  0  0  0  0  0
   19.6667   20.7409   14.4255 H   0  0  0  0  0  0
   25.7592   26.0638   10.3171 H   0  0  0  0  0  0
   26.9735   25.9066   11.5937 H   0  0  0  0  0  0
   25.2508   26.2733   11.9983 H   0  0  0  0  0  0
  1  2  1  0  0  0
  1  5  2  0  0  0
  1  7  1  0  0  0
  2  3  1  0  0  0
  2  6  1  0  0  0
  3  4  2  0  0  0
  3 28  1  0  0  0
  4  5  1  0  0  0
  4 22  1  0  0  0
  6  8  2  0  0  0
  6 12  1  0  0  0
  7 13  2  0  0  0
  7 17  1  0  0  0
  8  9  1  0  0  0
  8 29  1  0  0  0
  9 10  2  0  0  0
  9 30  1  0  0  0
 10 11  1  0  0  0
 10 18  1  0  0  0
 11 12  2  0  0  0
 11 31  1  0  0  0
 12 32  1  0  0  0
 13 14  1  0  0  0
 13 33  1  0  0  0
 14 15  2  0  0  0
 14 34  1  0  0  0
 15 16  1  0  0  0
 15 26  1  0  0  0
 16 17  2  0  0  0
 17 35  1  0  0  0
 18 19  2  0  0  0
 18 20  2  0  0  0
 18 21  1  0  0  0
 21 36  1  0  0  0
 21 37  1  0  0  0
 21 38  1  0  0  0
 22 23  1  0  0  0
 22 24  1  0  0  0
 22 25  1  0  0  0
 26 27  1  0  0  0
 27 39  1  0  0  0
 27 40  1  0  0  0
 27 41  1  0  0  0
M  END
>  <Name>
4-40

>  <Family>
B.2

>  <IC50_uM>
1.200000

>  <set>
1

$$$$
4-41
  Cerius2 12120216093D 1   1.00000                          
 Structure written by MMmdl.
 41 43  0  0  0  0  0  0  0  0999 V2000
   26.4043   22.1332   16.4643 C   0  0  0  0  0  0
   25.4689   21.4554   17.2561 N   0  0  0  0  0  0
   26.1979   20.8757   18.2780 C   0  0  0  0  0  0
   27.4976   21.3253   18.1655 C   0  0  0  0  0  0
   27.5999   22.1235   17.0393 N   0  0  0  0  0  0
   24.0488   21.3683   17.1183 C   0  0  0  0  0  0
   26.1800   22.7104   15.1372 C   0  0  0  0  0  0
   23.3461   22.2553   16.2898 C   0  0  0  0  0  0
   21.9537   22.1671   16.1744 C   0  0  0  0  0  0
   21.2581   21.1917   16.8903 C   0  0  0  0  0  0
   21.9402   20.3192   17.7390 C   0  0  0  0  0  0
   23.3318   20.4099   17.8544 C   0  0  0  0  0  0
   26.4345   24.0655   14.8995 C   0  0  0  0  0  0
   26.2496   24.6094   13.6276 C   0  0  0  0  0  0
   25.8208   23.7534   12.6197 C   0  0  0  0  0  0
   25.5807   22.4277   12.7988 N   0  0  0  0  0  0
   25.7733   21.9393   14.0515 C   0  0  0  0  0  0
   19.4868   21.0961   16.7609 S   0  0  0  0  0  0
   18.9759   22.4527   16.5903 O   0  0  0  0  0  0
   18.9959   20.3061   17.8859 O   0  0  0  0  0  0
   19.2235   20.1875   15.2613 C   0  0  0  0  0  0
   28.6640   21.0477   19.0691 C   0  0  0  0  0  0
   29.1239   22.1778   19.6810 F   0  0  0  0  0  0
   29.7254   20.5143   18.3965 F   0  0  0  0  0  0
   28.3628   20.1671   20.0678 F   0  0  0  0  0  0
   26.5172   25.9440   13.5159 O   0  0  0  0  0  0
   26.9466   26.6080   14.7042 C   0  0  0  0  0  0
   25.7405   20.2608   19.0408 H   0  0  0  0  0  0
   23.8394   23.0623   15.7544 H   0  0  0  0  0  0
   21.4270   22.8698   15.5315 H   0  0  0  0  0  0
   21.4063   19.5621   18.3098 H   0  0  0  0  0  0
   23.8309   19.6949   18.5056 H   0  0  0  0  0  0
   26.7774   24.7032   15.7125 H   0  0  0  0  0  0
   25.6514   24.0972   11.6030 H   0  0  0  0  0  0
   25.5902   20.8714   14.1565 H   0  0  0  0  0  0
   18.1466   20.0847   15.1119 H   0  0  0  0  0  0
   19.6811   19.2012   15.3579 H   0  0  0  0  0  0
   19.6630   20.7399   14.4286 H   0  0  0  0  0  0
   27.1196   27.6590   14.4541 H   0  0  0  0  0  0
   27.8909   26.1900   15.0681 H   0  0  0  0  0  0
   26.1718   26.5700   15.4770 H   0  0  0  0  0  0
  1  2  1  0  0  0
  1  5  2  0  0  0
  1  7  1  0  0  0
  2  3  1  0  0  0
  2  6  1  0  0  0
  3  4  2  0  0  0
  3 28  1  0  0  0
  4  5  1  0  0  0
  4 22  1  0  0  0
  6  8  2  0  0  0
  6 12  1  0  0  0
  7 13  2  0  0  0
  7 17  1  0  0  0
  8  9  1  0  0  0
  8 29  1  0  0  0
  9 10  2  0  0  0
  9 30  1  0  0  0
 10 11  1  0  0  0
 10 18  1  0  0  0
 11 12  2  0  0  0
 11 31  1  0  0  0
 12 32  1  0  0  0
 13 14  1  0  0  0
 13 33  1  0  0  0
 14 15  2  0  0  0
 14 26  1  0  0  0
 15 16  1  0  0  0
 15 34  1  0  0  0
 16 17  2  0  0  0
 17 35  1  0  0  0
 18 19  2  0  0  0
 18 20  2  0  0  0
 18 21  1  0  0  0
 21 36  1  0  0  0
 21 37  1  0  0  0
 21 38  1  0  0  0
 22 23  1  0  0  0
 22 24  1  0  0  0
 22 25  1  0  0  0
 26 27  1  0  0  0
 27 39  1  0  0  0
 27 40  1  0  0  0
 27 41  1  0  0  0
M  END
>  <Name>
4-41

>  <Family>
B.2

>  <IC50_uM>
37.600000

>  <set>
2

$$$$
4-42
  Cerius2 12120216093D 1   1.00000                          
 Structure written by MMmdl.
 37 39  0  0  0  0  0  0  0  0999 V2000
   26.4046   22.1351   16.4648 C   0  0  0  0  0  0
   25.4694   21.4553   17.2553 N   0  0  0  0  0  0
   26.1990   20.8738   18.2756 C   0  0  0  0  0  0
   27.4983   21.3247   18.1642 C   0  0  0  0  0  0
   27.6001   22.1255   17.0398 N   0  0  0  0  0  0
   24.0495   21.3682   17.1171 C   0  0  0  0  0  0
   26.1802   22.7152   15.1390 C   0  0  0  0  0  0
   23.3468   22.2555   16.2887 C   0  0  0  0  0  0
   21.9544   22.1676   16.1736 C   0  0  0  0  0  0
   21.2587   21.1924   16.8896 C   0  0  0  0  0  0
   21.9407   20.3195   17.7378 C   0  0  0  0  0  0
   23.3324   20.4098   17.8531 C   0  0  0  0  0  0
   26.4353   24.0709   14.9065 C   0  0  0  0  0  0
   26.2455   24.5975   13.6321 C   0  0  0  0  0  0
   25.8184   23.7515   12.6190 C   0  0  0  0  0  0
   25.5782   22.4266   12.7956 N   0  0  0  0  0  0
   25.7725   21.9420   14.0512 C   0  0  0  0  0  0
   19.4873   21.0978   16.7603 S   0  0  0  0  0  0
   18.9774   22.4547   16.5899 O   0  0  0  0  0  0
   18.9960   20.3080   17.8852 O   0  0  0  0  0  0
   19.2235   20.1894   15.2607 C   0  0  0  0  0  0
   28.6652   21.0452   19.0667 C   0  0  0  0  0  0
   29.1467   22.1789   19.6550 F   0  0  0  0  0  0
   29.7139   20.4825   18.3983 F   0  0  0  0  0  0
   28.3555   20.1883   20.0833 F   0  0  0  0  0  0
   26.5672   26.4257   13.2933 Br  0  0  0  0  0  0
   25.7421   20.2566   19.0370 H   0  0  0  0  0  0
   23.8402   23.0626   15.7534 H   0  0  0  0  0  0
   21.4279   22.8706   15.5309 H   0  0  0  0  0  0
   21.4066   19.5624   18.3086 H   0  0  0  0  0  0
   23.8313   19.6945   18.5041 H   0  0  0  0  0  0
   26.7778   24.7068   15.7197 H   0  0  0  0  0  0
   25.6562   24.1199   11.6087 H   0  0  0  0  0  0
   25.5903   20.8740   14.1584 H   0  0  0  0  0  0
   18.1466   20.0880   15.1110 H   0  0  0  0  0  0
   19.6797   19.2024   15.3578 H   0  0  0  0  0  0
   19.6639   20.7411   14.4281 H   0  0  0  0  0  0
  1  2  1  0  0  0
  1  5  2  0  0  0
  1  7  1  0  0  0
  2  3  1  0  0  0
  2  6  1  0  0  0
  3  4  2  0  0  0
  3 27  1  0  0  0
  4  5  1  0  0  0
  4 22  1  0  0  0
  6  8  2  0  0  0
  6 12  1  0  0  0
  7 13  2  0  0  0
  7 17  1  0  0  0
  8  9  1  0  0  0
  8 28  1  0  0  0
  9 10  2  0  0  0
  9 29  1  0  0  0
 10 11  1  0  0  0
 10 18  1  0  0  0
 11 12  2  0  0  0
 11 30  1  0  0  0
 12 31  1  0  0  0
 13 14  1  0  0  0
 13 32  1  0  0  0
 14 15  2  0  0  0
 14 26  1  0  0  0
 15 16  1  0  0  0
 15 33  1  0  0  0
 16 17  2  0  0  0
 17 34  1  0  0  0
 18 19  2  0  0  0
 18 20  2  0  0  0
 18 21  1  0  0  0
 21 35  1  0  0  0
 21 36  1  0  0  0
 21 37  1  0  0  0
 22 23  1  0  0  0
 22 24  1  0  0  0
 22 25  1  0  0  0
M  END
>  <Name>
4-42

>  <Family>
B.2

>  <IC50_uM>
0.950000

>  <set>
1

$$$$
4-43
  Cerius2 12120216093D 1   1.00000                          
 Structure written by MMmdl.
 36 38  0  0  0  0  0  0  0  0999 V2000
   26.4053   22.1346   16.4658 C   0  0  0  0  0  0
   25.4689   21.4552   17.2553 N   0  0  0  0  0  0
   26.1968   20.8745   18.2775 C   0  0  0  0  0  0
   27.4965   21.3247   18.1674 C   0  0  0  0  0  0
   27.6001   22.1244   17.0425 N   0  0  0  0  0  0
   24.0489   21.3675   17.1157 C   0  0  0  0  0  0
   26.1814   22.7142   15.1398 C   0  0  0  0  0  0
   23.3464   22.2544   16.2869 C   0  0  0  0  0  0
   21.9540   22.1657   16.1705 C   0  0  0  0  0  0
   21.2566   21.1906   16.8857 C   0  0  0  0  0  0
   21.9399   20.3177   17.7336 C   0  0  0  0  0  0
   23.3316   20.4081   17.8505 C   0  0  0  0  0  0
   26.4354   24.0677   14.9025 C   0  0  0  0  0  0
   26.2444   24.5987   13.6279 C   0  0  0  0  0  0
   25.8169   23.7534   12.6176 C   0  0  0  0  0  0
   25.5786   22.4329   12.7967 N   0  0  0  0  0  0
   25.7727   21.9451   14.0516 C   0  0  0  0  0  0
   19.4908   21.1001   16.7665 S   0  0  0  0  0  0
   18.9557   22.4317   16.5434 O   0  0  0  0  0  0
   18.9803   20.2735   17.8461 O   0  0  0  0  0  0
   19.2800   20.2407   15.3446 N   0  0  0  0  0  0
   28.6615   21.0469   19.0728 C   0  0  0  0  0  0
   29.1097   22.1741   19.6987 F   0  0  0  0  0  0
   29.7300   20.5292   18.3993 F   0  0  0  0  0  0
   28.3632   20.1532   20.0609 F   0  0  0  0  0  0
   25.7386   20.2587   19.0390 H   0  0  0  0  0  0
   23.8400   23.0610   15.7508 H   0  0  0  0  0  0
   21.4267   22.8664   15.5262 H   0  0  0  0  0  0
   21.4035   19.5595   18.3008 H   0  0  0  0  0  0
   23.8300   19.6920   18.5009 H   0  0  0  0  0  0
   26.7795   24.7143   15.7075 H   0  0  0  0  0  0
   26.4291   25.6495   13.4273 H   0  0  0  0  0  0
   25.6568   24.1319   11.6102 H   0  0  0  0  0  0
   25.5887   20.8773   14.1566 H   0  0  0  0  0  0
   18.7865   20.8009   14.6447 H   0  0  0  0  0  0
   18.8012   19.3530   15.5174 H   0  0  0  0  0  0
  1  2  1  0  0  0
  1  5  2  0  0  0
  1  7  1  0  0  0
  2  3  1  0  0  0
  2  6  1  0  0  0
  3  4  2  0  0  0
  3 26  1  0  0  0
  4  5  1  0  0  0
  4 22  1  0  0  0
  6  8  2  0  0  0
  6 12  1  0  0  0
  7 13  2  0  0  0
  7 17  1  0  0  0
  8  9  1  0  0  0
  8 27  1  0  0  0
  9 10  2  0  0  0
  9 28  1  0  0  0
 10 11  1  0  0  0
 10 18  1  0  0  0
 11 12  2  0  0  0
 11 29  1  0  0  0
 12 30  1  0  0  0
 13 14  1  0  0  0
 13 31  1  0  0  0
 14 15  2  0  0  0
 14 32  1  0  0  0
 15 16  1  0  0  0
 15 33  1  0  0  0
 16 17  2  0  0  0
 17 34  1  0  0  0
 18 19  2  0  0  0
 18 20  2  0  0  0
 18 21  1  0  0  0
 21 35  1  0  0  0
 21 36  1  0  0  0
 22 23  1  0  0  0
 22 24  1  0  0  0
 22 25  1  0  0  0
M  END
>  <Name>
4-43

>  <Family>
B.2

>  <IC50_uM>
0.440000

>  <set>
1

$$$$
4-44
  Cerius2 12120216093D 1   1.00000                          
 Structure written by MMmdl.
 39 41  0  0  0  0  0  0  0  0999 V2000
   26.4118   22.1125   16.4515 C   0  0  0  0  0  0
   25.4652   21.4828   17.2707 N   0  0  0  0  0  0
   26.1904   20.9336   18.3134 C   0  0  0  0  0  0
   27.5048   21.3233   18.1603 C   0  0  0  0  0  0
   27.6183   22.0672   17.0002 N   0  0  0  0  0  0
   24.0431   21.3924   17.1305 C   0  0  0  0  0  0
   26.1838   22.6930   15.1258 C   0  0  0  0  0  0
   23.3324   22.2643   16.2938 C   0  0  0  0  0  0
   21.9410   22.1587   16.1706 C   0  0  0  0  0  0
   21.2504   21.1791   16.8852 C   0  0  0  0  0  0
   21.9395   20.3178   17.7388 C   0  0  0  0  0  0
   23.3298   20.4258   17.8619 C   0  0  0  0  0  0
   26.4576   24.0524   14.9244 C   0  0  0  0  0  0
   26.2638   24.6273   13.6725 C   0  0  0  0  0  0
   25.8132   23.8204   12.6457 C   0  0  0  0  0  0
   25.5610   22.4978   12.7882 N   0  0  0  0  0  0
   25.7598   21.9427   14.0187 C   0  0  0  0  0  0
   19.4868   21.0696   16.7540 S   0  0  0  0  0  0
   18.9412   22.3945   16.5171 O   0  0  0  0  0  0
   18.9754   20.2463   17.8355 O   0  0  0  0  0  0
   19.2953   20.1965   15.3377 N   0  0  0  0  0  0
   28.6750   21.0379   19.0564 C   0  0  0  0  0  0
   29.1803   22.1721   19.6234 F   0  0  0  0  0  0
   29.7083   20.4478   18.3876 F   0  0  0  0  0  0
   28.3604   20.2014   20.0883 F   0  0  0  0  0  0
   25.5049   20.4638   14.1078 C   0  0  0  0  0  0
   25.7259   20.3698   19.1104 H   0  0  0  0  0  0
   23.8116   23.0737   15.7526 H   0  0  0  0  0  0
   21.4090   22.8500   15.5199 H   0  0  0  0  0  0
   21.4104   19.5543   18.3055 H   0  0  0  0  0  0
   23.8291   19.7139   18.5158 H   0  0  0  0  0  0
   26.8167   24.6698   15.7461 H   0  0  0  0  0  0
   26.4611   25.6812   13.5032 H   0  0  0  0  0  0
   25.6449   24.2299   11.6519 H   0  0  0  0  0  0
   18.8011   20.7454   14.6296 H   0  0  0  0  0  0
   18.8247   19.3052   15.5146 H   0  0  0  0  0  0
   24.6002   20.2624   14.6870 H   0  0  0  0  0  0
   26.3562   19.9488   14.5638 H   0  0  0  0  0  0
   25.3619   20.0385   13.1086 H   0  0  0  0  0  0
  1  2  1  0  0  0
  1  5  2  0  0  0
  1  7  1  0  0  0
  2  3  1  0  0  0
  2  6  1  0  0  0
  3  4  2  0  0  0
  3 27  1  0  0  0
  4  5  1  0  0  0
  4 22  1  0  0  0
  6  8  2  0  0  0
  6 12  1  0  0  0
  7 13  2  0  0  0
  7 17  1  0  0  0
  8  9  1  0  0  0
  8 28  1  0  0  0
  9 10  2  0  0  0
  9 29  1  0  0  0
 10 11  1  0  0  0
 10 18  1  0  0  0
 11 12  2  0  0  0
 11 30  1  0  0  0
 12 31  1  0  0  0
 13 14  1  0  0  0
 13 32  1  0  0  0
 14 15  2  0  0  0
 14 33  1  0  0  0
 15 16  1  0  0  0
 15 34  1  0  0  0
 16 17  2  0  0  0
 17 26  1  0  0  0
 18 19  2  0  0  0
 18 20  2  0  0  0
 18 21  1  0  0  0
 21 35  1  0  0  0
 21 36  1  0  0  0
 22 23  1  0  0  0
 22 24  1  0  0  0
 22 25  1  0  0  0
 26 37  1  0  0  0
 26 38  1  0  0  0
 26 39  1  0  0  0
M  END
>  <Name>
4-44

>  <Family>
B.2

>  <IC50_uM>
2.800000

>  <set>
0

$$$$
4-45
  Cerius2 12120216093D 1   1.00000                          
 Structure written by MMmdl.
 39 41  0  0  0  0  0  0  0  0999 V2000
   26.4051   22.1348   16.4660 C   0  0  0  0  0  0
   25.4689   21.4549   17.2553 N   0  0  0  0  0  0
   26.1969   20.8735   18.2770 C   0  0  0  0  0  0
   27.4965   21.3240   18.1672 C   0  0  0  0  0  0
   27.6000   22.1244   17.0429 N   0  0  0  0  0  0
   24.0489   21.3674   17.1158 C   0  0  0  0  0  0
   26.1814   22.7145   15.1403 C   0  0  0  0  0  0
   23.3464   22.2542   16.2870 C   0  0  0  0  0  0
   21.9539   22.1654   16.1709 C   0  0  0  0  0  0
   21.2565   21.1902   16.8861 C   0  0  0  0  0  0
   21.9400   20.3173   17.7340 C   0  0  0  0  0  0
   23.3317   20.4081   17.8507 C   0  0  0  0  0  0
   26.4347   24.0663   14.9020 C   0  0  0  0  0  0
   26.2438   24.5970   13.6263 C   0  0  0  0  0  0
   25.8147   23.7575   12.6033 C   0  0  0  0  0  0
   25.5801   22.4359   12.7973 N   0  0  0  0  0  0
   25.7737   21.9476   14.0523 C   0  0  0  0  0  0
   19.4908   21.1007   16.7660 S   0  0  0  0  0  0
   18.9574   22.4331   16.5431 O   0  0  0  0  0  0
   18.9785   20.2746   17.8450 O   0  0  0  0  0  0
   19.2801   20.2411   15.3442 N   0  0  0  0  0  0
   28.6619   21.0448   19.0715 C   0  0  0  0  0  0
   29.1358   22.1770   19.6686 F   0  0  0  0  0  0
   29.7157   20.4916   18.4030 F   0  0  0  0  0  0
   28.3535   20.1797   20.0816 F   0  0  0  0  0  0
   25.6027   24.3060   11.2231 C   0  0  0  0  0  0
   25.7389   20.2568   19.0379 H   0  0  0  0  0  0
   23.8398   23.0607   15.7509 H   0  0  0  0  0  0
   21.4262   22.8658   15.5265 H   0  0  0  0  0  0
   21.4040   19.5592   18.3014 H   0  0  0  0  0  0
   23.8301   19.6921   18.5012 H   0  0  0  0  0  0
   26.7785   24.7138   15.7065 H   0  0  0  0  0  0
   26.4326   25.6510   13.4396 H   0  0  0  0  0  0
   25.5895   20.8796   14.1557 H   0  0  0  0  0  0
   18.7869   20.8011   14.6441 H   0  0  0  0  0  0
   18.8011   19.3536   15.5172 H   0  0  0  0  0  0
   25.2611   23.5207   10.5411 H   0  0  0  0  0  0
   26.5390   24.7151   10.8310 H   0  0  0  0  0  0
   24.8443   25.0948   11.2420 H   0  0  0  0  0  0
  1  2  1  0  0  0
  1  5  2  0  0  0
  1  7  1  0  0  0
  2  3  1  0  0  0
  2  6  1  0  0  0
  3  4  2  0  0  0
  3 27  1  0  0  0
  4  5  1  0  0  0
  4 22  1  0  0  0
  6  8  2  0  0  0
  6 12  1  0  0  0
  7 13  2  0  0  0
  7 17  1  0  0  0
  8  9  1  0  0  0
  8 28  1  0  0  0
  9 10  2  0  0  0
  9 29  1  0  0  0
 10 11  1  0  0  0
 10 18  1  0  0  0
 11 12  2  0  0  0
 11 30  1  0  0  0
 12 31  1  0  0  0
 13 14  1  0  0  0
 13 32  1  0  0  0
 14 15  2  0  0  0
 14 33  1  0  0  0
 15 16  1  0  0  0
 15 26  1  0  0  0
 16 17  2  0  0  0
 17 34  1  0  0  0
 18 19  2  0  0  0
 18 20  2  0  0  0
 18 21  1  0  0  0
 21 35  1  0  0  0
 21 36  1  0  0  0
 22 23  1  0  0  0
 22 24  1  0  0  0
 22 25  1  0  0  0
 26 37  1  0  0  0
 26 38  1  0  0  0
 26 39  1  0  0  0
M  END
>  <Name>
4-45

>  <Family>
B.2

>  <IC50_uM>
0.290000

>  <set>
0

$$$$
4-46
  Cerius2 12120216093D 1   1.00000                          
 Structure written by MMmdl.
 39 41  0  0  0  0  0  0  0  0999 V2000
   26.4045   22.1335   16.4654 C   0  0  0  0  0  0
   25.4682   21.4551   17.2558 N   0  0  0  0  0  0
   26.1964   20.8752   18.2782 C   0  0  0  0  0  0
   27.4961   21.3248   18.1674 C   0  0  0  0  0  0
   27.5995   22.1236   17.0418 N   0  0  0  0  0  0
   24.0482   21.3675   17.1166 C   0  0  0  0  0  0
   26.1807   22.7120   15.1389 C   0  0  0  0  0  0
   23.3457   22.2544   16.2878 C   0  0  0  0  0  0
   21.9532   22.1654   16.1714 C   0  0  0  0  0  0
   21.2560   21.1902   16.8865 C   0  0  0  0  0  0
   21.9395   20.3176   17.7348 C   0  0  0  0  0  0
   23.3311   20.4082   17.8516 C   0  0  0  0  0  0
   26.4301   24.0677   14.9027 C   0  0  0  0  0  0
   26.2484   24.6072   13.6248 C   0  0  0  0  0  0
   25.8073   23.7527   12.6203 C   0  0  0  0  0  0
   25.5739   22.4299   12.7995 N   0  0  0  0  0  0
   25.7744   21.9419   14.0519 C   0  0  0  0  0  0
   19.4903   21.0987   16.7671 S   0  0  0  0  0  0
   18.9543   22.4298   16.5439 O   0  0  0  0  0  0
   18.9802   20.2719   17.8467 O   0  0  0  0  0  0
   19.2801   20.2391   15.3451 N   0  0  0  0  0  0
   28.6615   21.0470   19.0721 C   0  0  0  0  0  0
   29.1169   22.1760   19.6896 F   0  0  0  0  0  0
   29.7259   20.5193   18.3997 F   0  0  0  0  0  0
   28.3608   20.1615   20.0668 F   0  0  0  0  0  0
   26.4633   26.0651   13.3614 C   0  0  0  0  0  0
   25.7383   20.2600   19.0405 H   0  0  0  0  0  0
   23.8391   23.0610   15.7517 H   0  0  0  0  0  0
   21.4258   22.8660   15.5269 H   0  0  0  0  0  0
   21.4031   19.5595   18.3020 H   0  0  0  0  0  0
   23.8296   19.6922   18.5020 H   0  0  0  0  0  0
   26.7651   24.7059   15.7195 H   0  0  0  0  0  0
   25.6283   24.1209   11.6113 H   0  0  0  0  0  0
   25.5946   20.8733   14.1567 H   0  0  0  0  0  0
   18.7863   20.7988   14.6453 H   0  0  0  0  0  0
   18.8020   19.3510   15.5179 H   0  0  0  0  0  0
   26.7803   26.2328   12.3267 H   0  0  0  0  0  0
   27.2480   26.4671   14.0107 H   0  0  0  0  0  0
   25.5369   26.6190   13.5417 H   0  0  0  0  0  0
  1  2  1  0  0  0
  1  5  2  0  0  0
  1  7  1  0  0  0
  2  3  1  0  0  0
  2  6  1  0  0  0
  3  4  2  0  0  0
  3 27  1  0  0  0
  4  5  1  0  0  0
  4 22  1  0  0  0
  6  8  2  0  0  0
  6 12  1  0  0  0
  7 13  2  0  0  0
  7 17  1  0  0  0
  8  9  1  0  0  0
  8 28  1  0  0  0
  9 10  2  0  0  0
  9 29  1  0  0  0
 10 11  1  0  0  0
 10 18  1  0  0  0
 11 12  2  0  0  0
 11 30  1  0  0  0
 12 31  1  0  0  0
 13 14  1  0  0  0
 13 32  1  0  0  0
 14 15  2  0  0  0
 14 26  1  0  0  0
 15 16  1  0  0  0
 15 33  1  0  0  0
 16 17  2  0  0  0
 17 34  1  0  0  0
 18 19  2  0  0  0
 18 20  2  0  0  0
 18 21  1  0  0  0
 21 35  1  0  0  0
 21 36  1  0  0  0
 22 23  1  0  0  0
 22 24  1  0  0  0
 22 25  1  0  0  0
 26 37  1  0  0  0
 26 38  1  0  0  0
 26 39  1  0  0  0
M  END
>  <Name>
4-46

>  <Family>
B.2

>  <IC50_uM>
0.510000

>  <set>
0

$$$$
4-47
  Cerius2 12120216093D 1   1.00000                          
 Structure written by MMmdl.
 39 41  0  0  0  0  0  0  0  0999 V2000
   26.4147   22.1363   16.4738 C   0  0  0  0  0  0
   25.4730   21.4620   17.2622 N   0  0  0  0  0  0
   26.1985   20.8722   18.2814 C   0  0  0  0  0  0
   27.5078   21.2881   18.1549 C   0  0  0  0  0  0
   27.6184   22.0827   17.0281 N   0  0  0  0  0  0
   24.0525   21.3767   17.1174 C   0  0  0  0  0  0
   26.1817   22.7408   15.1580 C   0  0  0  0  0  0
   23.3510   22.2604   16.2844 C   0  0  0  0  0  0
   21.9589   22.1689   16.1619 C   0  0  0  0  0  0
   21.2599   21.1933   16.8743 C   0  0  0  0  0  0
   21.9413   20.3222   17.7253 C   0  0  0  0  0  0
   23.3323   20.4157   17.8480 C   0  0  0  0  0  0
   26.4147   24.1041   14.9022 C   0  0  0  0  0  0
   26.2067   24.5896   13.6037 C   0  0  0  0  0  0
   25.7765   23.7176   12.6154 C   0  0  0  0  0  0
   25.5486   22.4022   12.8247 N   0  0  0  0  0  0
   25.7628   21.9473   14.0871 C   0  0  0  0  0  0
   19.4949   21.0988   16.7478 S   0  0  0  0  0  0
   18.9570   22.4295   16.5264 O   0  0  0  0  0  0
   18.9826   20.2678   17.8230 O   0  0  0  0  0  0
   19.2918   20.2433   15.3223 N   0  0  0  0  0  0
   28.6775   20.9785   19.0432 C   0  0  0  0  0  0
   29.2595   22.1068   19.5446 F   0  0  0  0  0  0
   29.6606   20.2972   18.3857 F   0  0  0  0  0  0
   28.3365   20.2129   20.1210 F   0  0  0  0  0  0
   26.8955   25.0460   15.9719 C   0  0  0  0  0  0
   25.7354   20.2669   19.0483 H   0  0  0  0  0  0
   23.8418   23.0680   15.7490 H   0  0  0  0  0  0
   21.4335   22.8682   15.5146 H   0  0  0  0  0  0
   21.4040   19.5629   18.2902 H   0  0  0  0  0  0
   23.8276   19.6993   18.5004 H   0  0  0  0  0  0
   26.3762   25.6345   13.3566 H   0  0  0  0  0  0
   25.6055   24.0733   11.6014 H   0  0  0  0  0  0
   25.5873   20.8805   14.2188 H   0  0  0  0  0  0
   18.7999   20.8046   14.6222 H   0  0  0  0  0  0
   18.8141   19.3540   15.4905 H   0  0  0  0  0  0
   27.9387   24.8318   16.2238 H   0  0  0  0  0  0
   26.2759   24.9594   16.8705 H   0  0  0  0  0  0
   26.8361   26.0884   15.6407 H   0  0  0  0  0  0
  1  2  1  0  0  0
  1  5  2  0  0  0
  1  7  1  0  0  0
  2  3  1  0  0  0
  2  6  1  0  0  0
  3  4  2  0  0  0
  3 27  1  0  0  0
  4  5  1  0  0  0
  4 22  1  0  0  0
  6  8  2  0  0  0
  6 12  1  0  0  0
  7 13  2  0  0  0
  7 17  1  0  0  0
  8  9  1  0  0  0
  8 28  1  0  0  0
  9 10  2  0  0  0
  9 29  1  0  0  0
 10 11  1  0  0  0
 10 18  1  0  0  0
 11 12  2  0  0  0
 11 30  1  0  0  0
 12 31  1  0  0  0
 13 14  1  0  0  0
 13 26  1  0  0  0
 14 15  2  0  0  0
 14 32  1  0  0  0
 15 16  1  0  0  0
 15 33  1  0  0  0
 16 17  2  0  0  0
 17 34  1  0  0  0
 18 19  2  0  0  0
 18 20  2  0  0  0
 18 21  1  0  0  0
 21 35  1  0  0  0
 21 36  1  0  0  0
 22 23  1  0  0  0
 22 24  1  0  0  0
 22 25  1  0  0  0
 26 37  1  0  0  0
 26 38  1  0  0  0
 26 39  1  0  0  0
M  END
>  <Name>
4-47

>  <Family>
B.2

>  <IC50_uM>
51.000000

>  <set>
0

$$$$
4-48
  Cerius2 12120216093D 1   1.00000                          
 Structure written by MMmdl.
 40 42  0  0  0  0  0  0  0  0999 V2000
   26.4032   22.1341   16.4647 C   0  0  0  0  0  0
   25.4677   21.4554   17.2558 N   0  0  0  0  0  0
   26.1965   20.8751   18.2774 C   0  0  0  0  0  0
   27.4960   21.3257   18.1660 C   0  0  0  0  0  0
   27.5983   22.1250   17.0406 N   0  0  0  0  0  0
   24.0477   21.3679   17.1173 C   0  0  0  0  0  0
   26.1798   22.7109   15.1373 C   0  0  0  0  0  0
   23.3451   22.2546   16.2883 C   0  0  0  0  0  0
   21.9527   22.1652   16.1721 C   0  0  0  0  0  0
   21.2557   21.1899   16.8875 C   0  0  0  0  0  0
   21.9394   20.3175   17.7359 C   0  0  0  0  0  0
   23.3310   20.4088   17.8528 C   0  0  0  0  0  0
   26.4341   24.0662   14.8995 C   0  0  0  0  0  0
   26.2521   24.6094   13.6268 C   0  0  0  0  0  0
   25.8264   23.7526   12.6183 C   0  0  0  0  0  0
   25.5864   22.4270   12.7975 N   0  0  0  0  0  0
   25.7759   21.9392   14.0511 C   0  0  0  0  0  0
   19.4900   21.0978   16.7676 S   0  0  0  0  0  0
   18.9538   22.4286   16.5430 O   0  0  0  0  0  0
   18.9799   20.2719   17.8479 O   0  0  0  0  0  0
   19.2805   20.2368   15.3464 N   0  0  0  0  0  0
   28.6619   21.0484   19.0703 C   0  0  0  0  0  0
   29.1085   22.1753   19.6978 F   0  0  0  0  0  0
   29.7310   20.5335   18.3954 F   0  0  0  0  0  0
   28.3656   20.1526   20.0571 F   0  0  0  0  0  0
   26.5196   25.9440   13.5151 O   0  0  0  0  0  0
   26.9454   26.6086   14.7044 C   0  0  0  0  0  0
   25.7391   20.2593   19.0394 H   0  0  0  0  0  0
   23.8384   23.0613   15.7525 H   0  0  0  0  0  0
   21.4248   22.8656   15.5278 H   0  0  0  0  0  0
   21.4033   19.5595   18.3034 H   0  0  0  0  0  0
   23.8298   19.6933   18.5035 H   0  0  0  0  0  0
   26.7749   24.7045   15.7129 H   0  0  0  0  0  0
   25.6594   24.0958   11.6009 H   0  0  0  0  0  0
   25.5932   20.8712   14.1561 H   0  0  0  0  0  0
   18.7864   20.7957   14.6459 H   0  0  0  0  0  0
   18.8027   19.3487   15.5199 H   0  0  0  0  0  0
   27.1173   27.6600   14.4548 H   0  0  0  0  0  0
   27.8897   26.1920   15.0702 H   0  0  0  0  0  0
   26.1690   26.5694   15.4754 H   0  0  0  0  0  0
  1  2  1  0  0  0
  1  5  2  0  0  0
  1  7  1  0  0  0
  2  3  1  0  0  0
  2  6  1  0  0  0
  3  4  2  0  0  0
  3 28  1  0  0  0
  4  5  1  0  0  0
  4 22  1  0  0  0
  6  8  2  0  0  0
  6 12  1  0  0  0
  7 13  2  0  0  0
  7 17  1  0  0  0
  8  9  1  0  0  0
  8 29  1  0  0  0
  9 10  2  0  0  0
  9 30  1  0  0  0
 10 11  1  0  0  0
 10 18  1  0  0  0
 11 12  2  0  0  0
 11 31  1  0  0  0
 12 32  1  0  0  0
 13 14  1  0  0  0
 13 33  1  0  0  0
 14 15  2  0  0  0
 14 26  1  0  0  0
 15 16  1  0  0  0
 15 34  1  0  0  0
 16 17  2  0  0  0
 17 35  1  0  0  0
 18 19  2  0  0  0
 18 20  2  0  0  0
 18 21  1  0  0  0
 21 36  1  0  0  0
 21 37  1  0  0  0
 22 23  1  0  0  0
 22 24  1  0  0  0
 22 25  1  0  0  0
 26 27  1  0  0  0
 27 38  1  0  0  0
 27 39  1  0  0  0
 27 40  1  0  0  0
M  END
>  <Name>
4-48

>  <Family>
B.2

>  <IC50_uM>
>100

>  <set>
2

$$$$
4-49
  Cerius2 12120216093D 1   1.00000                          
 Structure written by MMmdl.
 36 38  0  0  0  0  0  0  0  0999 V2000
   26.4038   22.1354   16.4649 C   0  0  0  0  0  0
   25.4682   21.4554   17.2546 N   0  0  0  0  0  0
   26.1970   20.8747   18.2761 C   0  0  0  0  0  0
   27.4962   21.3264   18.1659 C   0  0  0  0  0  0
   27.5986   22.1268   17.0413 N   0  0  0  0  0  0
   24.0483   21.3675   17.1155 C   0  0  0  0  0  0
   26.1809   22.7154   15.1387 C   0  0  0  0  0  0
   23.3455   22.2544   16.2868 C   0  0  0  0  0  0
   21.9530   22.1653   16.1709 C   0  0  0  0  0  0
   21.2562   21.1901   16.8864 C   0  0  0  0  0  0
   21.9399   20.3173   17.7341 C   0  0  0  0  0  0
   23.3316   20.4080   17.8506 C   0  0  0  0  0  0
   26.4363   24.0712   14.9066 C   0  0  0  0  0  0
   26.2484   24.5979   13.6321 C   0  0  0  0  0  0
   25.8228   23.7519   12.6182 C   0  0  0  0  0  0
   25.5827   22.4270   12.7942 N   0  0  0  0  0  0
   25.7749   21.9423   14.0501 C   0  0  0  0  0  0
   19.4903   21.0997   16.7684 S   0  0  0  0  0  0
   18.9553   22.4314   16.5452 O   0  0  0  0  0  0
   18.9802   20.2738   17.8487 O   0  0  0  0  0  0
   19.2782   20.2397   15.3471 N   0  0  0  0  0  0
   28.6619   21.0489   19.0704 C   0  0  0  0  0  0
   29.1257   22.1799   19.6777 F   0  0  0  0  0  0
   29.7213   20.5092   18.3998 F   0  0  0  0  0  0
   28.3580   20.1733   20.0729 F   0  0  0  0  0  0
   26.5705   26.4262   13.2940 Br  0  0  0  0  0  0
   25.7397   20.2576   19.0372 H   0  0  0  0  0  0
   23.8384   23.0615   15.7514 H   0  0  0  0  0  0
   21.4252   22.8658   15.5269 H   0  0  0  0  0  0
   21.4039   19.5592   18.3018 H   0  0  0  0  0  0
   23.8305   19.6923   18.5010 H   0  0  0  0  0  0
   26.7776   24.7069   15.7204 H   0  0  0  0  0  0
   25.6620   24.1206   11.6078 H   0  0  0  0  0  0
   25.5924   20.8742   14.1570 H   0  0  0  0  0  0
   18.7843   20.7996   14.6474 H   0  0  0  0  0  0
   18.7995   19.3522   15.5206 H   0  0  0  0  0  0
  1  2  1  0  0  0
  1  5  2  0  0  0
  1  7  1  0  0  0
  2  3  1  0  0  0
  2  6  1  0  0  0
  3  4  2  0  0  0
  3 27  1  0  0  0
  4  5  1  0  0  0
  4 22  1  0  0  0
  6  8  2  0  0  0
  6 12  1  0  0  0
  7 13  2  0  0  0
  7 17  1  0  0  0
  8  9  1  0  0  0
  8 28  1  0  0  0
  9 10  2  0  0  0
  9 29  1  0  0  0
 10 11  1  0  0  0
 10 18  1  0  0  0
 11 12  2  0  0  0
 11 30  1  0  0  0
 12 31  1  0  0  0
 13 14  1  0  0  0
 13 32  1  0  0  0
 14 15  2  0  0  0
 14 26  1  0  0  0
 15 16  1  0  0  0
 15 33  1  0  0  0
 16 17  2  0  0  0
 17 34  1  0  0  0
 18 19  2  0  0  0
 18 20  2  0  0  0
 18 21  1  0  0  0
 21 35  1  0  0  0
 21 36  1  0  0  0
 22 23  1  0  0  0
 22 24  1  0  0  0
 22 25  1  0  0  0
M  END
>  <Name>
4-49

>  <Family>
B.2

>  <IC50_uM>
0.340000

>  <set>
2

$$$$
4-58
  Cerius2 12120216093D 1   1.00000                          
 Structure written by MMmdl.
 37 39  0  0  0  0  0  0  0  0999 V2000
   26.4066   22.1345   16.4659 C   0  0  0  0  0  0
   25.4700   21.4556   17.2558 N   0  0  0  0  0  0
   26.1991   20.8737   18.2769 C   0  0  0  0  0  0
   27.4962   21.3240   18.1616 C   0  0  0  0  0  0
   27.6021   22.1218   17.0414 N   0  0  0  0  0  0
   24.0498   21.3688   17.1172 C   0  0  0  0  0  0
   26.1813   22.7143   15.1403 C   0  0  0  0  0  0
   23.3473   22.2558   16.2885 C   0  0  0  0  0  0
   21.9549   22.1680   16.1731 C   0  0  0  0  0  0
   21.2590   21.1927   16.8888 C   0  0  0  0  0  0
   21.9407   20.3199   17.7373 C   0  0  0  0  0  0
   23.3323   20.4104   17.8529 C   0  0  0  0  0  0
   26.4347   24.0676   14.9019 C   0  0  0  0  0  0
   26.2410   24.5982   13.6275 C   0  0  0  0  0  0
   25.8111   23.7527   12.6186 C   0  0  0  0  0  0
   25.5728   22.4323   12.7985 N   0  0  0  0  0  0
   25.7700   21.9450   14.0532 C   0  0  0  0  0  0
   19.4878   21.0979   16.7582 S   0  0  0  0  0  0
   18.9780   22.4549   16.5872 O   0  0  0  0  0  0
   18.9954   20.3083   17.8829 O   0  0  0  0  0  0
   19.2250   20.1890   15.2586 C   0  0  0  0  0  0
   28.6622   21.0460   19.0578 C   0  0  0  0  0  0
   29.1717   22.2064   19.5736 F   0  0  0  0  0  0
   29.6924   20.4766   18.3605 F   0  0  0  0  0  0
   25.7404   20.2574   19.0379 H   0  0  0  0  0  0
   23.8411   23.0621   15.7525 H   0  0  0  0  0  0
   21.4286   22.8708   15.5300 H   0  0  0  0  0  0
   21.4067   19.5627   18.3079 H   0  0  0  0  0  0
   23.8310   19.6950   18.5042 H   0  0  0  0  0  0
   26.7806   24.7144   15.7062 H   0  0  0  0  0  0
   26.4253   25.6491   13.4261 H   0  0  0  0  0  0
   25.6488   24.1309   11.6113 H   0  0  0  0  0  0
   25.5861   20.8772   14.1589 H   0  0  0  0  0  0
   18.1482   20.0869   15.1085 H   0  0  0  0  0  0
   19.6818   19.2024   15.3561 H   0  0  0  0  0  0
   19.6655   20.7408   14.4261 H   0  0  0  0  0  0
   28.4005   20.3848   19.8884 H   0  0  0  0  0  0
  1  2  1  0  0  0
  1  5  2  0  0  0
  1  7  1  0  0  0
  2  3  1  0  0  0
  2  6  1  0  0  0
  3  4  2  0  0  0
  3 25  1  0  0  0
  4  5  1  0  0  0
  4 22  1  0  0  0
  6  8  2  0  0  0
  6 12  1  0  0  0
  7 13  2  0  0  0
  7 17  1  0  0  0
  8  9  1  0  0  0
  8 26  1  0  0  0
  9 10  2  0  0  0
  9 27  1  0  0  0
 10 11  1  0  0  0
 10 18  1  0  0  0
 11 12  2  0  0  0
 11 28  1  0  0  0
 12 29  1  0  0  0
 13 14  1  0  0  0
 13 30  1  0  0  0
 14 15  2  0  0  0
 14 31  1  0  0  0
 15 16  1  0  0  0
 15 32  1  0  0  0
 16 17  2  0  0  0
 17 33  1  0  0  0
 18 19  2  0  0  0
 18 20  2  0  0  0
 18 21  1  0  0  0
 21 34  1  0  0  0
 21 35  1  0  0  0
 21 36  1  0  0  0
 22 23  1  0  0  0
 22 24  1  0  0  0
 22 37  1  0  0  0
M  END
>  <Name>
4-58

>  <Family>
B.2

>  <IC50_uM>
20.700000

>  <set>
1

$$$$
4-59
  Cerius2 12120216093D 1   1.00000                          
 Structure written by MMmdl.
 35 37  0  0  0  0  0  0  0  0999 V2000
   26.4076   22.1350   16.4655 C   0  0  0  0  0  0
   25.4698   21.4541   17.2573 N   0  0  0  0  0  0
   26.1971   20.8715   18.2794 C   0  0  0  0  0  0
   27.4819   21.3308   18.1475 C   0  0  0  0  0  0
   27.6051   22.1248   17.0392 N   0  0  0  0  0  0
   24.0499   21.3678   17.1181 C   0  0  0  0  0  0
   26.1806   22.7143   15.1398 C   0  0  0  0  0  0
   23.3483   22.2553   16.2894 C   0  0  0  0  0  0
   21.9559   22.1680   16.1733 C   0  0  0  0  0  0
   21.2593   21.1928   16.8886 C   0  0  0  0  0  0
   21.9403   20.3197   17.7374 C   0  0  0  0  0  0
   23.3319   20.4097   17.8537 C   0  0  0  0  0  0
   26.4342   24.0676   14.9016 C   0  0  0  0  0  0
   26.2399   24.5982   13.6274 C   0  0  0  0  0  0
   25.8095   23.7528   12.6185 C   0  0  0  0  0  0
   25.5713   22.4325   12.7985 N   0  0  0  0  0  0
   25.7689   21.9450   14.0529 C   0  0  0  0  0  0
   19.4881   21.0992   16.7564 S   0  0  0  0  0  0
   18.9799   22.4567   16.5848 O   0  0  0  0  0  0
   18.9937   20.3099   17.8804 O   0  0  0  0  0  0
   19.2263   20.1903   15.2567 C   0  0  0  0  0  0
   28.5938   21.0619   19.0091 C   0  0  0  0  0  0
   29.4973   20.8420   19.7111 N   0  0  0  0  0  0
   25.7434   20.2553   19.0424 H   0  0  0  0  0  0
   23.8422   23.0619   15.7538 H   0  0  0  0  0  0
   21.4299   22.8710   15.5302 H   0  0  0  0  0  0
   21.4057   19.5626   18.3077 H   0  0  0  0  0  0
   23.8299   19.6942   18.5052 H   0  0  0  0  0  0
   26.7804   24.7148   15.7053 H   0  0  0  0  0  0
   26.4240   25.6491   13.4260 H   0  0  0  0  0  0
   25.6466   24.1311   11.6114 H   0  0  0  0  0  0
   25.5849   20.8772   14.1584 H   0  0  0  0  0  0
   18.1494   20.0883   15.1059 H   0  0  0  0  0  0
   19.6828   19.2036   15.3544 H   0  0  0  0  0  0
   19.6671   20.7420   14.4243 H   0  0  0  0  0  0
  1  2  1  0  0  0
  1  5  2  0  0  0
  1  7  1  0  0  0
  2  3  1  0  0  0
  2  6  1  0  0  0
  3  4  2  0  0  0
  3 24  1  0  0  0
  4  5  1  0  0  0
  4 22  1  0  0  0
  6  8  2  0  0  0
  6 12  1  0  0  0
  7 13  2  0  0  0
  7 17  1  0  0  0
  8  9  1  0  0  0
  8 25  1  0  0  0
  9 10  2  0  0  0
  9 26  1  0  0  0
 10 11  1  0  0  0
 10 18  1  0  0  0
 11 12  2  0  0  0
 11 27  1  0  0  0
 12 28  1  0  0  0
 13 14  1  0  0  0
 13 29  1  0  0  0
 14 15  2  0  0  0
 14 30  1  0  0  0
 15 16  1  0  0  0
 15 31  1  0  0  0
 16 17  2  0  0  0
 17 32  1  0  0  0
 18 19  2  0  0  0
 18 20  2  0  0  0
 18 21  1  0  0  0
 21 33  1  0  0  0
 21 34  1  0  0  0
 21 35  1  0  0  0
 22 23  3  0  0  0
M  END
>  <Name>
4-59

>  <Family>
B.2

>  <IC50_uM>
24.400000

>  <set>
2

$$$$
4-60
  Cerius2 12120216093D 1   1.00000                          
 Structure written by MMmdl.
 37 39  0  0  0  0  0  0  0  0999 V2000
   26.4075   22.1343   16.4657 C   0  0  0  0  0  0
   25.4689   21.4567   17.2555 N   0  0  0  0  0  0
   26.1994   20.8761   18.2762 C   0  0  0  0  0  0
   27.4910   21.3261   18.1503 C   0  0  0  0  0  0
   27.6037   22.1181   17.0412 N   0  0  0  0  0  0
   24.0488   21.3700   17.1173 C   0  0  0  0  0  0
   26.1828   22.7146   15.1402 C   0  0  0  0  0  0
   23.3456   22.2563   16.2884 C   0  0  0  0  0  0
   21.9533   22.1676   16.1730 C   0  0  0  0  0  0
   21.2581   21.1920   16.8889 C   0  0  0  0  0  0
   21.9402   20.3199   17.7377 C   0  0  0  0  0  0
   23.3319   20.4113   17.8533 C   0  0  0  0  0  0
   26.4362   24.0680   14.9018 C   0  0  0  0  0  0
   26.2415   24.5988   13.6277 C   0  0  0  0  0  0
   25.8108   23.7533   12.6190 C   0  0  0  0  0  0
   25.5724   22.4329   12.7989 N   0  0  0  0  0  0
   25.7705   21.9454   14.0534 C   0  0  0  0  0  0
   19.4868   21.0960   16.7587 S   0  0  0  0  0  0
   18.9760   22.4526   16.5876 O   0  0  0  0  0  0
   18.9953   20.3063   17.8836 O   0  0  0  0  0  0
   19.2242   20.1870   15.2592 C   0  0  0  0  0  0
   28.6587   21.0638   19.0213 C   0  0  0  0  0  0
   25.7429   20.2617   19.0397 H   0  0  0  0  0  0
   23.8388   23.0629   15.7523 H   0  0  0  0  0  0
   21.4265   22.8700   15.5298 H   0  0  0  0  0  0
   21.4066   19.5626   18.3084 H   0  0  0  0  0  0
   23.8312   19.6966   18.5048 H   0  0  0  0  0  0
   26.7826   24.7144   15.7061 H   0  0  0  0  0  0
   26.4259   25.6496   13.4263 H   0  0  0  0  0  0
   25.6477   24.1316   11.6119 H   0  0  0  0  0  0
   25.5863   20.8778   14.1594 H   0  0  0  0  0  0
   18.1473   20.0846   15.1092 H   0  0  0  0  0  0
   19.6812   19.2005   15.3565 H   0  0  0  0  0  0
   19.6642   20.7390   14.4266 H   0  0  0  0  0  0
   29.5073   20.7142   18.4251 H   0  0  0  0  0  0
   28.4316   20.3000   19.7716 H   0  0  0  0  0  0
   28.9553   21.9793   19.5419 H   0  0  0  0  0  0
  1  2  1  0  0  0
  1  5  2  0  0  0
  1  7  1  0  0  0
  2  3  1  0  0  0
  2  6  1  0  0  0
  3  4  2  0  0  0
  3 23  1  0  0  0
  4  5  1  0  0  0
  4 22  1  0  0  0
  6  8  2  0  0  0
  6 12  1  0  0  0
  7 13  2  0  0  0
  7 17  1  0  0  0
  8  9  1  0  0  0
  8 24  1  0  0  0
  9 10  2  0  0  0
  9 25  1  0  0  0
 10 11  1  0  0  0
 10 18  1  0  0  0
 11 12  2  0  0  0
 11 26  1  0  0  0
 12 27  1  0  0  0
 13 14  1  0  0  0
 13 28  1  0  0  0
 14 15  2  0  0  0
 14 29  1  0  0  0
 15 16  1  0  0  0
 15 30  1  0  0  0
 16 17  2  0  0  0
 17 31  1  0  0  0
 18 19  2  0  0  0
 18 20  2  0  0  0
 18 21  1  0  0  0
 21 32  1  0  0  0
 21 33  1  0  0  0
 21 34  1  0  0  0
 22 35  1  0  0  0
 22 36  1  0  0  0
 22 37  1  0  0  0
M  END
>  <Name>
4-60

>  <Family>
B.2

>  <IC50_uM>
79.000000

>  <set>
1

$$$$
4-61
  Cerius2 12120216093D 1   1.00000                          
 Structure written by MMmdl.
 43 45  0  0  0  0  0  0  0  0999 V2000
   26.4060   22.1344   16.4658 C   0  0  0  0  0  0
   25.4701   21.4552   17.2560 N   0  0  0  0  0  0
   26.1983   20.8733   18.2761 C   0  0  0  0  0  0
   27.4948   21.3254   18.1611 C   0  0  0  0  0  0
   27.6012   22.1234   17.0411 N   0  0  0  0  0  0
   24.0500   21.3685   17.1177 C   0  0  0  0  0  0
   26.1810   22.7139   15.1401 C   0  0  0  0  0  0
   23.3477   22.2557   16.2890 C   0  0  0  0  0  0
   21.9554   22.1680   16.1734 C   0  0  0  0  0  0
   21.2593   21.1928   16.8890 C   0  0  0  0  0  0
   21.9409   20.3200   17.7377 C   0  0  0  0  0  0
   23.3326   20.4102   17.8535 C   0  0  0  0  0  0
   26.4347   24.0674   14.9024 C   0  0  0  0  0  0
   26.2419   24.5982   13.6281 C   0  0  0  0  0  0
   25.8126   23.7529   12.6185 C   0  0  0  0  0  0
   25.5742   22.4325   12.7979 N   0  0  0  0  0  0
   25.7705   21.9448   14.0526 C   0  0  0  0  0  0
   19.4880   21.0980   16.7582 S   0  0  0  0  0  0
   18.9783   22.4549   16.5871 O   0  0  0  0  0  0
   18.9956   20.3085   17.8828 O   0  0  0  0  0  0
   19.2255   20.1892   15.2586 C   0  0  0  0  0  0
   28.6004   21.0218   19.0711 C   0  0  0  0  0  0
   28.4875   20.3086   20.0658 O   0  0  0  0  0  0
   29.7670   21.6222   18.6857 O   0  0  0  0  0  0
   32.0922   22.0903   18.9820 C   0  0  0  0  0  0
   30.8873   21.3594   19.5414 C   0  0  0  0  0  0
   25.7423   20.2563   19.0377 H   0  0  0  0  0  0
   23.8415   23.0623   15.7532 H   0  0  0  0  0  0
   21.4292   22.8709   15.5303 H   0  0  0  0  0  0
   21.4066   19.5628   18.3081 H   0  0  0  0  0  0
   23.8310   19.6949   18.5049 H   0  0  0  0  0  0
   26.7801   24.7141   15.7068 H   0  0  0  0  0  0
   26.4263   25.6491   13.4271 H   0  0  0  0  0  0
   25.6509   24.1313   11.6113 H   0  0  0  0  0  0
   25.5866   20.8770   14.1576 H   0  0  0  0  0  0
   18.1486   20.0875   15.1081 H   0  0  0  0  0  0
   19.6818   19.2024   15.3562 H   0  0  0  0  0  0
   19.6663   20.7409   14.4261 H   0  0  0  0  0  0
   32.9756   21.9192   19.6034 H   0  0  0  0  0  0
   31.8996   23.1670   18.9293 H   0  0  0  0  0  0
   32.3070   21.7551   17.9618 H   0  0  0  0  0  0
   31.0864   20.2823   19.5676 H   0  0  0  0  0  0
   30.6712   21.7206   20.5529 H   0  0  0  0  0  0
  1  2  1  0  0  0
  1  5  2  0  0  0
  1  7  1  0  0  0
  2  3  1  0  0  0
  2  6  1  0  0  0
  3  4  2  0  0  0
  3 27  1  0  0  0
  4  5  1  0  0  0
  4 22  1  0  0  0
  6  8  2  0  0  0
  6 12  1  0  0  0
  7 13  2  0  0  0
  7 17  1  0  0  0
  8  9  1  0  0  0
  8 28  1  0  0  0
  9 10  2  0  0  0
  9 29  1  0  0  0
 10 11  1  0  0  0
 10 18  1  0  0  0
 11 12  2  0  0  0
 11 30  1  0  0  0
 12 31  1  0  0  0
 13 14  1  0  0  0
 13 32  1  0  0  0
 14 15  2  0  0  0
 14 33  1  0  0  0
 15 16  1  0  0  0
 15 34  1  0  0  0
 16 17  2  0  0  0
 17 35  1  0  0  0
 18 19  2  0  0  0
 18 20  2  0  0  0
 18 21  1  0  0  0
 21 36  1  0  0  0
 21 37  1  0  0  0
 21 38  1  0  0  0
 22 23  2  0  0  0
 22 24  1  0  0  0
 24 26  1  0  0  0
 25 26  1  0  0  0
 25 39  1  0  0  0
 25 40  1  0  0  0
 25 41  1  0  0  0
 26 42  1  0  0  0
 26 43  1  0  0  0
M  END
>  <Name>
4-61

>  <Family>
B.2

>  <IC50_uM>
>100

>  <set>
2

$$$$
4-62
  Cerius2 12120216093D 1   1.00000                          
 Structure written by MMmdl.
 38 40  0  0  0  0  0  0  0  0999 V2000
   26.4076   22.1346   16.4663 C   0  0  0  0  0  0
   25.4698   21.4564   17.2563 N   0  0  0  0  0  0
   26.1996   20.8739   18.2756 C   0  0  0  0  0  0
   27.4932   21.3266   18.1551 C   0  0  0  0  0  0
   27.6037   22.1201   17.0412 N   0  0  0  0  0  0
   24.0496   21.3698   17.1179 C   0  0  0  0  0  0
   26.1818   22.7144   15.1406 C   0  0  0  0  0  0
   23.3469   22.2565   16.2888 C   0  0  0  0  0  0
   21.9547   22.1680   16.1730 C   0  0  0  0  0  0
   21.2590   21.1925   16.8885 C   0  0  0  0  0  0
   21.9407   20.3202   17.7375 C   0  0  0  0  0  0
   23.3322   20.4113   17.8537 C   0  0  0  0  0  0
   26.4349   24.0677   14.9016 C   0  0  0  0  0  0
   26.2393   24.5979   13.6275 C   0  0  0  0  0  0
   25.8079   23.7521   12.6192 C   0  0  0  0  0  0
   25.5698   22.4317   12.7999 N   0  0  0  0  0  0
   25.7687   21.9448   14.0544 C   0  0  0  0  0  0
   19.4879   21.0975   16.7565 S   0  0  0  0  0  0
   18.9787   22.4548   16.5848 O   0  0  0  0  0  0
   18.9940   20.3082   17.8806 O   0  0  0  0  0  0
   19.2263   20.1883   15.2569 C   0  0  0  0  0  0
   28.6601   21.0582   19.0437 C   0  0  0  0  0  0
   28.7538   22.0363   20.0841 O   0  0  0  0  0  0
   25.7441   20.2599   19.0398 H   0  0  0  0  0  0
   23.8406   23.0631   15.7530 H   0  0  0  0  0  0
   21.4281   22.8705   15.5297 H   0  0  0  0  0  0
   21.4069   19.5628   18.3081 H   0  0  0  0  0  0
   23.8313   19.6967   18.5053 H   0  0  0  0  0  0
   26.7818   24.7145   15.7053 H   0  0  0  0  0  0
   26.4232   25.6487   13.4254 H   0  0  0  0  0  0
   25.6440   24.1300   11.6121 H   0  0  0  0  0  0
   25.5848   20.8771   14.1610 H   0  0  0  0  0  0
   18.1496   20.0864   15.1059 H   0  0  0  0  0  0
   19.6828   19.2016   15.3551 H   0  0  0  0  0  0
   19.6675   20.7397   14.4246 H   0  0  0  0  0  0
   29.5893   21.0833   18.4649 H   0  0  0  0  0  0
   28.5651   20.0703   19.5062 H   0  0  0  0  0  0
   29.5491   21.7771   20.5950 H   0  0  0  0  0  0
  1  2  1  0  0  0
  1  5  2  0  0  0
  1  7  1  0  0  0
  2  3  1  0  0  0
  2  6  1  0  0  0
  3  4  2  0  0  0
  3 24  1  0  0  0
  4  5  1  0  0  0
  4 22  1  0  0  0
  6  8  2  0  0  0
  6 12  1  0  0  0
  7 13  2  0  0  0
  7 17  1  0  0  0
  8  9  1  0  0  0
  8 25  1  0  0  0
  9 10  2  0  0  0
  9 26  1  0  0  0
 10 11  1  0  0  0
 10 18  1  0  0  0
 11 12  2  0  0  0
 11 27  1  0  0  0
 12 28  1  0  0  0
 13 14  1  0  0  0
 13 29  1  0  0  0
 14 15  2  0  0  0
 14 30  1  0  0  0
 15 16  1  0  0  0
 15 31  1  0  0  0
 16 17  2  0  0  0
 17 32  1  0  0  0
 18 19  2  0  0  0
 18 20  2  0  0  0
 18 21  1  0  0  0
 21 33  1  0  0  0
 21 34  1  0  0  0
 21 35  1  0  0  0
 22 23  1  0  0  0
 22 36  1  0  0  0
 22 37  1  0  0  0
 23 38  1  0  0  0
M  END
>  <Name>
4-62

>  <Family>
B.2

>  <IC50_uM>
93.400000

>  <set>
2

$$$$
4-63
  Cerius2 12120216093D 1   1.00000                          
 Structure written by MMmdl.
 36 38  0  0  0  0  0  0  0  0999 V2000
   26.4060   22.1347   16.4662 C   0  0  0  0  0  0
   25.4690   21.4557   17.2556 N   0  0  0  0  0  0
   26.1978   20.8742   18.2773 C   0  0  0  0  0  0
   27.4948   21.3249   18.1626 C   0  0  0  0  0  0
   27.6012   22.1225   17.0424 N   0  0  0  0  0  0
   24.0489   21.3685   17.1162 C   0  0  0  0  0  0
   26.1816   22.7143   15.1403 C   0  0  0  0  0  0
   23.3466   22.2552   16.2870 C   0  0  0  0  0  0
   21.9542   22.1662   16.1701 C   0  0  0  0  0  0
   21.2568   21.1910   16.8849 C   0  0  0  0  0  0
   21.9400   20.3184   17.7334 C   0  0  0  0  0  0
   23.3315   20.4092   17.8509 C   0  0  0  0  0  0
   26.4352   24.0678   14.9020 C   0  0  0  0  0  0
   26.2424   24.5983   13.6277 C   0  0  0  0  0  0
   25.8133   23.7528   12.6182 C   0  0  0  0  0  0
   25.5752   22.4324   12.7980 N   0  0  0  0  0  0
   25.7712   21.9450   14.0529 C   0  0  0  0  0  0
   19.4911   21.0996   16.7648 S   0  0  0  0  0  0
   18.9554   22.4308   16.5414 O   0  0  0  0  0  0
   18.9803   20.2727   17.8440 O   0  0  0  0  0  0
   19.2816   20.2401   15.3426 N   0  0  0  0  0  0
   28.6603   21.0479   19.0597 C   0  0  0  0  0  0
   29.1575   22.2073   19.5894 F   0  0  0  0  0  0
   29.6980   20.4952   18.3600 F   0  0  0  0  0  0
   25.7389   20.2582   19.0382 H   0  0  0  0  0  0
   23.8403   23.0618   15.7512 H   0  0  0  0  0  0
   21.4271   22.8667   15.5253 H   0  0  0  0  0  0
   21.4035   19.5601   18.3004 H   0  0  0  0  0  0
   23.8300   19.6933   18.5016 H   0  0  0  0  0  0
   26.7805   24.7144   15.7065 H   0  0  0  0  0  0
   26.4267   25.6492   13.4264 H   0  0  0  0  0  0
   25.6517   24.1310   11.6110 H   0  0  0  0  0  0
   25.5871   20.8773   14.1585 H   0  0  0  0  0  0
   18.7876   20.7999   14.6427 H   0  0  0  0  0  0
   18.8036   19.3519   15.5153 H   0  0  0  0  0  0
   28.4019   20.3755   19.8823 H   0  0  0  0  0  0
  1  2  1  0  0  0
  1  5  2  0  0  0
  1  7  1  0  0  0
  2  3  1  0  0  0
  2  6  1  0  0  0
  3  4  2  0  0  0
  3 25  1  0  0  0
  4  5  1  0  0  0
  4 22  1  0  0  0
  6  8  2  0  0  0
  6 12  1  0  0  0
  7 13  2  0  0  0
  7 17  1  0  0  0
  8  9  1  0  0  0
  8 26  1  0  0  0
  9 10  2  0  0  0
  9 27  1  0  0  0
 10 11  1  0  0  0
 10 18  1  0  0  0
 11 12  2  0  0  0
 11 28  1  0  0  0
 12 29  1  0  0  0
 13 14  1  0  0  0
 13 30  1  0  0  0
 14 15  2  0  0  0
 14 31  1  0  0  0
 15 16  1  0  0  0
 15 32  1  0  0  0
 16 17  2  0  0  0
 17 33  1  0  0  0
 18 19  2  0  0  0
 18 20  2  0  0  0
 18 21  1  0  0  0
 21 34  1  0  0  0
 21 35  1  0  0  0
 22 23  1  0  0  0
 22 24  1  0  0  0
 22 36  1  0  0  0
M  END
>  <Name>
4-63

>  <Family>
B.2

>  <IC50_uM>
1.830000

>  <set>
0

$$$$
4-50
  Cerius2 12120216093D 1   1.00000                          
 Structure written by MMmdl.
 40 42  0  0  0  0  0  0  0  0999 V2000
   26.4127   22.1489   16.4567 C   0  0  0  0  0  0
   25.4764   21.4485   17.2261 N   0  0  0  0  0  0
   26.2029   20.8509   18.2415 C   0  0  0  0  0  0
   27.4994   21.3134   18.1518 C   0  0  0  0  0  0
   27.6044   22.1399   17.0473 N   0  0  0  0  0  0
   24.0538   21.3649   17.0936 C   0  0  0  0  0  0
   26.1783   22.7453   15.1370 C   0  0  0  0  0  0
   23.3480   22.2556   16.2712 C   0  0  0  0  0  0
   21.9544   22.1746   16.1656 C   0  0  0  0  0  0
   21.2596   21.2017   16.8853 C   0  0  0  0  0  0
   21.9434   20.3253   17.7282 C   0  0  0  0  0  0
   23.3363   20.4094   17.8339 C   0  0  0  0  0  0
   26.4278   24.0919   14.9058 C   0  0  0  0  0  0
   26.2169   24.5959   13.6269 C   0  0  0  0  0  0
   25.7767   23.7422   12.6205 C   0  0  0  0  0  0
   25.5667   22.4010   12.9221 C   0  0  0  0  0  0
   25.7720   21.8915   14.1621 N   0  0  0  0  0  0
   19.4878   21.1120   16.7619 S   0  0  0  0  0  0
   18.9839   22.4676   16.5644 O   0  0  0  0  0  0
   18.9947   20.3478   17.9035 O   0  0  0  0  0  0
   19.2172   20.1734   15.2820 C   0  0  0  0  0  0
   28.6599   21.0227   19.0589 C   0  0  0  0  0  0
   29.1285   22.1471   19.6749 F   0  0  0  0  0  0
   29.7185   20.4810   18.3885 F   0  0  0  0  0  0
   28.3471   20.1428   20.0548 F   0  0  0  0  0  0
   25.0915   21.4573   11.8576 C   0  0  0  0  0  0
   25.7443   20.2154   18.9864 H   0  0  0  0  0  0
   23.8433   23.0533   15.7242 H   0  0  0  0  0  0
   21.4272   22.8782   15.5243 H   0  0  0  0  0  0
   21.4103   19.5693   18.3012 H   0  0  0  0  0  0
   23.8360   19.6904   18.4801 H   0  0  0  0  0  0
   26.7768   24.7409   15.7035 H   0  0  0  0  0  0
   26.3959   25.6477   13.4151 H   0  0  0  0  0  0
   25.6048   24.1216   11.6165 H   0  0  0  0  0  0
   18.1395   20.0726   15.1372 H   0  0  0  0  0  0
   19.6703   19.1872   15.3987 H   0  0  0  0  0  0
   19.6573   20.7059   14.4369 H   0  0  0  0  0  0
   24.9751   20.4456   12.2592 H   0  0  0  0  0  0
   25.8145   21.4178   11.0370 H   0  0  0  0  0  0
   24.1217   21.7833   11.4691 H   0  0  0  0  0  0
  1  2  1  0  0  0
  1  5  2  0  0  0
  1  7  1  0  0  0
  2  3  1  0  0  0
  2  6  1  0  0  0
  3  4  2  0  0  0
  3 27  1  0  0  0
  4  5  1  0  0  0
  4 22  1  0  0  0
  6  8  2  0  0  0
  6 12  1  0  0  0
  7 13  2  0  0  0
  7 17  1  0  0  0
  8  9  1  0  0  0
  8 28  1  0  0  0
  9 10  2  0  0  0
  9 29  1  0  0  0
 10 11  1  0  0  0
 10 18  1  0  0  0
 11 12  2  0  0  0
 11 30  1  0  0  0
 12 31  1  0  0  0
 13 14  1  0  0  0
 13 32  1  0  0  0
 14 15  2  0  0  0
 14 33  1  0  0  0
 15 16  1  0  0  0
 15 34  1  0  0  0
 16 17  2  0  0  0
 16 26  1  0  0  0
 18 19  2  0  0  0
 18 20  2  0  0  0
 18 21  1  0  0  0
 21 35  1  0  0  0
 21 36  1  0  0  0
 21 37  1  0  0  0
 22 23  1  0  0  0
 22 24  1  0  0  0
 22 25  1  0  0  0
 26 38  1  0  0  0
 26 39  1  0  0  0
 26 40  1  0  0  0
M  END
>  <Name>
4-50

>  <Family>
B.3

>  <IC50_uM>
2.900000

>  <set>
0

$$$$
4-51
  Cerius2 12120216093D 1   1.00000                          
 Structure written by MMmdl.
 40 42  0  0  0  0  0  0  0  0999 V2000
   26.4133   22.1406   16.4566 C   0  0  0  0  0  0
   25.4873   21.4492   17.2463 N   0  0  0  0  0  0
   26.2300   20.8492   18.2487 C   0  0  0  0  0  0
   27.5282   21.3003   18.1306 C   0  0  0  0  0  0
   27.6169   22.1230   17.0219 N   0  0  0  0  0  0
   24.0613   21.3771   17.1438 C   0  0  0  0  0  0
   26.1569   22.7386   15.1422 C   0  0  0  0  0  0
   23.3299   20.4142   17.8548 C   0  0  0  0  0  0
   21.9377   20.3397   17.7260 C   0  0  0  0  0  0
   21.2701   21.2286   16.8828 C   0  0  0  0  0  0
   21.9845   22.1762   16.1496 C   0  0  0  0  0  0
   23.3763   22.2477   16.2784 C   0  0  0  0  0  0
   26.4014   24.0867   14.9106 C   0  0  0  0  0  0
   26.1754   24.5976   13.6344 C   0  0  0  0  0  0
   25.7364   23.7493   12.6173 C   0  0  0  0  0  0
   25.5247   22.4140   12.9411 C   0  0  0  0  0  0
   25.7359   21.8878   14.1723 N   0  0  0  0  0  0
   19.5040   21.1188   16.7050 S   0  0  0  0  0  0
   18.9933   22.4649   16.4647 O   0  0  0  0  0  0
   18.9826   20.3724   17.8459 O   0  0  0  0  0  0
   19.2887   20.1491   15.2364 C   0  0  0  0  0  0
   28.7046   21.0034   19.0150 C   0  0  0  0  0  0
   29.1722   22.1205   19.6446 F   0  0  0  0  0  0
   29.7577   20.4836   18.3195 F   0  0  0  0  0  0
   28.4140   20.1025   19.9988 F   0  0  0  0  0  0
   25.4477   24.2676   11.2432 C   0  0  0  0  0  0
   25.7823   20.2198   19.0053 H   0  0  0  0  0  0
   23.8102   19.6756   18.4907 H   0  0  0  0  0  0
   21.3915   19.5813   18.2835 H   0  0  0  0  0  0
   21.4749   22.8681   15.4821 H   0  0  0  0  0  0
   23.8943   23.0181   15.7107 H   0  0  0  0  0  0
   26.7563   24.7342   15.7070 H   0  0  0  0  0  0
   26.3474   25.6549   13.4411 H   0  0  0  0  0  0
   25.1682   21.7071   12.1937 H   0  0  0  0  0  0
   18.2171   20.0356   15.0594 H   0  0  0  0  0  0
   19.7462   19.1694   15.3866 H   0  0  0  0  0  0
   19.7510   20.6692   14.3953 H   0  0  0  0  0  0
   25.6311   23.4960   10.4883 H   0  0  0  0  0  0
   26.0947   25.1177   11.0026 H   0  0  0  0  0  0
   24.4036   24.5881   11.1752 H   0  0  0  0  0  0
  1  2  1  0  0  0
  1  5  2  0  0  0
  1  7  1  0  0  0
  2  3  1  0  0  0
  2  6  1  0  0  0
  3  4  2  0  0  0
  3 27  1  0  0  0
  4  5  1  0  0  0
  4 22  1  0  0  0
  6  8  2  0  0  0
  6 12  1  0  0  0
  7 13  2  0  0  0
  7 17  1  0  0  0
  8  9  1  0  0  0
  8 28  1  0  0  0
  9 10  2  0  0  0
  9 29  1  0  0  0
 10 11  1  0  0  0
 10 18  1  0  0  0
 11 12  2  0  0  0
 11 30  1  0  0  0
 12 31  1  0  0  0
 13 14  1  0  0  0
 13 32  1  0  0  0
 14 15  2  0  0  0
 14 33  1  0  0  0
 15 16  1  0  0  0
 15 26  1  0  0  0
 16 17  2  0  0  0
 16 34  1  0  0  0
 18 19  2  0  0  0
 18 20  2  0  0  0
 18 21  1  0  0  0
 21 35  1  0  0  0
 21 36  1  0  0  0
 21 37  1  0  0  0
 22 23  1  0  0  0
 22 24  1  0  0  0
 22 25  1  0  0  0
 26 38  1  0  0  0
 26 39  1  0  0  0
 26 40  1  0  0  0
M  END
>  <Name>
4-51

>  <Family>
B.3

>  <IC50_uM>
1.300000

>  <set>
1

$$$$
4-52
  Cerius2 12120216093D 1   1.00000                          
 Structure written by MMmdl.
 40 42  0  0  0  0  0  0  0  0999 V2000
   26.4108   22.1474   16.4554 C   0  0  0  0  0  0
   25.4743   21.4478   17.2250 N   0  0  0  0  0  0
   26.2005   20.8555   18.2440 C   0  0  0  0  0  0
   27.4968   21.3182   18.1536 C   0  0  0  0  0  0
   27.6019   22.1414   17.0468 N   0  0  0  0  0  0
   24.0517   21.3618   17.0910 C   0  0  0  0  0  0
   26.1781   22.7425   15.1351 C   0  0  0  0  0  0
   23.3443   22.2522   16.2697 C   0  0  0  0  0  0
   21.9503   22.1714   16.1669 C   0  0  0  0  0  0
   21.2563   21.1989   16.8878 C   0  0  0  0  0  0
   21.9417   20.3216   17.7284 C   0  0  0  0  0  0
   23.3350   20.4053   17.8310 C   0  0  0  0  0  0
   26.4241   24.0931   14.9070 C   0  0  0  0  0  0
   26.2306   24.6095   13.6230 C   0  0  0  0  0  0
   25.7860   23.7488   12.6188 C   0  0  0  0  0  0
   25.5843   22.4130   12.9276 C   0  0  0  0  0  0
   25.7797   21.8875   14.1591 N   0  0  0  0  0  0
   19.4839   21.1112   16.7720 S   0  0  0  0  0  0
   18.9777   22.4703   16.6073 O   0  0  0  0  0  0
   18.9979   20.3217   17.8995 O   0  0  0  0  0  0
   19.2049   20.2059   15.2732 C   0  0  0  0  0  0
   28.6567   21.0317   19.0628 C   0  0  0  0  0  0
   29.1228   22.1585   19.6761 F   0  0  0  0  0  0
   29.7168   20.4894   18.3955 F   0  0  0  0  0  0
   28.3437   20.1542   20.0609 F   0  0  0  0  0  0
   26.4407   26.0679   13.3452 C   0  0  0  0  0  0
   25.7423   20.2223   18.9911 H   0  0  0  0  0  0
   23.8372   23.0509   15.7223 H   0  0  0  0  0  0
   21.4220   22.8757   15.5272 H   0  0  0  0  0  0
   21.4094   19.5655   18.3023 H   0  0  0  0  0  0
   23.8351   19.6856   18.4761 H   0  0  0  0  0  0
   26.7601   24.7324   15.7195 H   0  0  0  0  0  0
   25.6027   24.1034   11.6082 H   0  0  0  0  0  0
   25.2483   21.7144   12.1643 H   0  0  0  0  0  0
   18.1263   20.1082   15.1321 H   0  0  0  0  0  0
   19.6585   19.2172   15.3650 H   0  0  0  0  0  0
   19.6402   20.7574   14.4378 H   0  0  0  0  0  0
   25.5160   26.6218   13.5337 H   0  0  0  0  0  0
   26.7431   26.2278   12.3048 H   0  0  0  0  0  0
   27.2340   26.4754   13.9805 H   0  0  0  0  0  0
  1  2  1  0  0  0
  1  5  2  0  0  0
  1  7  1  0  0  0
  2  3  1  0  0  0
  2  6  1  0  0  0
  3  4  2  0  0  0
  3 27  1  0  0  0
  4  5  1  0  0  0
  4 22  1  0  0  0
  6  8  2  0  0  0
  6 12  1  0  0  0
  7 13  2  0  0  0
  7 17  1  0  0  0
  8  9  1  0  0  0
  8 28  1  0  0  0
  9 10  2  0  0  0
  9 29  1  0  0  0
 10 11  1  0  0  0
 10 18  1  0  0  0
 11 12  2  0  0  0
 11 30  1  0  0  0
 12 31  1  0  0  0
 13 14  1  0  0  0
 13 32  1  0  0  0
 14 15  2  0  0  0
 14 26  1  0  0  0
 15 16  1  0  0  0
 15 33  1  0  0  0
 16 17  2  0  0  0
 16 34  1  0  0  0
 18 19  2  0  0  0
 18 20  2  0  0  0
 18 21  1  0  0  0
 21 35  1  0  0  0
 21 36  1  0  0  0
 21 37  1  0  0  0
 22 23  1  0  0  0
 22 24  1  0  0  0
 22 25  1  0  0  0
 26 38  1  0  0  0
 26 39  1  0  0  0
 26 40  1  0  0  0
M  END
>  <Name>
4-52

>  <Family>
B.3

>  <IC50_uM>
0.530000

>  <set>
1

$$$$
4-53
  Cerius2 12120216093D 1   1.00000                          
 Structure written by MMmdl.
 40 42  0  0  0  0  0  0  0  0999 V2000
   26.4219   22.1488   16.4637 C   0  0  0  0  0  0
   25.4808   21.4540   17.2325 N   0  0  0  0  0  0
   26.2043   20.8518   18.2476 C   0  0  0  0  0  0
   27.5102   21.2828   18.1416 C   0  0  0  0  0  0
   27.6222   22.1023   17.0335 N   0  0  0  0  0  0
   24.0577   21.3721   17.0929 C   0  0  0  0  0  0
   26.1767   22.7672   15.1543 C   0  0  0  0  0  0
   23.3530   22.2600   16.2670 C   0  0  0  0  0  0
   21.9594   22.1773   16.1563 C   0  0  0  0  0  0
   21.2624   21.2043   16.8733 C   0  0  0  0  0  0
   21.9443   20.3285   17.7178 C   0  0  0  0  0  0
   23.3370   20.4143   17.8280 C   0  0  0  0  0  0
   26.4022   24.1263   14.9073 C   0  0  0  0  0  0
   26.1797   24.5902   13.6054 C   0  0  0  0  0  0
   25.7460   23.7128   12.6170 C   0  0  0  0  0  0
   25.5544   22.3864   12.9546 C   0  0  0  0  0  0
   25.7653   21.8923   14.1955 N   0  0  0  0  0  0
   19.4909   21.1132   16.7471 S   0  0  0  0  0  0
   18.9830   22.4713   16.5793 O   0  0  0  0  0  0
   19.0002   20.3230   17.8721 O   0  0  0  0  0  0
   19.2224   20.2073   15.2469 C   0  0  0  0  0  0
   28.6749   20.9650   19.0337 C   0  0  0  0  0  0
   29.1643   22.0743   19.6608 F   0  0  0  0  0  0
   29.7194   20.4189   18.3454 F   0  0  0  0  0  0
   28.3597   20.0757   20.0204 F   0  0  0  0  0  0
   26.8841   25.0729   15.9674 C   0  0  0  0  0  0
   25.7412   20.2277   18.9992 H   0  0  0  0  0  0
   23.8440   23.0608   15.7221 H   0  0  0  0  0  0
   21.4339   22.8808   15.5135 H   0  0  0  0  0  0
   21.4101   19.5717   18.2887 H   0  0  0  0  0  0
   23.8329   19.6941   18.4757 H   0  0  0  0  0  0
   26.3426   25.6369   13.3529 H   0  0  0  0  0  0
   25.5654   24.0566   11.6031 H   0  0  0  0  0  0
   25.2191   21.6679   12.2100 H   0  0  0  0  0  0
   18.1449   20.1081   15.0991 H   0  0  0  0  0  0
   19.6767   19.2193   15.3417 H   0  0  0  0  0  0
   19.6622   20.7592   14.4142 H   0  0  0  0  0  0
   27.9366   24.8803   16.1976 H   0  0  0  0  0  0
   26.2857   24.9725   16.8788 H   0  0  0  0  0  0
   26.7960   26.1144   15.6400 H   0  0  0  0  0  0
  1  2  1  0  0  0
  1  5  2  0  0  0
  1  7  1  0  0  0
  2  3  1  0  0  0
  2  6  1  0  0  0
  3  4  2  0  0  0
  3 27  1  0  0  0
  4  5  1  0  0  0
  4 22  1  0  0  0
  6  8  2  0  0  0
  6 12  1  0  0  0
  7 13  2  0  0  0
  7 17  1  0  0  0
  8  9  1  0  0  0
  8 28  1  0  0  0
  9 10  2  0  0  0
  9 29  1  0  0  0
 10 11  1  0  0  0
 10 18  1  0  0  0
 11 12  2  0  0  0
 11 30  1  0  0  0
 12 31  1  0  0  0
 13 14  1  0  0  0
 13 26  1  0  0  0
 14 15  2  0  0  0
 14 32  1  0  0  0
 15 16  1  0  0  0
 15 33  1  0  0  0
 16 17  2  0  0  0
 16 34  1  0  0  0
 18 19  2  0  0  0
 18 20  2  0  0  0
 18 21  1  0  0  0
 21 35  1  0  0  0
 21 36  1  0  0  0
 21 37  1  0  0  0
 22 23  1  0  0  0
 22 24  1  0  0  0
 22 25  1  0  0  0
 26 38  1  0  0  0
 26 39  1  0  0  0
 26 40  1  0  0  0
M  END
>  <Name>
4-53

>  <Family>
B.3

>  <IC50_uM>
5.800000

>  <set>
0

$$$$
4-54
  Cerius2 12120216093D 1   1.00000                          
 Structure written by MMmdl.
 39 41  0  0  0  0  0  0  0  0999 V2000
   26.4121   22.1498   16.4568 C   0  0  0  0  0  0
   25.4748   21.4486   17.2247 N   0  0  0  0  0  0
   26.2003   20.8526   18.2421 C   0  0  0  0  0  0
   27.4966   21.3157   18.1540 C   0  0  0  0  0  0
   27.6028   22.1417   17.0493 N   0  0  0  0  0  0
   24.0524   21.3633   17.0902 C   0  0  0  0  0  0
   26.1799   22.7460   15.1368 C   0  0  0  0  0  0
   23.3458   22.2534   16.2679 C   0  0  0  0  0  0
   21.9520   22.1712   16.1624 C   0  0  0  0  0  0
   21.2561   21.1984   16.8818 C   0  0  0  0  0  0
   21.9424   20.3216   17.7231 C   0  0  0  0  0  0
   23.3355   20.4062   17.8291 C   0  0  0  0  0  0
   26.4298   24.0925   14.9058 C   0  0  0  0  0  0
   26.2214   24.5962   13.6264 C   0  0  0  0  0  0
   25.7835   23.7423   12.6193 C   0  0  0  0  0  0
   25.5729   22.4010   12.9208 C   0  0  0  0  0  0
   25.7758   21.8919   14.1613 N   0  0  0  0  0  0
   19.4894   21.1147   16.7736 S   0  0  0  0  0  0
   18.9584   22.4485   16.5549 O   0  0  0  0  0  0
   18.9820   20.2893   17.8555 O   0  0  0  0  0  0
   19.2661   20.2569   15.3526 N   0  0  0  0  0  0
   28.6560   21.0256   19.0629 C   0  0  0  0  0  0
   29.1230   22.1500   19.6800 F   0  0  0  0  0  0
   29.7156   20.4847   18.3937 F   0  0  0  0  0  0
   28.3421   20.1452   20.0580 F   0  0  0  0  0  0
   25.1006   21.4569   11.8554 C   0  0  0  0  0  0
   25.7410   20.2173   18.9867 H   0  0  0  0  0  0
   23.8402   23.0515   15.7206 H   0  0  0  0  0  0
   21.4230   22.8729   15.5205 H   0  0  0  0  0  0
   21.4077   19.5646   18.2933 H   0  0  0  0  0  0
   23.8353   19.6863   18.4742 H   0  0  0  0  0  0
   26.7771   24.7418   15.7041 H   0  0  0  0  0  0
   26.4008   25.6480   13.4146 H   0  0  0  0  0  0
   25.6136   24.1213   11.6148 H   0  0  0  0  0  0
   18.7697   20.8188   14.6563 H   0  0  0  0  0  0
   18.7861   19.3703   15.5282 H   0  0  0  0  0  0
   24.9804   20.4458   12.2577 H   0  0  0  0  0  0
   25.8272   21.4152   11.0381 H   0  0  0  0  0  0
   24.1332   21.7843   11.4622 H   0  0  0  0  0  0
  1  2  1  0  0  0
  1  5  2  0  0  0
  1  7  1  0  0  0
  2  3  1  0  0  0
  2  6  1  0  0  0
  3  4  2  0  0  0
  3 27  1  0  0  0
  4  5  1  0  0  0
  4 22  1  0  0  0
  6  8  2  0  0  0
  6 12  1  0  0  0
  7 13  2  0  0  0
  7 17  1  0  0  0
  8  9  1  0  0  0
  8 28  1  0  0  0
  9 10  2  0  0  0
  9 29  1  0  0  0
 10 11  1  0  0  0
 10 18  1  0  0  0
 11 12  2  0  0  0
 11 30  1  0  0  0
 12 31  1  0  0  0
 13 14  1  0  0  0
 13 32  1  0  0  0
 14 15  2  0  0  0
 14 33  1  0  0  0
 15 16  1  0  0  0
 15 34  1  0  0  0
 16 17  2  0  0  0
 16 26  1  0  0  0
 18 19  2  0  0  0
 18 20  2  0  0  0
 18 21  1  0  0  0
 21 35  1  0  0  0
 21 36  1  0  0  0
 22 23  1  0  0  0
 22 24  1  0  0  0
 22 25  1  0  0  0
 26 37  1  0  0  0
 26 38  1  0  0  0
 26 39  1  0  0  0
M  END
>  <Name>
4-54

>  <Family>
B.3

>  <IC50_uM>
0.420000

>  <set>
1

$$$$
4-55
  Cerius2 12120216093D 1   1.00000                          
 Structure written by MMmdl.
 39 41  0  0  0  0  0  0  0  0999 V2000
   26.4111   22.1487   16.4560 C   0  0  0  0  0  0
   25.4738   21.4477   17.2236 N   0  0  0  0  0  0
   26.1988   20.8559   18.2438 C   0  0  0  0  0  0
   27.4948   21.3200   18.1561 C   0  0  0  0  0  0
   27.6013   22.1436   17.0496 N   0  0  0  0  0  0
   24.0515   21.3608   17.0876 C   0  0  0  0  0  0
   26.1804   22.7445   15.1360 C   0  0  0  0  0  0
   23.3441   22.2510   16.2661 C   0  0  0  0  0  0
   21.9499   22.1697   16.1626 C   0  0  0  0  0  0
   21.2543   21.1975   16.8829 C   0  0  0  0  0  0
   21.9413   20.3195   17.7224 C   0  0  0  0  0  0
   23.3347   20.4029   17.8260 C   0  0  0  0  0  0
   26.4285   24.0923   14.9070 C   0  0  0  0  0  0
   26.2281   24.6008   13.6255 C   0  0  0  0  0  0
   25.8105   23.7505   12.6014 C   0  0  0  0  0  0
   25.5931   22.4156   12.9231 C   0  0  0  0  0  0
   25.7799   21.8917   14.1592 N   0  0  0  0  0  0
   19.4872   21.1148   16.7803 S   0  0  0  0  0  0
   18.9554   22.4487   16.5629 O   0  0  0  0  0  0
   18.9838   20.2902   17.8647 O   0  0  0  0  0  0
   19.2583   20.2573   15.3600 N   0  0  0  0  0  0
   28.6529   21.0352   19.0680 C   0  0  0  0  0  0
   29.1160   22.1629   19.6821 F   0  0  0  0  0  0
   29.7155   20.4943   18.4033 F   0  0  0  0  0  0
   28.3388   20.1574   20.0653 F   0  0  0  0  0  0
   25.5494   24.2661   11.2207 C   0  0  0  0  0  0
   25.7399   20.2222   18.9900 H   0  0  0  0  0  0
   23.8370   23.0497   15.7188 H   0  0  0  0  0  0
   21.4209   22.8724   15.5220 H   0  0  0  0  0  0
   21.4065   19.5628   18.2929 H   0  0  0  0  0  0
   23.8343   19.6822   18.4702 H   0  0  0  0  0  0
   26.7669   24.7415   15.7093 H   0  0  0  0  0  0
   26.4034   25.6579   13.4339 H   0  0  0  0  0  0
   25.2521   21.7072   12.1699 H   0  0  0  0  0  0
   18.7607   20.8203   14.6653 H   0  0  0  0  0  0
   18.7769   19.3718   15.5371 H   0  0  0  0  0  0
   25.7495   23.4934   10.4710 H   0  0  0  0  0  0
   26.2000   25.1168   10.9920 H   0  0  0  0  0  0
   24.5065   24.5850   11.1307 H   0  0  0  0  0  0
  1  2  1  0  0  0
  1  5  2  0  0  0
  1  7  1  0  0  0
  2  3  1  0  0  0
  2  6  1  0  0  0
  3  4  2  0  0  0
  3 27  1  0  0  0
  4  5  1  0  0  0
  4 22  1  0  0  0
  6  8  2  0  0  0
  6 12  1  0  0  0
  7 13  2  0  0  0
  7 17  1  0  0  0
  8  9  1  0  0  0
  8 28  1  0  0  0
  9 10  2  0  0  0
  9 29  1  0  0  0
 10 11  1  0  0  0
 10 18  1  0  0  0
 11 12  2  0  0  0
 11 30  1  0  0  0
 12 31  1  0  0  0
 13 14  1  0  0  0
 13 32  1  0  0  0
 14 15  2  0  0  0
 14 33  1  0  0  0
 15 16  1  0  0  0
 15 26  1  0  0  0
 16 17  2  0  0  0
 16 34  1  0  0  0
 18 19  2  0  0  0
 18 20  2  0  0  0
 18 21  1  0  0  0
 21 35  1  0  0  0
 21 36  1  0  0  0
 22 23  1  0  0  0
 22 24  1  0  0  0
 22 25  1  0  0  0
 26 37  1  0  0  0
 26 38  1  0  0  0
 26 39  1  0  0  0
M  END
>  <Name>
4-55

>  <Family>
B.3

>  <IC50_uM>
0.730000

>  <set>
0

$$$$
4-56
  Cerius2 12120216093D 1   1.00000                          
 Structure written by MMmdl.
 39 41  0  0  0  0  0  0  0  0999 V2000
   26.4104   22.1476   16.4554 C   0  0  0  0  0  0
   25.4730   21.4479   17.2242 N   0  0  0  0  0  0
   26.1983   20.8570   18.2447 C   0  0  0  0  0  0
   27.4944   21.3205   18.1558 C   0  0  0  0  0  0
   27.6007   22.1427   17.0484 N   0  0  0  0  0  0
   24.0505   21.3609   17.0887 C   0  0  0  0  0  0
   26.1794   22.7426   15.1349 C   0  0  0  0  0  0
   23.3429   22.2509   16.2672 C   0  0  0  0  0  0
   21.9486   22.1690   16.1636 C   0  0  0  0  0  0
   21.2534   21.1968   16.8841 C   0  0  0  0  0  0
   21.9407   20.3192   17.7238 C   0  0  0  0  0  0
   23.3340   20.4031   17.8274 C   0  0  0  0  0  0
   26.4260   24.0932   14.9072 C   0  0  0  0  0  0
   26.2335   24.6098   13.6230 C   0  0  0  0  0  0
   25.7892   23.7494   12.6185 C   0  0  0  0  0  0
   25.5873   22.4136   12.9269 C   0  0  0  0  0  0
   25.7819   21.8878   14.1585 N   0  0  0  0  0  0
   19.4863   21.1131   16.7814 S   0  0  0  0  0  0
   18.9538   22.4466   16.5642 O   0  0  0  0  0  0
   18.9834   20.2880   17.8656 O   0  0  0  0  0  0
   19.2580   20.2555   15.3610 N   0  0  0  0  0  0
   28.6529   21.0357   19.0674 C   0  0  0  0  0  0
   29.1154   22.1631   19.6824 F   0  0  0  0  0  0
   29.7157   20.4961   18.4020 F   0  0  0  0  0  0
   28.3397   20.1569   20.0641 F   0  0  0  0  0  0
   26.4441   26.0682   13.3455 C   0  0  0  0  0  0
   25.7397   20.2244   18.9919 H   0  0  0  0  0  0
   23.8350   23.0499   15.7197 H   0  0  0  0  0  0
   21.4193   22.8714   15.5229 H   0  0  0  0  0  0
   21.4062   19.5625   18.2946 H   0  0  0  0  0  0
   23.8338   19.6828   18.4719 H   0  0  0  0  0  0
   26.7613   24.7323   15.7200 H   0  0  0  0  0  0
   25.6064   24.1043   11.6078 H   0  0  0  0  0  0
   25.2515   21.7151   12.1633 H   0  0  0  0  0  0
   18.7595   20.8182   14.6667 H   0  0  0  0  0  0
   18.7778   19.3695   15.5378 H   0  0  0  0  0  0
   25.5185   26.6218   13.5305 H   0  0  0  0  0  0
   26.7506   26.2277   12.3065 H   0  0  0  0  0  0
   27.2347   26.4764   13.9839 H   0  0  0  0  0  0
  1  2  1  0  0  0
  1  5  2  0  0  0
  1  7  1  0  0  0
  2  3  1  0  0  0
  2  6  1  0  0  0
  3  4  2  0  0  0
  3 27  1  0  0  0
  4  5  1  0  0  0
  4 22  1  0  0  0
  6  8  2  0  0  0
  6 12  1  0  0  0
  7 13  2  0  0  0
  7 17  1  0  0  0
  8  9  1  0  0  0
  8 28  1  0  0  0
  9 10  2  0  0  0
  9 29  1  0  0  0
 10 11  1  0  0  0
 10 18  1  0  0  0
 11 12  2  0  0  0
 11 30  1  0  0  0
 12 31  1  0  0  0
 13 14  1  0  0  0
 13 32  1  0  0  0
 14 15  2  0  0  0
 14 26  1  0  0  0
 15 16  1  0  0  0
 15 33  1  0  0  0
 16 17  2  0  0  0
 16 34  1  0  0  0
 18 19  2  0  0  0
 18 20  2  0  0  0
 18 21  1  0  0  0
 21 35  1  0  0  0
 21 36  1  0  0  0
 22 23  1  0  0  0
 22 24  1  0  0  0
 22 25  1  0  0  0
 26 37  1  0  0  0
 26 38  1  0  0  0
 26 39  1  0  0  0
M  END
>  <Name>
4-56

>  <Family>
B.3

>  <IC50_uM>
0.440000

>  <set>
0

$$$$
4-57
  Cerius2 12120216093D 1   1.00000                          
 Structure written by MMmdl.
 39 41  0  0  0  0  0  0  0  0999 V2000
   26.4213   22.1493   16.4640 C   0  0  0  0  0  0
   25.4794   21.4537   17.2312 N   0  0  0  0  0  0
   26.2019   20.8531   18.2481 C   0  0  0  0  0  0
   27.5074   21.2858   18.1444 C   0  0  0  0  0  0
   27.6204   22.1048   17.0361 N   0  0  0  0  0  0
   24.0566   21.3703   17.0899 C   0  0  0  0  0  0
   26.1779   22.7675   15.1540 C   0  0  0  0  0  0
   23.3515   22.2581   16.2638 C   0  0  0  0  0  0
   21.9577   22.1746   16.1530 C   0  0  0  0  0  0
   21.2595   21.2018   16.8695 C   0  0  0  0  0  0
   21.9434   20.3252   17.7125 C   0  0  0  0  0  0
   23.3362   20.4111   17.8235 C   0  0  0  0  0  0
   26.4038   24.1266   14.9073 C   0  0  0  0  0  0
   26.1835   24.5903   13.6050 C   0  0  0  0  0  0
   25.7512   23.7129   12.6160 C   0  0  0  0  0  0
   25.5589   22.3865   12.9535 C   0  0  0  0  0  0
   25.7680   21.8926   14.1948 N   0  0  0  0  0  0
   19.4931   21.1161   16.7583 S   0  0  0  0  0  0
   18.9598   22.4491   16.5395 O   0  0  0  0  0  0
   18.9863   20.2893   17.8395 O   0  0  0  0  0  0
   19.2725   20.2597   15.3359 N   0  0  0  0  0  0
   28.6704   20.9712   19.0399 C   0  0  0  0  0  0
   29.1550   22.0823   19.6674 F   0  0  0  0  0  0
   29.7184   20.4272   18.3552 F   0  0  0  0  0  0
   28.3544   20.0819   20.0263 F   0  0  0  0  0  0
   26.8840   25.0733   15.9681 C   0  0  0  0  0  0
   25.7382   20.2291   18.9993 H   0  0  0  0  0  0
   23.8421   23.0590   15.7188 H   0  0  0  0  0  0
   21.4312   22.8767   15.5096 H   0  0  0  0  0  0
   21.4069   19.5675   18.2800 H   0  0  0  0  0  0
   23.8320   19.6900   18.4702 H   0  0  0  0  0  0
   26.3471   25.6369   13.3525 H   0  0  0  0  0  0
   25.5721   24.0567   11.6018 H   0  0  0  0  0  0
   25.2243   21.6679   12.2085 H   0  0  0  0  0  0
   18.7772   20.8226   14.6395 H   0  0  0  0  0  0
   18.7919   19.3732   15.5096 H   0  0  0  0  0  0
   27.9361   24.8807   16.2001 H   0  0  0  0  0  0
   26.2841   24.9731   16.8785 H   0  0  0  0  0  0
   26.7963   26.1149   15.6404 H   0  0  0  0  0  0
  1  2  1  0  0  0
  1  5  2  0  0  0
  1  7  1  0  0  0
  2  3  1  0  0  0
  2  6  1  0  0  0
  3  4  2  0  0  0
  3 27  1  0  0  0
  4  5  1  0  0  0
  4 22  1  0  0  0
  6  8  2  0  0  0
  6 12  1  0  0  0
  7 13  2  0  0  0
  7 17  1  0  0  0
  8  9  1  0  0  0
  8 28  1  0  0  0
  9 10  2  0  0  0
  9 29  1  0  0  0
 10 11  1  0  0  0
 10 18  1  0  0  0
 11 12  2  0  0  0
 11 30  1  0  0  0
 12 31  1  0  0  0
 13 14  1  0  0  0
 13 26  1  0  0  0
 14 15  2  0  0  0
 14 32  1  0  0  0
 15 16  1  0  0  0
 15 33  1  0  0  0
 16 17  2  0  0  0
 16 34  1  0  0  0
 18 19  2  0  0  0
 18 20  2  0  0  0
 18 21  1  0  0  0
 21 35  1  0  0  0
 21 36  1  0  0  0
 22 23  1  0  0  0
 22 24  1  0  0  0
 22 25  1  0  0  0
 26 37  1  0  0  0
 26 38  1  0  0  0
 26 39  1  0  0  0
M  END
>  <Name>
4-57

>  <Family>
B.3

>  <IC50_uM>
1.540000

>  <set>
1

$$$$
4-64
  Cerius2 12120216093D 1   1.00000                          
 Structure written by MMmdl.
 43 46  0  0  0  0  0  0  0  0999 V2000
   26.4119   22.1453   16.4544 C   0  0  0  0  0  0
   25.4749   21.4484   17.2259 N   0  0  0  0  0  0
   26.2010   20.8555   18.2445 C   0  0  0  0  0  0
   27.4985   21.3146   18.1515 C   0  0  0  0  0  0
   27.6041   22.1360   17.0431 N   0  0  0  0  0  0
   24.0520   21.3653   17.0937 C   0  0  0  0  0  0
   26.1784   22.7408   15.1344 C   0  0  0  0  0  0
   23.3449   22.2547   16.2713 C   0  0  0  0  0  0
   21.9506   22.1760   16.1710 C   0  0  0  0  0  0
   21.2547   21.2161   16.9069 C   0  0  0  0  0  0
   21.9416   20.3277   17.7344 C   0  0  0  0  0  0
   23.3351   20.4091   17.8342 C   0  0  0  0  0  0
   26.4298   24.0894   14.9066 C   0  0  0  0  0  0
   26.2271   24.6129   13.6234 C   0  0  0  0  0  0
   25.7885   23.7535   12.5969 C   0  0  0  0  0  0
   25.5849   22.4116   12.9258 C   0  0  0  0  0  0
   25.7757   21.8861   14.1617 N   0  0  0  0  0  0
   26.4494   25.9688   13.3322 C   0  0  0  0  0  0
   26.2371   26.4640   12.0437 C   0  0  0  0  0  0
   25.8018   25.6128   11.0308 C   0  0  0  0  0  0
   25.5782   24.2627   11.3032 C   0  0  0  0  0  0
   28.6591   21.0259   19.0594 C   0  0  0  0  0  0
   28.3463   20.1469   20.0561 F   0  0  0  0  0  0
   29.1263   22.1514   19.6742 F   0  0  0  0  0  0
   29.7181   20.4842   18.3902 F   0  0  0  0  0  0
   19.4860   21.1038   16.7602 S   0  0  0  0  0  0
   18.9624   22.4549   16.5839 O   0  0  0  0  0  0
   18.9936   20.3096   17.8815 O   0  0  0  0  0  0
   19.2451   20.1933   15.2580 C   0  0  0  0  0  0
   25.7422   20.2245   18.9932 H   0  0  0  0  0  0
   23.8382   23.0501   15.7194 H   0  0  0  0  0  0
   21.4227   22.8764   15.5266 H   0  0  0  0  0  0
   21.4097   19.5697   18.3057 H   0  0  0  0  0  0
   23.8358   19.6861   18.4753 H   0  0  0  0  0  0
   26.7753   24.7226   15.7197 H   0  0  0  0  0  0
   25.2510   21.6984   12.1740 H   0  0  0  0  0  0
   26.7896   26.6527   14.1093 H   0  0  0  0  0  0
   26.4122   27.5175   11.8313 H   0  0  0  0  0  0
   25.6365   26.0001   10.0270 H   0  0  0  0  0  0
   25.2390   23.6090   10.5004 H   0  0  0  0  0  0
   18.1705   20.0842   15.0966 H   0  0  0  0  0  0
   19.7071   19.2096   15.3598 H   0  0  0  0  0  0
   19.6906   20.7484   14.4303 H   0  0  0  0  0  0
  1  2  1  0  0  0
  1  5  2  0  0  0
  1  7  1  0  0  0
  2  3  1  0  0  0
  2  6  1  0  0  0
  3  4  2  0  0  0
  3 30  1  0  0  0
  4  5  1  0  0  0
  4 22  1  0  0  0
  6  8  2  0  0  0
  6 12  1  0  0  0
  7 13  2  0  0  0
  7 17  1  0  0  0
  8  9  1  0  0  0
  8 31  1  0  0  0
  9 10  2  0  0  0
  9 32  1  0  0  0
 10 11  1  0  0  0
 10 26  1  0  0  0
 11 12  2  0  0  0
 11 33  1  0  0  0
 12 34  1  0  0  0
 13 14  1  0  0  0
 13 35  1  0  0  0
 14 15  2  0  0  0
 14 18  1  0  0  0
 15 16  1  0  0  0
 15 21  1  0  0  0
 16 17  2  0  0  0
 16 36  1  0  0  0
 18 19  2  0  0  0
 18 37  1  0  0  0
 19 20  1  0  0  0
 19 38  1  0  0  0
 20 21  2  0  0  0
 20 39  1  0  0  0
 21 40  1  0  0  0
 22 23  1  0  0  0
 22 24  1  0  0  0
 22 25  1  0  0  0
 26 27  2  0  0  0
 26 28  2  0  0  0
 26 29  1  0  0  0
 29 41  1  0  0  0
 29 42  1  0  0  0
 29 43  1  0  0  0
M  END
>  <Name>
4-64

>  <Family>
B.4

>  <IC50_uM>
1.200000

>  <set>
1

$$$$
4-65
  Cerius2 12120216093D 1   1.00000                          
 Structure written by MMmdl.
 43 46  0  0  0  0  0  0  0  0999 V2000
   26.4280   22.1460   16.4657 C   0  0  0  0  0  0
   25.4837   21.4590   17.2372 N   0  0  0  0  0  0
   26.2052   20.8529   18.2513 C   0  0  0  0  0  0
   27.5168   21.2635   18.1346 C   0  0  0  0  0  0
   27.6328   22.0788   17.0237 N   0  0  0  0  0  0
   24.0604   21.3810   17.0968 C   0  0  0  0  0  0
   26.1790   22.7691   15.1582 C   0  0  0  0  0  0
   23.3570   22.2663   16.2672 C   0  0  0  0  0  0
   21.9634   22.1838   16.1555 C   0  0  0  0  0  0
   21.2633   21.2234   16.8862 C   0  0  0  0  0  0
   21.9455   20.3379   17.7199 C   0  0  0  0  0  0
   23.3381   20.4232   17.8309 C   0  0  0  0  0  0
   26.4113   24.1421   14.9115 C   0  0  0  0  0  0
   26.1573   24.5995   13.5993 C   0  0  0  0  0  0
   25.7084   23.6975   12.6292 C   0  0  0  0  0  0
   25.5239   22.3718   12.9767 C   0  0  0  0  0  0
   25.7515   21.8845   14.2137 N   0  0  0  0  0  0
   28.6826   20.9314   19.0204 C   0  0  0  0  0  0
   28.3655   20.0348   19.9999 F   0  0  0  0  0  0
   29.1788   22.0328   19.6558 F   0  0  0  0  0  0
   29.7227   20.3861   18.3249 F   0  0  0  0  0  0
   19.4964   21.1051   16.7251 S   0  0  0  0  0  0
   18.9705   22.4540   16.5400 O   0  0  0  0  0  0
   18.9967   20.3130   17.8446 O   0  0  0  0  0  0
   19.2709   20.1887   15.2240 C   0  0  0  0  0  0
   26.8592   25.0829   15.8726 C   0  0  0  0  0  0
   27.0507   26.4249   15.5396 C   0  0  0  0  0  0
   26.7993   26.8592   14.2438 C   0  0  0  0  0  0
   26.3555   25.9534   13.2803 C   0  0  0  0  0  0
   25.7387   20.2369   19.0075 H   0  0  0  0  0  0
   23.8471   23.0650   15.7192 H   0  0  0  0  0  0
   21.4392   22.8827   15.5065 H   0  0  0  0  0  0
   21.4113   19.5784   18.2873 H   0  0  0  0  0  0
   23.8334   19.7003   18.4763 H   0  0  0  0  0  0
   25.5030   24.0149   11.6100 H   0  0  0  0  0  0
   25.1776   21.6504   12.2398 H   0  0  0  0  0  0
   18.1981   20.0731   15.0556 H   0  0  0  0  0  0
   19.7376   19.2079   15.3322 H   0  0  0  0  0  0
   19.7190   20.7435   14.3976 H   0  0  0  0  0  0
   27.0641   24.7735   16.8969 H   0  0  0  0  0  0
   27.3965   27.1291   16.2944 H   0  0  0  0  0  0
   26.9476   27.9050   13.9803 H   0  0  0  0  0  0
   26.1631   26.3169   12.2707 H   0  0  0  0  0  0
  1  2  1  0  0  0
  1  5  2  0  0  0
  1  7  1  0  0  0
  2  3  1  0  0  0
  2  6  1  0  0  0
  3  4  2  0  0  0
  3 30  1  0  0  0
  4  5  1  0  0  0
  4 18  1  0  0  0
  6  8  2  0  0  0
  6 12  1  0  0  0
  7 13  2  0  0  0
  7 17  1  0  0  0
  8  9  1  0  0  0
  8 31  1  0  0  0
  9 10  2  0  0  0
  9 32  1  0  0  0
 10 11  1  0  0  0
 10 22  1  0  0  0
 11 12  2  0  0  0
 11 33  1  0  0  0
 12 34  1  0  0  0
 13 14  1  0  0  0
 13 26  1  0  0  0
 14 15  2  0  0  0
 14 29  1  0  0  0
 15 16  1  0  0  0
 15 35  1  0  0  0
 16 17  2  0  0  0
 16 36  1  0  0  0
 18 19  1  0  0  0
 18 20  1  0  0  0
 18 21  1  0  0  0
 22 23  2  0  0  0
 22 24  2  0  0  0
 22 25  1  0  0  0
 25 37  1  0  0  0
 25 38  1  0  0  0
 25 39  1  0  0  0
 26 27  2  0  0  0
 26 40  1  0  0  0
 27 28  1  0  0  0
 27 41  1  0  0  0
 28 29  2  0  0  0
 28 42  1  0  0  0
 29 43  1  0  0  0
M  END
>  <Name>
4-65

>  <Family>
B.4

>  <IC50_uM>
1.700000

>  <set>
0

$$$$
4-66
  Cerius2 12120216093D 1   1.00000                          
 Structure written by MMmdl.
 43 46  0  0  0  0  0  0  0  0999 V2000
   26.4065   22.1310   16.4651 C   0  0  0  0  0  0
   25.4703   21.4547   17.2575 N   0  0  0  0  0  0
   26.1994   20.8726   18.2780 C   0  0  0  0  0  0
   27.5002   21.3186   18.1637 C   0  0  0  0  0  0
   27.6031   22.1171   17.0377 N   0  0  0  0  0  0
   24.0498   21.3710   17.1213 C   0  0  0  0  0  0
   26.1804   22.7111   15.1404 C   0  0  0  0  0  0
   23.3479   22.2576   16.2918 C   0  0  0  0  0  0
   21.9554   22.1721   16.1780 C   0  0  0  0  0  0
   21.2570   21.2095   16.9085 C   0  0  0  0  0  0
   21.9399   20.3256   17.7444 C   0  0  0  0  0  0
   23.3319   20.4132   17.8576 C   0  0  0  0  0  0
   26.4344   24.0622   14.9012 C   0  0  0  0  0  0
   26.2398   24.6050   13.6222 C   0  0  0  0  0  0
   25.7996   23.7452   12.5924 C   0  0  0  0  0  0
   25.5702   22.4347   12.8013 N   0  0  0  0  0  0
   25.7689   21.9468   14.0552 C   0  0  0  0  0  0
   28.6674   21.0373   19.0650 C   0  0  0  0  0  0
   28.3576   20.1802   20.0816 F   0  0  0  0  0  0
   29.1509   22.1700   19.6534 F   0  0  0  0  0  0
   29.7150   20.4735   18.3957 F   0  0  0  0  0  0
   19.4899   21.0906   16.7468 S   0  0  0  0  0  0
   18.9646   22.4381   16.5493 O   0  0  0  0  0  0
   18.9895   20.3086   17.8730 O   0  0  0  0  0  0
   19.2656   20.1615   15.2534 C   0  0  0  0  0  0
   26.4734   25.9661   13.3580 C   0  0  0  0  0  0
   26.2703   26.4808   12.0794 C   0  0  0  0  0  0
   25.8353   25.6396   11.0620 C   0  0  0  0  0  0
   25.6055   24.2855   11.3272 C   0  0  0  0  0  0
   25.7413   20.2585   19.0411 H   0  0  0  0  0  0
   23.8422   23.0609   15.7516 H   0  0  0  0  0  0
   21.4297   22.8711   15.5303 H   0  0  0  0  0  0
   21.4056   19.5665   18.3123 H   0  0  0  0  0  0
   23.8307   19.6946   18.5049 H   0  0  0  0  0  0
   26.7813   24.6959   15.7165 H   0  0  0  0  0  0
   25.5839   20.8789   14.1586 H   0  0  0  0  0  0
   18.1930   20.0461   15.0840 H   0  0  0  0  0  0
   19.7307   19.1810   15.3707 H   0  0  0  0  0  0
   19.7160   20.7086   14.4231 H   0  0  0  0  0  0
   26.8140   26.6331   14.1490 H   0  0  0  0  0  0
   26.4513   27.5353   11.8791 H   0  0  0  0  0  0
   25.6737   26.0317   10.0596 H   0  0  0  0  0  0
   25.2663   23.6394   10.5194 H   0  0  0  0  0  0
  1  2  1  0  0  0
  1  5  2  0  0  0
  1  7  1  0  0  0
  2  3  1  0  0  0
  2  6  1  0  0  0
  3  4  2  0  0  0
  3 30  1  0  0  0
  4  5  1  0  0  0
  4 18  1  0  0  0
  6  8  2  0  0  0
  6 12  1  0  0  0
  7 13  2  0  0  0
  7 17  1  0  0  0
  8  9  1  0  0  0
  8 31  1  0  0  0
  9 10  2  0  0  0
  9 32  1  0  0  0
 10 11  1  0  0  0
 10 22  1  0  0  0
 11 12  2  0  0  0
 11 33  1  0  0  0
 12 34  1  0  0  0
 13 14  1  0  0  0
 13 35  1  0  0  0
 14 15  2  0  0  0
 14 26  1  0  0  0
 15 16  1  0  0  0
 15 29  1  0  0  0
 16 17  2  0  0  0
 17 36  1  0  0  0
 18 19  1  0  0  0
 18 20  1  0  0  0
 18 21  1  0  0  0
 22 23  2  0  0  0
 22 24  2  0  0  0
 22 25  1  0  0  0
 25 37  1  0  0  0
 25 38  1  0  0  0
 25 39  1  0  0  0
 26 27  2  0  0  0
 26 40  1  0  0  0
 27 28  1  0  0  0
 27 41  1  0  0  0
 28 29  2  0  0  0
 28 42  1  0  0  0
 29 43  1  0  0  0
M  END
>  <Name>
4-66

>  <Family>
B.4

>  <IC50_uM>
0.630000

>  <set>
1

$$$$
4-67
  Cerius2 12120216093D 1   1.00000                          
 Structure written by MMmdl.
 45 48  0  0  0  0  0  0  0  0999 V2000
   26.4054   22.1522   16.5138 C   0  0  0  0  0  0
   25.4719   21.4321   17.2605 N   0  0  0  0  0  0
   26.2045   20.7958   18.2469 C   0  0  0  0  0  0
   27.5070   21.2438   18.1479 C   0  0  0  0  0  0
   27.6071   22.1032   17.0673 N   0  0  0  0  0  0
   24.0516   21.3569   17.1214 C   0  0  0  0  0  0
   26.2095   22.8169   15.2023 C   0  0  0  0  0  0
   23.3571   22.2500   16.2926 C   0  0  0  0  0  0
   21.9640   22.1761   16.1773 C   0  0  0  0  0  0
   21.2575   21.2181   16.9056 C   0  0  0  0  0  0
   21.9325   20.3273   17.7405 C   0  0  0  0  0  0
   23.3252   20.4035   17.8552 C   0  0  0  0  0  0
   28.6792   20.9073   19.0224 C   0  0  0  0  0  0
   28.3644   20.0218   20.0128 F   0  0  0  0  0  0
   29.1943   22.0082   19.6435 F   0  0  0  0  0  0
   29.7057   20.3454   18.3196 F   0  0  0  0  0  0
   19.4899   21.1117   16.7413 S   0  0  0  0  0  0
   18.9724   22.4651   16.5644 O   0  0  0  0  0  0
   18.9839   20.3153   17.8550 O   0  0  0  0  0  0
   19.2607   20.2068   15.2340 C   0  0  0  0  0  0
   26.4342   24.1887   14.8897 C   0  0  0  0  0  0
   26.1408   24.3507   13.5303 C   0  0  0  0  0  0
   25.7707   23.1114   13.0456 N   0  0  0  0  0  0
   25.8260   22.1748   14.0450 C   0  0  0  0  0  0
   26.8477   25.3165   15.6310 C   0  0  0  0  0  0
   26.9552   26.5602   14.9992 C   0  0  0  0  0  0
   26.6566   26.6947   13.6467 C   0  0  0  0  0  0
   26.2448   25.5952   12.8880 C   0  0  0  0  0  0
   25.3869   22.8342   11.6774 C   0  0  0  0  0  0
   25.7494   20.1411   18.9771 H   0  0  0  0  0  0
   23.8613   23.0459   15.7503 H   0  0  0  0  0  0
   21.4452   22.8796   15.5289 H   0  0  0  0  0  0
   21.3918   19.5712   18.3063 H   0  0  0  0  0  0
   23.8173   19.6799   18.5020 H   0  0  0  0  0  0
   18.1874   20.1005   15.0625 H   0  0  0  0  0  0
   19.7196   19.2218   15.3367 H   0  0  0  0  0  0
   19.7147   20.7636   14.4121 H   0  0  0  0  0  0
   25.5852   21.1364   13.8499 H   0  0  0  0  0  0
   27.0833   25.2231   16.6893 H   0  0  0  0  0  0
   27.2747   27.4291   15.5725 H   0  0  0  0  0  0
   26.7451   27.6706   13.1703 H   0  0  0  0  0  0
   26.0149   25.7104   11.8314 H   0  0  0  0  0  0
   25.1399   21.7746   11.5743 H   0  0  0  0  0  0
   26.2280   23.0842   11.0260 H   0  0  0  0  0  0
   24.5124   23.4433   11.4348 H   0  0  0  0  0  0
  1  2  1  0  0  0
  1  5  2  0  0  0
  1  7  1  0  0  0
  2  3  1  0  0  0
  2  6  1  0  0  0
  3  4  2  0  0  0
  3 30  1  0  0  0
  4  5  1  0  0  0
  4 13  1  0  0  0
  6  8  2  0  0  0
  6 12  1  0  0  0
  7 21  1  0  0  0
  7 24  2  0  0  0
  8  9  1  0  0  0
  8 31  1  0  0  0
  9 10  2  0  0  0
  9 32  1  0  0  0
 10 11  1  0  0  0
 10 17  1  0  0  0
 11 12  2  0  0  0
 11 33  1  0  0  0
 12 34  1  0  0  0
 13 14  1  0  0  0
 13 15  1  0  0  0
 13 16  1  0  0  0
 17 18  2  0  0  0
 17 19  2  0  0  0
 17 20  1  0  0  0
 20 35  1  0  0  0
 20 36  1  0  0  0
 20 37  1  0  0  0
 21 22  2  0  0  0
 21 25  1  0  0  0
 22 23  1  0  0  0
 22 28  1  0  0  0
 23 24  1  0  0  0
 23 29  1  0  0  0
 24 38  1  0  0  0
 25 26  2  0  0  0
 25 39  1  0  0  0
 26 27  1  0  0  0
 26 40  1  0  0  0
 27 28  2  0  0  0
 27 41  1  0  0  0
 28 42  1  0  0  0
 29 43  1  0  0  0
 29 44  1  0  0  0
 29 45  1  0  0  0
M  END
>  <Name>
4-67

>  <Family>
B.4

>  <IC50_uM>
1.100000

>  <set>
2

$$$$
4-68
  Cerius2 12120216093D 1   1.00000                          
 Structure written by MMmdl.
 41 44  0  0  0  0  0  0  0  0999 V2000
   26.4089   22.1354   16.4608 C   0  0  0  0  0  0
   25.4721   21.4611   17.2546 N   0  0  0  0  0  0
   26.2018   20.8822   18.2769 C   0  0  0  0  0  0
   27.5040   21.3229   18.1575 C   0  0  0  0  0  0
   27.6070   22.1185   17.0299 N   0  0  0  0  0  0
   24.0509   21.3761   17.1190 C   0  0  0  0  0  0
   26.1811   22.7193   15.1339 C   0  0  0  0  0  0
   23.3469   22.2609   16.2891 C   0  0  0  0  0  0
   21.9545   22.1736   16.1752 C   0  0  0  0  0  0
   21.2575   21.2105   16.9059 C   0  0  0  0  0  0
   21.9417   20.3278   17.7418 C   0  0  0  0  0  0
   23.3337   20.4173   17.8549 C   0  0  0  0  0  0
   28.6725   21.0388   19.0558 C   0  0  0  0  0  0
   28.3624   20.1853   20.0753 F   0  0  0  0  0  0
   29.1626   22.1709   19.6403 F   0  0  0  0  0  0
   29.7158   20.4692   18.3845 F   0  0  0  0  0  0
   19.4908   21.0887   16.7437 S   0  0  0  0  0  0
   18.9650   22.4331   16.5275 O   0  0  0  0  0  0
   18.9892   20.3217   17.8798 O   0  0  0  0  0  0
   19.2684   20.1395   15.2629 C   0  0  0  0  0  0
   26.4433   24.0828   14.9251 C   0  0  0  0  0  0
   26.2400   24.5978   13.6614 C   0  0  0  0  0  0
   25.8069   23.8136   12.6182 C   0  0  0  0  0  0
   25.5575   22.4684   12.7781 C   0  0  0  0  0  0
   25.7546   21.9171   14.0494 C   0  0  0  0  0  0
   26.4341   25.8923   13.2915 O   0  0  0  0  0  0
   26.0670   25.8393   11.8923 C   0  0  0  0  0  0
   25.6728   24.5151   11.4614 O   0  0  0  0  0  0
   25.7441   20.2715   19.0429 H   0  0  0  0  0  0
   23.8404   23.0625   15.7463 H   0  0  0  0  0  0
   21.4282   22.8711   15.5264 H   0  0  0  0  0  0
   21.4087   19.5676   18.3097 H   0  0  0  0  0  0
   23.8331   19.6989   18.5021 H   0  0  0  0  0  0
   18.1960   20.0223   15.0934 H   0  0  0  0  0  0
   19.7326   19.1603   15.3942 H   0  0  0  0  0  0
   19.7204   20.6750   14.4260 H   0  0  0  0  0  0
   26.7926   24.7188   15.7330 H   0  0  0  0  0  0
   25.2247   21.8528   11.9484 H   0  0  0  0  0  0
   25.5760   20.8517   14.1914 H   0  0  0  0  0  0
   26.9243   26.1636   11.2917 H   0  0  0  0  0  0
   25.2310   26.5273   11.7224 H   0  0  0  0  0  0
  1  2  1  0  0  0
  1  5  2  0  0  0
  1  7  1  0  0  0
  2  3  1  0  0  0
  2  6  1  0  0  0
  3  4  2  0  0  0
  3 29  1  0  0  0
  4  5  1  0  0  0
  4 13  1  0  0  0
  6  8  2  0  0  0
  6 12  1  0  0  0
  7 21  2  0  0  0
  7 25  1  0  0  0
  8  9  1  0  0  0
  8 30  1  0  0  0
  9 10  2  0  0  0
  9 31  1  0  0  0
 10 11  1  0  0  0
 10 17  1  0  0  0
 11 12  2  0  0  0
 11 32  1  0  0  0
 12 33  1  0  0  0
 13 14  1  0  0  0
 13 15  1  0  0  0
 13 16  1  0  0  0
 17 18  2  0  0  0
 17 19  2  0  0  0
 17 20  1  0  0  0
 20 34  1  0  0  0
 20 35  1  0  0  0
 20 36  1  0  0  0
 21 22  1  0  0  0
 21 37  1  0  0  0
 22 23  2  0  0  0
 22 26  1  0  0  0
 23 24  1  0  0  0
 23 28  1  0  0  0
 24 25  2  0  0  0
 24 38  1  0  0  0
 25 39  1  0  0  0
 26 27  1  0  0  0
 27 28  1  0  0  0
 27 40  1  0  0  0
 27 41  1  0  0  0
M  END
>  <Name>
4-68

>  <Family>
B.4

>  <IC50_uM>
0.280000

>  <set>
0

$$$$
4-69
  Cerius2 12120216093D 1   1.00000                          
 Structure written by MMmdl.
 41 44  0  0  0  0  0  0  0  0999 V2000
   26.4155   22.1329   16.4659 C   0  0  0  0  0  0
   25.4737   21.4711   17.2641 N   0  0  0  0  0  0
   26.1996   20.8910   18.2887 C   0  0  0  0  0  0
   27.5114   21.2953   18.1505 C   0  0  0  0  0  0
   27.6220   22.0765   17.0142 N   0  0  0  0  0  0
   24.0521   21.3863   17.1235 C   0  0  0  0  0  0
   26.1805   22.7192   15.1458 C   0  0  0  0  0  0
   23.3479   22.2666   16.2895 C   0  0  0  0  0  0
   21.9559   22.1744   16.1700 C   0  0  0  0  0  0
   21.2588   21.2100   16.8987 C   0  0  0  0  0  0
   21.9426   20.3306   17.7381 C   0  0  0  0  0  0
   23.3339   20.4254   17.8565 C   0  0  0  0  0  0
   28.6827   20.9870   19.0370 C   0  0  0  0  0  0
   28.3610   20.1531   20.0691 F   0  0  0  0  0  0
   29.2123   22.1102   19.6038 F   0  0  0  0  0  0
   29.7007   20.3808   18.3591 F   0  0  0  0  0  0
   19.4933   21.0800   16.7300 S   0  0  0  0  0  0
   18.9628   22.4223   16.5118 O   0  0  0  0  0  0
   18.9901   20.3109   17.8639 O   0  0  0  0  0  0
   19.2809   20.1292   15.2487 C   0  0  0  0  0  0
   25.7471   21.9294   14.0662 C   0  0  0  0  0  0
   25.5456   22.4926   12.7928 C   0  0  0  0  0  0
   25.7833   23.8503   12.5731 C   0  0  0  0  0  0
   26.2211   24.6062   13.6403 C   0  0  0  0  0  0
   26.4194   24.0620   14.8908 C   0  0  0  0  0  0
   26.4992   25.9372   13.5965 O   0  0  0  0  0  0
   26.9023   26.1819   14.9626 C   0  0  0  0  0  0
   26.8407   24.9983   15.7890 O   0  0  0  0  0  0
   25.7360   20.2979   19.0648 H   0  0  0  0  0  0
   23.8375   23.0703   15.7477 H   0  0  0  0  0  0
   21.4301   22.8697   15.5183 H   0  0  0  0  0  0
   21.4100   19.5690   18.3040 H   0  0  0  0  0  0
   23.8317   19.7079   18.5059 H   0  0  0  0  0  0
   18.2097   20.0055   15.0763 H   0  0  0  0  0  0
   19.7508   19.1530   15.3818 H   0  0  0  0  0  0
   19.7320   20.6671   14.4128 H   0  0  0  0  0  0
   25.5636   20.8639   14.2023 H   0  0  0  0  0  0
   25.2050   21.8620   11.9727 H   0  0  0  0  0  0
   25.6308   24.2926   11.5934 H   0  0  0  0  0  0
   26.2430   26.9446   15.3921 H   0  0  0  0  0  0
   27.9313   26.5589   14.9637 H   0  0  0  0  0  0
  1  2  1  0  0  0
  1  5  2  0  0  0
  1  7  1  0  0  0
  2  3  1  0  0  0
  2  6  1  0  0  0
  3  4  2  0  0  0
  3 29  1  0  0  0
  4  5  1  0  0  0
  4 13  1  0  0  0
  6  8  2  0  0  0
  6 12  1  0  0  0
  7 21  2  0  0  0
  7 25  1  0  0  0
  8  9  1  0  0  0
  8 30  1  0  0  0
  9 10  2  0  0  0
  9 31  1  0  0  0
 10 11  1  0  0  0
 10 17  1  0  0  0
 11 12  2  0  0  0
 11 32  1  0  0  0
 12 33  1  0  0  0
 13 14  1  0  0  0
 13 15  1  0  0  0
 13 16  1  0  0  0
 17 18  2  0  0  0
 17 19  2  0  0  0
 17 20  1  0  0  0
 20 34  1  0  0  0
 20 35  1  0  0  0
 20 36  1  0  0  0
 21 22  1  0  0  0
 21 37  1  0  0  0
 22 23  2  0  0  0
 22 38  1  0  0  0
 23 24  1  0  0  0
 23 39  1  0  0  0
 24 25  2  0  0  0
 24 26  1  0  0  0
 25 28  1  0  0  0
 26 27  1  0  0  0
 27 28  1  0  0  0
 27 40  1  0  0  0
 27 41  1  0  0  0
M  END
>  <Name>
4-69

>  <Family>
B.4

>  <IC50_uM>
0.470000

>  <set>
1

$$$$
4-70
  Cerius2 12120216093D 1   1.00000                          
 Structure written by MMmdl.
 35 37  0  0  0  0  0  0  0  0999 V2000
   26.3930   22.1432   16.4950 C   0  0  0  0  0  0
   25.4640   21.4369   17.2597 N   0  0  0  0  0  0
   26.2010   20.8240   18.2570 C   0  0  0  0  0  0
   27.4993   21.2832   18.1513 C   0  0  0  0  0  0
   27.5932   22.1221   17.0534 N   0  0  0  0  0  0
   24.0444   21.3569   17.1258 C   0  0  0  0  0  0
   26.2004   22.7772   15.1631 C   0  0  0  0  0  0
   23.3459   22.2481   16.2981 C   0  0  0  0  0  0
   21.9529   22.1697   16.1862 C   0  0  0  0  0  0
   21.2513   21.2099   16.9170 C   0  0  0  0  0  0
   21.9311   20.3219   17.7517 C   0  0  0  0  0  0
   23.3236   20.4026   17.8631 C   0  0  0  0  0  0
   28.6729   20.9765   19.0355 C   0  0  0  0  0  0
   28.3706   20.0899   20.0287 F   0  0  0  0  0  0
   29.1599   22.0919   19.6536 F   0  0  0  0  0  0
   29.7160   20.4333   18.3426 F   0  0  0  0  0  0
   19.4835   21.0975   16.7580 S   0  0  0  0  0  0
   18.9647   22.4456   16.5482 O   0  0  0  0  0  0
   18.9798   20.3287   17.8920 O   0  0  0  0  0  0
   19.2534   20.1546   15.2742 C   0  0  0  0  0  0
   26.4560   24.1525   14.8841 C   0  0  0  0  0  0
   26.2169   24.4661   13.5634 C   0  0  0  0  0  0
   25.7154   23.1015   12.6604 S   0  0  0  0  0  0
   25.8231   22.0821   14.0334 C   0  0  0  0  0  0
   25.7501   20.1802   18.9996 H   0  0  0  0  0  0
   23.8467   23.0466   15.7563 H   0  0  0  0  0  0
   21.4301   22.8714   15.5391 H   0  0  0  0  0  0
   21.3937   19.5650   18.3195 H   0  0  0  0  0  0
   23.8205   19.6820   18.5098 H   0  0  0  0  0  0
   18.1800   20.0427   15.1069 H   0  0  0  0  0  0
   19.7137   19.1731   15.4011 H   0  0  0  0  0  0
   19.7056   20.6911   14.4379 H   0  0  0  0  0  0
   26.7907   24.8794   15.6159 H   0  0  0  0  0  0
   26.3189   25.4318   13.0845 H   0  0  0  0  0  0
   25.5989   21.0271   13.9374 H   0  0  0  0  0  0
  1  2  1  0  0  0
  1  5  2  0  0  0
  1  7  1  0  0  0
  2  3  1  0  0  0
  2  6  1  0  0  0
  3  4  2  0  0  0
  3 25  1  0  0  0
  4  5  1  0  0  0
  4 13  1  0  0  0
  6  8  2  0  0  0
  6 12  1  0  0  0
  7 21  1  0  0  0
  7 24  2  0  0  0
  8  9  1  0  0  0
  8 26  1  0  0  0
  9 10  2  0  0  0
  9 27  1  0  0  0
 10 11  1  0  0  0
 10 17  1  0  0  0
 11 12  2  0  0  0
 11 28  1  0  0  0
 12 29  1  0  0  0
 13 14  1  0  0  0
 13 15  1  0  0  0
 13 16  1  0  0  0
 17 18  2  0  0  0
 17 19  2  0  0  0
 17 20  1  0  0  0
 20 30  1  0  0  0
 20 31  1  0  0  0
 20 32  1  0  0  0
 21 22  2  0  0  0
 21 33  1  0  0  0
 22 23  1  0  0  0
 22 34  1  0  0  0
 23 24  1  0  0  0
 24 35  1  0  0  0
M  END
>  <Name>
4-70

>  <Family>
B.4

>  <IC50_uM>
51.000000

>  <set>
1

$$$$
4-71
  Cerius2 12120216093D 1   1.00000                          
 Structure written by MMmdl.
 35 37  0  0  0  0  0  0  0  0999 V2000
   26.4112   22.1729   16.5272 C   0  0  0  0  0  0
   25.4760   21.4480   17.2673 N   0  0  0  0  0  0
   26.2083   20.8096   18.2530 C   0  0  0  0  0  0
   27.5093   21.2646   18.1626 C   0  0  0  0  0  0
   27.6104   22.1306   17.0868 N   0  0  0  0  0  0
   24.0558   21.3689   17.1258 C   0  0  0  0  0  0
   26.2136   22.8234   15.2611 C   0  0  0  0  0  0
   23.3595   22.2592   16.2952 C   0  0  0  0  0  0
   21.9669   22.1800   16.1777 C   0  0  0  0  0  0
   21.2626   21.2196   16.9052 C   0  0  0  0  0  0
   21.9395   20.3313   17.7413 C   0  0  0  0  0  0
   23.3317   20.4128   17.8583 C   0  0  0  0  0  0
   28.6786   20.9298   19.0425 C   0  0  0  0  0  0
   28.3695   20.0180   20.0105 F   0  0  0  0  0  0
   29.1676   22.0264   19.6918 F   0  0  0  0  0  0
   29.7220   20.4015   18.3387 F   0  0  0  0  0  0
   19.4955   21.1076   16.7398 S   0  0  0  0  0  0
   18.9809   22.4514   16.4953 O   0  0  0  0  0  0
   18.9841   20.3671   17.8890 O   0  0  0  0  0  0
   19.2712   20.1304   15.2775 C   0  0  0  0  0  0
   26.4492   24.1539   14.9730 C   0  0  0  0  0  0
   26.1834   24.4706   13.6082 C   0  0  0  0  0  0
   25.7833   23.3651   12.8913 C   0  0  0  0  0  0
   25.7427   21.9547   13.8585 S   0  0  0  0  0  0
   25.7531   20.1494   18.9784 H   0  0  0  0  0  0
   23.8597   23.0580   15.7541 H   0  0  0  0  0  0
   21.4464   22.8816   15.5287 H   0  0  0  0  0  0
   21.4005   19.5736   18.3064 H   0  0  0  0  0  0
   23.8254   19.6910   18.5059 H   0  0  0  0  0  0
   18.1986   20.0163   15.1073 H   0  0  0  0  0  0
   19.7293   19.1514   15.4298 H   0  0  0  0  0  0
   19.7287   20.6463   14.4313 H   0  0  0  0  0  0
   26.7880   24.8726   15.7114 H   0  0  0  0  0  0
   26.2883   25.4585   13.1732 H   0  0  0  0  0  0
   25.5243   23.3161   11.8411 H   0  0  0  0  0  0
  1  2  1  0  0  0
  1  5  2  0  0  0
  1  7  1  0  0  0
  2  3  1  0  0  0
  2  6  1  0  0  0
  3  4  2  0  0  0
  3 25  1  0  0  0
  4  5  1  0  0  0
  4 13  1  0  0  0
  6  8  2  0  0  0
  6 12  1  0  0  0
  7 21  2  0  0  0
  7 24  1  0  0  0
  8  9  1  0  0  0
  8 26  1  0  0  0
  9 10  2  0  0  0
  9 27  1  0  0  0
 10 11  1  0  0  0
 10 17  1  0  0  0
 11 12  2  0  0  0
 11 28  1  0  0  0
 12 29  1  0  0  0
 13 14  1  0  0  0
 13 15  1  0  0  0
 13 16  1  0  0  0
 17 18  2  0  0  0
 17 19  2  0  0  0
 17 20  1  0  0  0
 20 30  1  0  0  0
 20 31  1  0  0  0
 20 32  1  0  0  0
 21 22  1  0  0  0
 21 33  1  0  0  0
 22 23  2  0  0  0
 22 34  1  0  0  0
 23 24  1  0  0  0
 23 35  1  0  0  0
M  END
>  <Name>
4-71

>  <Family>
B.4

>  <IC50_uM>
0.470000

>  <set>
1

$$$$
4-72
  Cerius2 12120216093D 1   1.00000                          
 Structure written by MMmdl.
 34 36  0  0  0  0  0  0  0  0999 V2000
   26.4108   22.1724   16.5271 C   0  0  0  0  0  0
   25.4762   21.4483   17.2689 N   0  0  0  0  0  0
   26.2099   20.8078   18.2522 C   0  0  0  0  0  0
   27.5112   21.2615   18.1596 C   0  0  0  0  0  0
   27.6111   22.1285   17.0843 N   0  0  0  0  0  0
   24.0558   21.3706   17.1294 C   0  0  0  0  0  0
   26.2114   22.8231   15.2613 C   0  0  0  0  0  0
   23.3598   22.2610   16.2989 C   0  0  0  0  0  0
   21.9673   22.1809   16.1820 C   0  0  0  0  0  0
   21.2616   21.2196   16.9084 C   0  0  0  0  0  0
   21.9393   20.3339   17.7467 C   0  0  0  0  0  0
   23.3317   20.4157   17.8636 C   0  0  0  0  0  0
   28.6819   20.9248   19.0368 C   0  0  0  0  0  0
   28.3670   20.0329   20.0214 F   0  0  0  0  0  0
   29.1902   22.0247   19.6651 F   0  0  0  0  0  0
   29.7131   20.3708   18.3346 F   0  0  0  0  0  0
   19.5028   21.1077   16.7276 S   0  0  0  0  0  0
   18.9550   22.4321   16.4926 O   0  0  0  0  0  0
   18.9711   20.2677   17.7863 O   0  0  0  0  0  0
   19.3506   20.2572   15.2927 N   0  0  0  0  0  0
   26.4457   24.1538   14.9732 C   0  0  0  0  0  0
   26.1787   24.4703   13.6085 C   0  0  0  0  0  0
   25.7787   23.3647   12.8918 C   0  0  0  0  0  0
   25.7401   21.9541   13.8586 S   0  0  0  0  0  0
   25.7554   20.1474   18.9778 H   0  0  0  0  0  0
   23.8598   23.0600   15.7580 H   0  0  0  0  0  0
   21.4426   22.8816   15.5353 H   0  0  0  0  0  0
   21.3999   19.5776   18.3130 H   0  0  0  0  0  0
   23.8256   19.6949   18.5124 H   0  0  0  0  0  0
   18.8748   20.8178   14.5809 H   0  0  0  0  0  0
   18.8762   19.3629   15.4419 H   0  0  0  0  0  0
   26.7846   24.8727   15.7114 H   0  0  0  0  0  0
   26.2825   25.4584   13.1734 H   0  0  0  0  0  0
   25.5185   23.3157   11.8419 H   0  0  0  0  0  0
  1  2  1  0  0  0
  1  5  2  0  0  0
  1  7  1  0  0  0
  2  3  1  0  0  0
  2  6  1  0  0  0
  3  4  2  0  0  0
  3 25  1  0  0  0
  4  5  1  0  0  0
  4 13  1  0  0  0
  6  8  2  0  0  0
  6 12  1  0  0  0
  7 21  2  0  0  0
  7 24  1  0  0  0
  8  9  1  0  0  0
  8 26  1  0  0  0
  9 10  2  0  0  0
  9 27  1  0  0  0
 10 11  1  0  0  0
 10 17  1  0  0  0
 11 12  2  0  0  0
 11 28  1  0  0  0
 12 29  1  0  0  0
 13 14  1  0  0  0
 13 15  1  0  0  0
 13 16  1  0  0  0
 17 18  2  0  0  0
 17 19  2  0  0  0
 17 20  1  0  0  0
 20 30  1  0  0  0
 20 31  1  0  0  0
 21 22  1  0  0  0
 21 32  1  0  0  0
 22 23  2  0  0  0
 22 33  1  0  0  0
 23 24  1  0  0  0
 23 34  1  0  0  0
M  END
>  <Name>
4-72

>  <Family>
B.4

>  <IC50_uM>
0.070000

>  <set>
1

$$$$
4-73
  Cerius2 12120216093D 1   1.00000                          
 Structure written by MMmdl.
 35 37  0  0  0  0  0  0  0  0999 V2000
   26.4100   22.1757   16.5268 C   0  0  0  0  0  0
   25.4759   21.4481   17.2654 N   0  0  0  0  0  0
   26.2091   20.8078   18.2490 C   0  0  0  0  0  0
   27.5091   21.2666   18.1608 C   0  0  0  0  0  0
   27.6088   22.1358   17.0871 N   0  0  0  0  0  0
   24.0559   21.3688   17.1243 C   0  0  0  0  0  0
   26.2128   22.8270   15.2610 C   0  0  0  0  0  0
   23.3596   22.2595   16.2942 C   0  0  0  0  0  0
   21.9669   22.1804   16.1775 C   0  0  0  0  0  0
   21.2628   21.2201   16.9055 C   0  0  0  0  0  0
   21.9402   20.3315   17.7410 C   0  0  0  0  0  0
   23.3323   20.4128   17.8573 C   0  0  0  0  0  0
   28.6785   20.9324   19.0406 C   0  0  0  0  0  0
   28.3702   20.0194   20.0077 F   0  0  0  0  0  0
   29.1661   22.0289   19.6910 F   0  0  0  0  0  0
   29.7225   20.4057   18.3365 F   0  0  0  0  0  0
   19.4956   21.1084   16.7416 S   0  0  0  0  0  0
   18.9809   22.4524   16.4979 O   0  0  0  0  0  0
   18.9852   20.3677   17.8910 O   0  0  0  0  0  0
   19.2695   20.1317   15.2791 C   0  0  0  0  0  0
   26.4494   24.1589   14.9761 C   0  0  0  0  0  0
   26.1839   24.4581   13.6169 C   0  0  0  0  0  0
   25.7840   23.3675   12.8872 C   0  0  0  0  0  0
   25.7441   21.9558   13.8560 S   0  0  0  0  0  0
   26.3831   26.1998   12.9215 Br  0  0  0  0  0  0
   25.7549   20.1445   18.9720 H   0  0  0  0  0  0
   23.8596   23.0587   15.7537 H   0  0  0  0  0  0
   21.4459   22.8822   15.5290 H   0  0  0  0  0  0
   21.4015   19.5737   18.3064 H   0  0  0  0  0  0
   23.8266   19.6910   18.5045 H   0  0  0  0  0  0
   18.1966   20.0187   15.1095 H   0  0  0  0  0  0
   19.7266   19.1522   15.4311 H   0  0  0  0  0  0
   19.7272   20.6472   14.4327 H   0  0  0  0  0  0
   26.7873   24.8730   15.7187 H   0  0  0  0  0  0
   25.5256   23.3190   11.8375 H   0  0  0  0  0  0
  1  2  1  0  0  0
  1  5  2  0  0  0
  1  7  1  0  0  0
  2  3  1  0  0  0
  2  6  1  0  0  0
  3  4  2  0  0  0
  3 26  1  0  0  0
  4  5  1  0  0  0
  4 13  1  0  0  0
  6  8  2  0  0  0
  6 12  1  0  0  0
  7 21  2  0  0  0
  7 24  1  0  0  0
  8  9  1  0  0  0
  8 27  1  0  0  0
  9 10  2  0  0  0
  9 28  1  0  0  0
 10 11  1  0  0  0
 10 17  1  0  0  0
 11 12  2  0  0  0
 11 29  1  0  0  0
 12 30  1  0  0  0
 13 14  1  0  0  0
 13 15  1  0  0  0
 13 16  1  0  0  0
 17 18  2  0  0  0
 17 19  2  0  0  0
 17 20  1  0  0  0
 20 31  1  0  0  0
 20 32  1  0  0  0
 20 33  1  0  0  0
 21 22  1  0  0  0
 21 34  1  0  0  0
 22 23  2  0  0  0
 22 25  1  0  0  0
 23 24  1  0  0  0
 23 35  1  0  0  0
M  END
>  <Name>
4-73

>  <Family>
B.4

>  <IC50_uM>
0.026000

>  <set>
1

$$$$
4-74
  Cerius2 12120216093D 1   1.00000                          
 Structure written by MMmdl.
 38 40  0  0  0  0  0  0  0  0999 V2000
   26.4179   22.1732   16.5304 C   0  0  0  0  0  0
   25.4795   21.4521   17.2705 N   0  0  0  0  0  0
   26.2103   20.8082   18.2539 C   0  0  0  0  0  0
   27.5167   21.2447   18.1534 C   0  0  0  0  0  0
   27.6215   22.1099   17.0778 N   0  0  0  0  0  0
   24.0589   21.3751   17.1263 C   0  0  0  0  0  0
   26.2147   22.8383   15.2703 C   0  0  0  0  0  0
   23.3637   22.2637   16.2932 C   0  0  0  0  0  0
   21.9714   22.1831   16.1719 C   0  0  0  0  0  0
   21.2656   21.2226   16.8975 C   0  0  0  0  0  0
   21.9409   20.3356   17.7359 C   0  0  0  0  0  0
   23.3327   20.4186   17.8565 C   0  0  0  0  0  0
   28.6884   20.8915   19.0226 C   0  0  0  0  0  0
   28.3674   20.0055   20.0103 F   0  0  0  0  0  0
   29.2178   21.9844   19.6460 F   0  0  0  0  0  0
   29.7060   20.3216   18.3135 F   0  0  0  0  0  0
   19.4992   21.1096   16.7257 S   0  0  0  0  0  0
   18.9857   22.4505   16.4628 O   0  0  0  0  0  0
   18.9832   20.3832   17.8817 O   0  0  0  0  0  0
   19.2806   20.1157   15.2737 C   0  0  0  0  0  0
   26.4345   24.1786   14.9818 C   0  0  0  0  0  0
   26.1525   24.4616   13.6031 C   0  0  0  0  0  0
   25.7592   23.3462   12.8999 C   0  0  0  0  0  0
   25.7365   21.9509   13.8810 S   0  0  0  0  0  0
   26.8933   25.2092   15.9638 C   0  0  0  0  0  0
   25.7526   20.1530   18.9820 H   0  0  0  0  0  0
   23.8627   23.0630   15.7524 H   0  0  0  0  0  0
   21.4518   22.8838   15.5209 H   0  0  0  0  0  0
   21.4013   19.5775   18.2998 H   0  0  0  0  0  0
   23.8242   19.6964   18.5057 H   0  0  0  0  0  0
   18.2086   20.0011   15.0998 H   0  0  0  0  0  0
   19.7366   19.1379   15.4397 H   0  0  0  0  0  0
   19.7430   20.6212   14.4239 H   0  0  0  0  0  0
   26.2406   25.4425   13.1472 H   0  0  0  0  0  0
   25.4942   23.2854   11.8518 H   0  0  0  0  0  0
   27.9229   25.0068   16.2758 H   0  0  0  0  0  0
   26.2509   25.2099   16.8505 H   0  0  0  0  0  0
   26.8629   26.2128   15.5274 H   0  0  0  0  0  0
  1  2  1  0  0  0
  1  5  2  0  0  0
  1  7  1  0  0  0
  2  3  1  0  0  0
  2  6  1  0  0  0
  3  4  2  0  0  0
  3 26  1  0  0  0
  4  5  1  0  0  0
  4 13  1  0  0  0
  6  8  2  0  0  0
  6 12  1  0  0  0
  7 21  2  0  0  0
  7 24  1  0  0  0
  8  9  1  0  0  0
  8 27  1  0  0  0
  9 10  2  0  0  0
  9 28  1  0  0  0
 10 11  1  0  0  0
 10 17  1  0  0  0
 11 12  2  0  0  0
 11 29  1  0  0  0
 12 30  1  0  0  0
 13 14  1  0  0  0
 13 15  1  0  0  0
 13 16  1  0  0  0
 17 18  2  0  0  0
 17 19  2  0  0  0
 17 20  1  0  0  0
 20 31  1  0  0  0
 20 32  1  0  0  0
 20 33  1  0  0  0
 21 22  1  0  0  0
 21 25  1  0  0  0
 22 23  2  0  0  0
 22 34  1  0  0  0
 23 24  1  0  0  0
 23 35  1  0  0  0
 25 36  1  0  0  0
 25 37  1  0  0  0
 25 38  1  0  0  0
M  END
>  <Name>
4-74

>  <Family>
B.4

>  <IC50_uM>
1.100000

>  <set>
1

$$$$
4-75
  Cerius2 12120216093D 1   1.00000                          
 Structure written by MMmdl.
 37 39  0  0  0  0  0  0  0  0999 V2000
   26.3984   22.1517   16.4826 C   0  0  0  0  0  0
   25.4710   21.4533   17.2542 N   0  0  0  0  0  0
   26.2080   20.8469   18.2553 C   0  0  0  0  0  0
   27.5082   21.2990   18.1419 C   0  0  0  0  0  0
   27.6028   22.1269   17.0353 N   0  0  0  0  0  0
   24.0516   21.3709   17.1191 C   0  0  0  0  0  0
   26.1844   22.7721   15.1452 C   0  0  0  0  0  0
   23.3519   22.2598   16.2899 C   0  0  0  0  0  0
   21.9594   22.1764   16.1758 C   0  0  0  0  0  0
   21.2595   21.2143   16.9058 C   0  0  0  0  0  0
   21.9409   20.3290   17.7417 C   0  0  0  0  0  0
   23.3329   20.4142   17.8554 C   0  0  0  0  0  0
   28.6825   20.9946   19.0267 C   0  0  0  0  0  0
   28.3837   20.1007   20.0144 F   0  0  0  0  0  0
   29.1616   22.1095   19.6516 F   0  0  0  0  0  0
   29.7298   20.4614   18.3325 F   0  0  0  0  0  0
   19.4923   21.0976   16.7440 S   0  0  0  0  0  0
   18.9698   22.4444   16.5349 O   0  0  0  0  0  0
   18.9896   20.3262   17.8766 O   0  0  0  0  0  0
   19.2668   20.1564   15.2584 C   0  0  0  0  0  0
   26.4405   24.1183   14.9241 N   0  0  0  0  0  0
   26.2006   24.4156   13.6626 C   0  0  0  0  0  0
   25.6851   23.1031   12.6779 S   0  0  0  0  0  0
   25.7937   22.0572   14.0310 C   0  0  0  0  0  0
   26.3507   25.7731   13.0688 C   0  0  0  0  0  0
   25.7564   20.2115   19.0047 H   0  0  0  0  0  0
   23.8491   23.0625   15.7507 H   0  0  0  0  0  0
   21.4347   22.8765   15.5284 H   0  0  0  0  0  0
   21.4053   19.5707   18.3095 H   0  0  0  0  0  0
   23.8310   19.6951   18.5029 H   0  0  0  0  0  0
   18.1940   20.0443   15.0877 H   0  0  0  0  0  0
   19.7272   19.1748   15.3854 H   0  0  0  0  0  0
   19.7216   20.6939   14.4242 H   0  0  0  0  0  0
   25.5694   21.0029   13.9437 H   0  0  0  0  0  0
   27.0959   25.7670   12.2672 H   0  0  0  0  0  0
   26.6797   26.4879   13.8298 H   0  0  0  0  0  0
   25.3979   26.1275   12.6627 H   0  0  0  0  0  0
  1  2  1  0  0  0
  1  5  2  0  0  0
  1  7  1  0  0  0
  2  3  1  0  0  0
  2  6  1  0  0  0
  3  4  2  0  0  0
  3 26  1  0  0  0
  4  5  1  0  0  0
  4 13  1  0  0  0
  6  8  2  0  0  0
  6 12  1  0  0  0
  7 21  1  0  0  0
  7 24  2  0  0  0
  8  9  1  0  0  0
  8 27  1  0  0  0
  9 10  2  0  0  0
  9 28  1  0  0  0
 10 11  1  0  0  0
 10 17  1  0  0  0
 11 12  2  0  0  0
 11 29  1  0  0  0
 12 30  1  0  0  0
 13 14  1  0  0  0
 13 15  1  0  0  0
 13 16  1  0  0  0
 17 18  2  0  0  0
 17 19  2  0  0  0
 17 20  1  0  0  0
 20 31  1  0  0  0
 20 32  1  0  0  0
 20 33  1  0  0  0
 21 22  2  0  0  0
 22 23  1  0  0  0
 22 25  1  0  0  0
 23 24  1  0  0  0
 24 34  1  0  0  0
 25 35  1  0  0  0
 25 36  1  0  0  0
 25 37  1  0  0  0
M  END
>  <Name>
4-75

>  <Family>
B.4

>  <IC50_uM>
0.940000

>  <set>
2

$$$$
4-76
  Cerius2 12120216093D 1   1.00000                          
 Structure written by MMmdl.
 36 38  0  0  0  0  0  0  0  0999 V2000
   26.3974   22.1521   16.4825 C   0  0  0  0  0  0
   25.4707   21.4525   17.2539 N   0  0  0  0  0  0
   26.2085   20.8464   18.2547 C   0  0  0  0  0  0
   27.5080   21.3003   18.1416 C   0  0  0  0  0  0
   27.6018   22.1285   17.0353 N   0  0  0  0  0  0
   24.0512   21.3693   17.1192 C   0  0  0  0  0  0
   26.1833   22.7724   15.1451 C   0  0  0  0  0  0
   23.3507   22.2585   16.2910 C   0  0  0  0  0  0
   21.9579   22.1748   16.1794 C   0  0  0  0  0  0
   21.2574   21.2122   16.9094 C   0  0  0  0  0  0
   21.9405   20.3277   17.7447 C   0  0  0  0  0  0
   23.3331   20.4123   17.8561 C   0  0  0  0  0  0
   28.6830   20.9974   19.0262 C   0  0  0  0  0  0
   28.3851   20.1050   20.0156 F   0  0  0  0  0  0
   29.1628   22.1133   19.6487 F   0  0  0  0  0  0
   29.7296   20.4631   18.3317 F   0  0  0  0  0  0
   19.4973   21.1011   16.7395 S   0  0  0  0  0  0
   18.9530   22.4193   16.4650 O   0  0  0  0  0  0
   18.9680   20.2966   17.8263 O   0  0  0  0  0  0
   19.3359   20.2067   15.3324 N   0  0  0  0  0  0
   26.4388   24.1187   14.9237 N   0  0  0  0  0  0
   26.2008   24.4155   13.6619 C   0  0  0  0  0  0
   25.6870   23.1027   12.6768 S   0  0  0  0  0  0
   25.7940   22.0572   14.0305 C   0  0  0  0  0  0
   26.3514   25.7728   13.0679 C   0  0  0  0  0  0
   25.7576   20.2100   19.0039 H   0  0  0  0  0  0
   23.8469   23.0619   15.7521 H   0  0  0  0  0  0
   21.4284   22.8751   15.5361 H   0  0  0  0  0  0
   21.4049   19.5707   18.3137 H   0  0  0  0  0  0
   23.8319   19.6932   18.5030 H   0  0  0  0  0  0
   18.8587   20.7462   14.6056 H   0  0  0  0  0  0
   18.8597   19.3190   15.5118 H   0  0  0  0  0  0
   25.5703   21.0028   13.9431 H   0  0  0  0  0  0
   27.0934   25.7654   12.2632 H   0  0  0  0  0  0
   26.6849   26.4866   13.8277 H   0  0  0  0  0  0
   25.3977   26.1293   12.6660 H   0  0  0  0  0  0
  1  2  1  0  0  0
  1  5  2  0  0  0
  1  7  1  0  0  0
  2  3  1  0  0  0
  2  6  1  0  0  0
  3  4  2  0  0  0
  3 26  1  0  0  0
  4  5  1  0  0  0
  4 13  1  0  0  0
  6  8  2  0  0  0
  6 12  1  0  0  0
  7 21  1  0  0  0
  7 24  2  0  0  0
  8  9  1  0  0  0
  8 27  1  0  0  0
  9 10  2  0  0  0
  9 28  1  0  0  0
 10 11  1  0  0  0
 10 17  1  0  0  0
 11 12  2  0  0  0
 11 29  1  0  0  0
 12 30  1  0  0  0
 13 14  1  0  0  0
 13 15  1  0  0  0
 13 16  1  0  0  0
 17 18  2  0  0  0
 17 19  2  0  0  0
 17 20  1  0  0  0
 20 31  1  0  0  0
 20 32  1  0  0  0
 21 22  2  0  0  0
 22 23  1  0  0  0
 22 25  1  0  0  0
 23 24  1  0  0  0
 24 33  1  0  0  0
 25 34  1  0  0  0
 25 35  1  0  0  0
 25 36  1  0  0  0
M  END
>  <Name>
4-76

>  <Family>
B.4

>  <IC50_uM>
0.520000

>  <set>
1

$$$$
4-77
  Cerius2 12120216093D 1   1.00000                          
 Structure written by MMmdl.
 36 38  0  0  0  0  0  0  0  0999 V2000
   26.4303   22.1402   16.5384 C   0  0  0  0  0  0
   25.4862   21.4134   17.2646 N   0  0  0  0  0  0
   26.2081   20.7549   18.2442 C   0  0  0  0  0  0
   27.5118   21.2052   18.1702 C   0  0  0  0  0  0
   27.6244   22.0864   17.1073 N   0  0  0  0  0  0
   24.0665   21.3501   17.1167 C   0  0  0  0  0  0
   26.2483   22.8000   15.2790 C   0  0  0  0  0  0
   23.3851   22.2517   16.2861 C   0  0  0  0  0  0
   21.9924   22.1880   16.1632 C   0  0  0  0  0  0
   21.2728   21.2321   16.8837 C   0  0  0  0  0  0
   21.9361   20.3360   17.7221 C   0  0  0  0  0  0
   23.3288   20.4011   17.8449 C   0  0  0  0  0  0
   28.6731   20.8518   19.0537 C   0  0  0  0  0  0
   28.3551   19.9201   19.9995 F   0  0  0  0  0  0
   29.1561   21.9346   19.7299 F   0  0  0  0  0  0
   29.7227   20.3381   18.3484 F   0  0  0  0  0  0
   19.5128   21.1499   16.6994 S   0  0  0  0  0  0
   18.9912   22.4772   16.4241 O   0  0  0  0  0  0
   18.9634   20.3507   17.7800 O   0  0  0  0  0  0
   19.3481   20.2637   15.2874 N   0  0  0  0  0  0
   25.7927   22.2458   14.0991 C   0  0  0  0  0  0
   25.6734   23.1168   13.0270 N   0  0  0  0  0  0
   26.0055   24.3329   13.4127 C   0  0  0  0  0  0
   26.4613   24.4889   15.0635 S   0  0  0  0  0  0
   25.9969   25.5331   12.5309 C   0  0  0  0  0  0
   25.7437   20.0865   18.9564 H   0  0  0  0  0  0
   23.8970   23.0479   15.7518 H   0  0  0  0  0  0
   21.4771   22.8972   15.5182 H   0  0  0  0  0  0
   21.3859   19.5844   18.2843 H   0  0  0  0  0  0
   23.8125   19.6731   18.4935 H   0  0  0  0  0  0
   18.8857   20.8138   14.5588 H   0  0  0  0  0  0
   18.8564   19.3829   15.4591 H   0  0  0  0  0  0
   25.5394   21.1993   13.9655 H   0  0  0  0  0  0
   25.2895   26.2820   12.9007 H   0  0  0  0  0  0
   25.6963   25.2579   11.5148 H   0  0  0  0  0  0
   26.9930   25.9838   12.4769 H   0  0  0  0  0  0
  1  2  1  0  0  0
  1  5  2  0  0  0
  1  7  1  0  0  0
  2  3  1  0  0  0
  2  6  1  0  0  0
  3  4  2  0  0  0
  3 26  1  0  0  0
  4  5  1  0  0  0
  4 13  1  0  0  0
  6  8  2  0  0  0
  6 12  1  0  0  0
  7 21  2  0  0  0
  7 24  1  0  0  0
  8  9  1  0  0  0
  8 27  1  0  0  0
  9 10  2  0  0  0
  9 28  1  0  0  0
 10 11  1  0  0  0
 10 17  1  0  0  0
 11 12  2  0  0  0
 11 29  1  0  0  0
 12 30  1  0  0  0
 13 14  1  0  0  0
 13 15  1  0  0  0
 13 16  1  0  0  0
 17 18  2  0  0  0
 17 19  2  0  0  0
 17 20  1  0  0  0
 20 31  1  0  0  0
 20 32  1  0  0  0
 21 22  1  0  0  0
 21 33  1  0  0  0
 22 23  2  0  0  0
 23 24  1  0  0  0
 23 25  1  0  0  0
 25 34  1  0  0  0
 25 35  1  0  0  0
 25 36  1  0  0  0
M  END
>  <Name>
4-77

>  <Family>
B.4

>  <IC50_uM>
0.430000

>  <set>
2

$$$$
4-78
  Cerius2 12120216093D 1   1.00000                          
 Structure written by MMmdl.
 36 38  0  0  0  0  0  0  0  0999 V2000
   26.4238   22.1548   16.5232 C   0  0  0  0  0  0
   25.4813   21.4184   17.2416 N   0  0  0  0  0  0
   26.2031   20.7563   18.2211 C   0  0  0  0  0  0
   27.5072   21.2029   18.1505 C   0  0  0  0  0  0
   27.6213   22.0885   17.0930 N   0  0  0  0  0  0
   24.0592   21.3502   17.1010 C   0  0  0  0  0  0
   26.2127   22.8135   15.2604 C   0  0  0  0  0  0
   23.3665   22.2494   16.2772 C   0  0  0  0  0  0
   21.9722   22.1836   16.1683 C   0  0  0  0  0  0
   21.2610   21.2279   16.8964 C   0  0  0  0  0  0
   21.9346   20.3324   17.7272 C   0  0  0  0  0  0
   23.3286   20.3996   17.8354 C   0  0  0  0  0  0
   28.6680   20.8423   19.0324 C   0  0  0  0  0  0
   28.3475   19.9088   19.9754 F   0  0  0  0  0  0
   29.1552   21.9215   19.7113 F   0  0  0  0  0  0
   29.7151   20.3275   18.3242 F   0  0  0  0  0  0
   19.4996   21.1383   16.7283 S   0  0  0  0  0  0
   18.9711   22.4633   16.4555 O   0  0  0  0  0  0
   18.9616   20.3393   17.8148 O   0  0  0  0  0  0
   19.3253   20.2480   15.3203 N   0  0  0  0  0  0
   26.5087   24.4970   15.0666 S   0  0  0  0  0  0
   26.0619   24.3788   13.4176 C   0  0  0  0  0  0
   25.7333   23.0741   13.1056 C   0  0  0  0  0  0
   25.8337   22.1830   14.1650 N   0  0  0  0  0  0
   25.2953   22.5621   11.7815 C   0  0  0  0  0  0
   25.7377   20.0862   18.9309 H   0  0  0  0  0  0
   23.8706   23.0429   15.7323 H   0  0  0  0  0  0
   21.4509   22.8907   15.5259 H   0  0  0  0  0  0
   21.3911   19.5796   18.2945 H   0  0  0  0  0  0
   23.8183   19.6710   18.4787 H   0  0  0  0  0  0
   18.8551   20.7950   14.5944 H   0  0  0  0  0  0
   18.8365   19.3669   15.4990 H   0  0  0  0  0  0
   26.0645   25.2452   12.7698 H   0  0  0  0  0  0
   25.9108   21.7077   11.4834 H   0  0  0  0  0  0
   25.3804   23.3307   11.0070 H   0  0  0  0  0  0
   24.2514   22.2370   11.8302 H   0  0  0  0  0  0
  1  2  1  0  0  0
  1  5  2  0  0  0
  1  7  1  0  0  0
  2  3  1  0  0  0
  2  6  1  0  0  0
  3  4  2  0  0  0
  3 26  1  0  0  0
  4  5  1  0  0  0
  4 13  1  0  0  0
  6  8  2  0  0  0
  6 12  1  0  0  0
  7 21  1  0  0  0
  7 24  2  0  0  0
  8  9  1  0  0  0
  8 27  1  0  0  0
  9 10  2  0  0  0
  9 28  1  0  0  0
 10 11  1  0  0  0
 10 17  1  0  0  0
 11 12  2  0  0  0
 11 29  1  0  0  0
 12 30  1  0  0  0
 13 14  1  0  0  0
 13 15  1  0  0  0
 13 16  1  0  0  0
 17 18  2  0  0  0
 17 19  2  0  0  0
 17 20  1  0  0  0
 20 31  1  0  0  0
 20 32  1  0  0  0
 21 22  1  0  0  0
 22 23  2  0  0  0
 22 33  1  0  0  0
 23 24  1  0  0  0
 23 25  1  0  0  0
 25 34  1  0  0  0
 25 35  1  0  0  0
 25 36  1  0  0  0
M  END
>  <Name>
4-78

>  <Family>
B.4

>  <IC50_uM>
0.110000

>  <set>
0

$$$$
4-79
  Cerius2 12120216093D 1   1.00000                          
 Structure written by MMmdl.
 37 39  0  0  0  0  0  0  0  0999 V2000
   26.4202   22.1544   16.5103 C   0  0  0  0  0  0
   25.4860   21.4357   17.2546 N   0  0  0  0  0  0
   26.2128   20.7995   18.2444 C   0  0  0  0  0  0
   27.5119   21.2613   18.1620 C   0  0  0  0  0  0
   27.6163   22.1211   17.0808 N   0  0  0  0  0  0
   24.0677   21.3632   17.1103 C   0  0  0  0  0  0
   26.2280   22.7976   15.1887 C   0  0  0  0  0  0
   23.3807   22.2614   16.2805 C   0  0  0  0  0  0
   21.9881   22.1907   16.1598 C   0  0  0  0  0  0
   21.2763   21.2325   16.8835 C   0  0  0  0  0  0
   21.9455   20.3387   17.7204 C   0  0  0  0  0  0
   23.3376   20.4115   17.8414 C   0  0  0  0  0  0
   28.6762   20.9381   19.0536 C   0  0  0  0  0  0
   28.3650   20.0275   20.0220 F   0  0  0  0  0  0
   29.1514   22.0404   19.7032 F   0  0  0  0  0  0
   29.7293   20.4147   18.3607 F   0  0  0  0  0  0
   19.5088   21.1314   16.7126 S   0  0  0  0  0  0
   18.9990   22.4837   16.5078 O   0  0  0  0  0  0
   18.9942   20.3588   17.8389 O   0  0  0  0  0  0
   19.2824   20.1992   15.2215 C   0  0  0  0  0  0
   25.7577   22.1395   14.0715 N   0  0  0  0  0  0
   25.6962   23.0846   13.1531 C   0  0  0  0  0  0
   26.0722   24.3257   13.5933 O   0  0  0  0  0  0
   26.3980   24.1314   14.9031 C   0  0  0  0  0  0
   25.2770   22.9875   11.7399 C   0  0  0  0  0  0
   25.7536   20.1410   18.9691 H   0  0  0  0  0  0
   23.8888   23.0622   15.7481 H   0  0  0  0  0  0
   21.4726   22.8979   15.5126 H   0  0  0  0  0  0
   21.4004   19.5839   18.2835 H   0  0  0  0  0  0
   23.8272   19.6877   18.4903 H   0  0  0  0  0  0
   18.2095   20.0929   15.0481 H   0  0  0  0  0  0
   19.7380   19.2149   15.3443 H   0  0  0  0  0  0
   19.7413   20.7393   14.3912 H   0  0  0  0  0  0
   26.7095   25.0041   15.4598 H   0  0  0  0  0  0
   24.4136   23.6322   11.5518 H   0  0  0  0  0  0
   24.9991   21.9594   11.4899 H   0  0  0  0  0  0
   26.0921   23.2934   11.0775 H   0  0  0  0  0  0
  1  2  1  0  0  0
  1  5  2  0  0  0
  1  7  1  0  0  0
  2  3  1  0  0  0
  2  6  1  0  0  0
  3  4  2  0  0  0
  3 26  1  0  0  0
  4  5  1  0  0  0
  4 13  1  0  0  0
  6  8  2  0  0  0
  6 12  1  0  0  0
  7 21  1  0  0  0
  7 24  2  0  0  0
  8  9  1  0  0  0
  8 27  1  0  0  0
  9 10  2  0  0  0
  9 28  1  0  0  0
 10 11  1  0  0  0
 10 17  1  0  0  0
 11 12  2  0  0  0
 11 29  1  0  0  0
 12 30  1  0  0  0
 13 14  1  0  0  0
 13 15  1  0  0  0
 13 16  1  0  0  0
 17 18  2  0  0  0
 17 19  2  0  0  0
 17 20  1  0  0  0
 20 31  1  0  0  0
 20 32  1  0  0  0
 20 33  1  0  0  0
 21 22  2  0  0  0
 22 23  1  0  0  0
 22 25  1  0  0  0
 23 24  1  0  0  0
 24 34  1  0  0  0
 25 35  1  0  0  0
 25 36  1  0  0  0
 25 37  1  0  0  0
M  END
>  <Name>
4-79

>  <Family>
B.4

>  <IC50_uM>
4.150000

>  <set>
1

$$$$
4-80
  Cerius2 12120216093D 1   1.00000                          
 Structure written by MMmdl.
 36 38  0  0  0  0  0  0  0  0999 V2000
   26.3964   22.1648   16.5001 C   0  0  0  0  0  0
   25.4680   21.4308   17.2367 N   0  0  0  0  0  0
   26.2027   20.7918   18.2206 C   0  0  0  0  0  0
   27.4974   21.2651   18.1427 C   0  0  0  0  0  0
   27.5928   22.1392   17.0728 N   0  0  0  0  0  0
   24.0480   21.3511   17.1048 C   0  0  0  0  0  0
   26.2002   22.8219   15.1799 C   0  0  0  0  0  0
   23.3470   22.2462   16.2841 C   0  0  0  0  0  0
   21.9526   22.1737   16.1848 C   0  0  0  0  0  0
   21.2508   21.2153   16.9189 C   0  0  0  0  0  0
   21.9342   20.3243   17.7470 C   0  0  0  0  0  0
   23.3282   20.3988   17.8469 C   0  0  0  0  0  0
   28.6656   20.9397   19.0284 C   0  0  0  0  0  0
   28.3595   20.0251   19.9945 F   0  0  0  0  0  0
   29.1425   22.0403   19.6799 F   0  0  0  0  0  0
   29.7162   20.4205   18.3286 F   0  0  0  0  0  0
   19.4889   21.1142   16.7620 S   0  0  0  0  0  0
   18.9473   22.4406   16.5245 O   0  0  0  0  0  0
   18.9650   20.2853   17.8332 O   0  0  0  0  0  0
   19.3126   20.2541   15.3353 N   0  0  0  0  0  0
   26.4404   24.1878   14.9101 C   0  0  0  0  0  0
   26.1726   24.3239   13.5709 C   0  0  0  0  0  0
   25.8130   23.1149   13.0620 O   0  0  0  0  0  0
   25.8470   22.1619   14.0671 N   0  0  0  0  0  0
   26.2031   25.4549   12.6258 C   0  0  0  0  0  0
   25.7508   20.1217   18.9389 H   0  0  0  0  0  0
   23.8462   23.0424   15.7376 H   0  0  0  0  0  0
   21.4235   22.8778   15.5453 H   0  0  0  0  0  0
   21.3977   19.5704   18.3194 H   0  0  0  0  0  0
   23.8270   19.6760   18.4895 H   0  0  0  0  0  0
   18.8310   20.8121   14.6255 H   0  0  0  0  0  0
   18.8345   19.3641   15.4978 H   0  0  0  0  0  0
   26.7608   24.9577   15.5972 H   0  0  0  0  0  0
   25.2157   25.6078   12.1796 H   0  0  0  0  0  0
   26.9203   25.2631   11.8219 H   0  0  0  0  0  0
   26.4961   26.3806   13.1306 H   0  0  0  0  0  0
  1  2  1  0  0  0
  1  5  2  0  0  0
  1  7  1  0  0  0
  2  3  1  0  0  0
  2  6  1  0  0  0
  3  4  2  0  0  0
  3 26  1  0  0  0
  4  5  1  0  0  0
  4 13  1  0  0  0
  6  8  2  0  0  0
  6 12  1  0  0  0
  7 21  1  0  0  0
  7 24  2  0  0  0
  8  9  1  0  0  0
  8 27  1  0  0  0
  9 10  2  0  0  0
  9 28  1  0  0  0
 10 11  1  0  0  0
 10 17  1  0  0  0
 11 12  2  0  0  0
 11 29  1  0  0  0
 12 30  1  0  0  0
 13 14  1  0  0  0
 13 15  1  0  0  0
 13 16  1  0  0  0
 17 18  2  0  0  0
 17 19  2  0  0  0
 17 20  1  0  0  0
 20 31  1  0  0  0
 20 32  1  0  0  0
 21 22  2  0  0  0
 21 33  1  0  0  0
 22 23  1  0  0  0
 22 25  1  0  0  0
 23 24  1  0  0  0
 25 34  1  0  0  0
 25 35  1  0  0  0
 25 36  1  0  0  0
M  END
>  <Name>
4-80

>  <Family>
B.4

>  <IC50_uM>
0.410000

>  <set>
2

$$$$
5-1a
  Cerius2 12120216093D 1   1.00000                          
 Structure written by MMmdl.
 39 41  0  0  0  0  0  0  0  0999 V2000
   26.3821   22.0705   16.4154 C   0  0  0  0  0  0
   25.4948   21.4962   17.2525 C   0  0  0  0  0  0
   26.1785   20.9467   18.4753 C   0  0  0  0  0  0
   27.6505   20.9631   18.0771 C   0  0  0  0  0  0
   27.7697   22.0307   16.9956 C   0  0  0  0  0  0
   24.0380   21.3845   17.1154 C   0  0  0  0  0  0
   26.1546   22.6992   15.1077 C   0  0  0  0  0  0
   23.3299   22.2612   16.2790 C   0  0  0  0  0  0
   21.9400   22.1694   16.1569 C   0  0  0  0  0  0
   21.2470   21.2021   16.8869 C   0  0  0  0  0  0
   21.9339   20.3196   17.7226 C   0  0  0  0  0  0
   23.3244   20.4181   17.8386 C   0  0  0  0  0  0
   26.4194   24.0649   14.9212 C   0  0  0  0  0  0
   26.2220   24.6659   13.6750 C   0  0  0  0  0  0
   25.7680   23.9005   12.6091 C   0  0  0  0  0  0
   25.5111   22.5450   12.7644 C   0  0  0  0  0  0
   25.7082   21.9450   14.0109 C   0  0  0  0  0  0
   25.5797   24.4767   11.4144 F   0  0  0  0  0  0
   19.4816   21.0700   16.7194 S   0  0  0  0  0  0
   18.9447   22.4147   16.5354 O   0  0  0  0  0  0
   18.9844   20.2712   17.8354 O   0  0  0  0  0  0
   19.2688   20.1556   15.2153 C   0  0  0  0  0  0
   25.8676   19.9305   18.7337 H   0  0  0  0  0  0
   25.9955   21.6006   19.3354 H   0  0  0  0  0  0
   27.9343   19.9853   17.6657 H   0  0  0  0  0  0
   28.3084   21.1610   18.9293 H   0  0  0  0  0  0
   28.0353   23.0003   17.4314 H   0  0  0  0  0  0
   28.5290   21.7499   16.2587 H   0  0  0  0  0  0
   23.8555   23.0313   15.7159 H   0  0  0  0  0  0
   21.4149   22.8581   15.4986 H   0  0  0  0  0  0
   21.4041   19.5562   18.2883 H   0  0  0  0  0  0
   23.8439   19.7176   18.4908 H   0  0  0  0  0  0
   26.7699   24.6814   15.7474 H   0  0  0  0  0  0
   26.4210   25.7247   13.5370 H   0  0  0  0  0  0
   25.1635   21.9576   11.9194 H   0  0  0  0  0  0
   25.5174   20.8777   14.1128 H   0  0  0  0  0  0
   18.1976   20.0350   15.0406 H   0  0  0  0  0  0
   19.7398   19.1769   15.3238 H   0  0  0  0  0  0
   19.7187   20.7144   14.3925 H   0  0  0  0  0  0
  1  2  2  0  0  0
  1  5  1  0  0  0
  1  7  1  0  0  0
  2  3  1  0  0  0
  2  6  1  0  0  0
  3  4  1  0  0  0
  3 23  1  0  0  0
  3 24  1  0  0  0
  4  5  1  0  0  0
  4 25  1  0  0  0
  4 26  1  0  0  0
  5 27  1  0  0  0
  5 28  1  0  0  0
  6  8  2  0  0  0
  6 12  1  0  0  0
  7 13  2  0  0  0
  7 17  1  0  0  0
  8  9  1  0  0  0
  8 29  1  0  0  0
  9 10  2  0  0  0
  9 30  1  0  0  0
 10 11  1  0  0  0
 10 19  1  0  0  0
 11 12  2  0  0  0
 11 31  1  0  0  0
 12 32  1  0  0  0
 13 14  1  0  0  0
 13 33  1  0  0  0
 14 15  2  0  0  0
 14 34  1  0  0  0
 15 16  1  0  0  0
 15 18  1  0  0  0
 16 17  2  0  0  0
 16 35  1  0  0  0
 17 36  1  0  0  0
 19 20  2  0  0  0
 19 21  2  0  0  0
 19 22  1  0  0  0
 22 37  1  0  0  0
 22 38  1  0  0  0
 22 39  1  0  0  0
M  END
>  <Name>
5-1a

>  <Family>
C

>  <IC50_uM>
0.026000

>  <set>
1

$$$$
5-1b
  Cerius2 12120216093D 1   1.00000                          
 Structure written by MMmdl.
 43 45  0  0  0  0  0  0  0  0999 V2000
   26.3812   22.0707   16.4160 C   0  0  0  0  0  0
   25.4945   21.4967   17.2542 C   0  0  0  0  0  0
   26.1789   20.9440   18.4748 C   0  0  0  0  0  0
   27.6502   20.9573   18.0740 C   0  0  0  0  0  0
   27.7697   22.0264   16.9936 C   0  0  0  0  0  0
   24.0378   21.3863   17.1188 C   0  0  0  0  0  0
   26.1532   22.7012   15.1094 C   0  0  0  0  0  0
   23.3301   22.2626   16.2821 C   0  0  0  0  0  0
   21.9404   22.1694   16.1592 C   0  0  0  0  0  0
   21.2479   21.2011   16.8881 C   0  0  0  0  0  0
   21.9343   20.3203   17.7259 C   0  0  0  0  0  0
   23.3247   20.4198   17.8425 C   0  0  0  0  0  0
   26.4159   24.0627   14.9203 C   0  0  0  0  0  0
   26.2195   24.6606   13.6706 C   0  0  0  0  0  0
   25.7655   23.9104   12.5844 C   0  0  0  0  0  0
   25.5135   22.5512   12.7587 C   0  0  0  0  0  0
   25.7104   21.9528   14.0108 C   0  0  0  0  0  0
   19.4834   21.0691   16.7134 S   0  0  0  0  0  0
   18.9471   22.4111   16.5089 O   0  0  0  0  0  0
   18.9822   20.2852   17.8379 O   0  0  0  0  0  0
   19.2772   20.1370   15.2196 C   0  0  0  0  0  0
   25.6155   24.6142   11.4216 O   0  0  0  0  0  0
   25.9323   26.0047   11.4686 C   0  0  0  0  0  0
   25.8661   19.9279   18.7321 H   0  0  0  0  0  0
   25.9987   21.5970   19.3364 H   0  0  0  0  0  0
   27.9303   19.9795   17.6603 H   0  0  0  0  0  0
   28.3104   21.1520   18.9252 H   0  0  0  0  0  0
   28.0388   22.9948   17.4300 H   0  0  0  0  0  0
   28.5268   21.7445   16.2549 H   0  0  0  0  0  0
   23.8557   23.0322   15.7183 H   0  0  0  0  0  0
   21.4147   22.8568   15.4998 H   0  0  0  0  0  0
   21.4049   19.5570   18.2919 H   0  0  0  0  0  0
   23.8446   19.7198   18.4946 H   0  0  0  0  0  0
   26.7648   24.6824   15.7444 H   0  0  0  0  0  0
   26.4250   25.7232   13.5514 H   0  0  0  0  0  0
   25.1674   21.9194   11.9451 H   0  0  0  0  0  0
   25.5207   20.8849   14.1111 H   0  0  0  0  0  0
   18.2065   20.0198   15.0386 H   0  0  0  0  0  0
   19.7426   19.1573   15.3437 H   0  0  0  0  0  0
   19.7362   20.6836   14.3935 H   0  0  0  0  0  0
   25.7715   26.4161   10.4675 H   0  0  0  0  0  0
   26.9842   26.1600   11.7293 H   0  0  0  0  0  0
   25.2682   26.5354   12.1587 H   0  0  0  0  0  0
  1  2  2  0  0  0
  1  5  1  0  0  0
  1  7  1  0  0  0
  2  3  1  0  0  0
  2  6  1  0  0  0
  3  4  1  0  0  0
  3 24  1  0  0  0
  3 25  1  0  0  0
  4  5  1  0  0  0
  4 26  1  0  0  0
  4 27  1  0  0  0
  5 28  1  0  0  0
  5 29  1  0  0  0
  6  8  2  0  0  0
  6 12  1  0  0  0
  7 13  2  0  0  0
  7 17  1  0  0  0
  8  9  1  0  0  0
  8 30  1  0  0  0
  9 10  2  0  0  0
  9 31  1  0  0  0
 10 11  1  0  0  0
 10 18  1  0  0  0
 11 12  2  0  0  0
 11 32  1  0  0  0
 12 33  1  0  0  0
 13 14  1  0  0  0
 13 34  1  0  0  0
 14 15  2  0  0  0
 14 35  1  0  0  0
 15 16  1  0  0  0
 15 22  1  0  0  0
 16 17  2  0  0  0
 16 36  1  0  0  0
 17 37  1  0  0  0
 18 19  2  0  0  0
 18 20  2  0  0  0
 18 21  1  0  0  0
 21 38  1  0  0  0
 21 39  1  0  0  0
 21 40  1  0  0  0
 22 23  1  0  0  0
 23 41  1  0  0  0
 23 42  1  0  0  0
 23 43  1  0  0  0
M  END
>  <Name>
5-1b

>  <Family>
C

>  <IC50_uM>
0.005000

>  <set>
1

$$$$
5-1c
  Cerius2 12120216093D 1   1.00000                          
 Structure written by MMmdl.
 39 41  0  0  0  0  0  0  0  0999 V2000
   26.3819   22.0707   16.4158 C   0  0  0  0  0  0
   25.4944   21.4965   17.2527 C   0  0  0  0  0  0
   26.1778   20.9458   18.4750 C   0  0  0  0  0  0
   27.6501   20.9626   18.0773 C   0  0  0  0  0  0
   27.7696   22.0302   16.9958 C   0  0  0  0  0  0
   24.0376   21.3849   17.1154 C   0  0  0  0  0  0
   26.1550   22.6993   15.1079 C   0  0  0  0  0  0
   23.3294   22.2612   16.2788 C   0  0  0  0  0  0
   21.9395   22.1688   16.1566 C   0  0  0  0  0  0
   21.2468   21.2015   16.8870 C   0  0  0  0  0  0
   21.9338   20.3191   17.7224 C   0  0  0  0  0  0
   23.3243   20.4182   17.8384 C   0  0  0  0  0  0
   26.4190   24.0638   14.9203 C   0  0  0  0  0  0
   26.2227   24.6660   13.6730 C   0  0  0  0  0  0
   25.7685   23.9043   12.5998 C   0  0  0  0  0  0
   25.5127   22.5459   12.7630 C   0  0  0  0  0  0
   25.7098   21.9464   14.0113 C   0  0  0  0  0  0
   19.4812   21.0699   16.7210 S   0  0  0  0  0  0
   18.9444   22.4151   16.5394 O   0  0  0  0  0  0
   18.9849   20.2696   17.8364 O   0  0  0  0  0  0
   19.2670   20.1577   15.2156 C   0  0  0  0  0  0
   25.5276   24.6438   11.0645 Cl  0  0  0  0  0  0
   25.8672   19.9291   18.7320 H   0  0  0  0  0  0
   25.9945   21.5986   19.3360 H   0  0  0  0  0  0
   27.9340   19.9848   17.6661 H   0  0  0  0  0  0
   28.3076   21.1604   18.9298 H   0  0  0  0  0  0
   28.0360   22.9997   17.4313 H   0  0  0  0  0  0
   28.5284   21.7491   16.2586 H   0  0  0  0  0  0
   23.8548   23.0314   15.7155 H   0  0  0  0  0  0
   21.4141   22.8572   15.4982 H   0  0  0  0  0  0
   21.4044   19.5555   18.2881 H   0  0  0  0  0  0
   23.8440   19.7179   18.4906 H   0  0  0  0  0  0
   26.7686   24.6810   15.7465 H   0  0  0  0  0  0
   26.4270   25.7274   13.5525 H   0  0  0  0  0  0
   25.1641   21.9427   11.9282 H   0  0  0  0  0  0
   25.5191   20.8792   14.1130 H   0  0  0  0  0  0
   18.1955   20.0371   15.0421 H   0  0  0  0  0  0
   19.7384   19.1790   15.3222 H   0  0  0  0  0  0
   19.7157   20.7179   14.3933 H   0  0  0  0  0  0
  1  2  2  0  0  0
  1  5  1  0  0  0
  1  7  1  0  0  0
  2  3  1  0  0  0
  2  6  1  0  0  0
  3  4  1  0  0  0
  3 23  1  0  0  0
  3 24  1  0  0  0
  4  5  1  0  0  0
  4 25  1  0  0  0
  4 26  1  0  0  0
  5 27  1  0  0  0
  5 28  1  0  0  0
  6  8  2  0  0  0
  6 12  1  0  0  0
  7 13  2  0  0  0
  7 17  1  0  0  0
  8  9  1  0  0  0
  8 29  1  0  0  0
  9 10  2  0  0  0
  9 30  1  0  0  0
 10 11  1  0  0  0
 10 18  1  0  0  0
 11 12  2  0  0  0
 11 31  1  0  0  0
 12 32  1  0  0  0
 13 14  1  0  0  0
 13 33  1  0  0  0
 14 15  2  0  0  0
 14 34  1  0  0  0
 15 16  1  0  0  0
 15 22  1  0  0  0
 16 17  2  0  0  0
 16 35  1  0  0  0
 17 36  1  0  0  0
 18 19  2  0  0  0
 18 20  2  0  0  0
 18 21  1  0  0  0
 21 37  1  0  0  0
 21 38  1  0  0  0
 21 39  1  0  0  0
M  END
>  <Name>
5-1c

>  <Family>
C

>  <IC50_uM>
0.003000

>  <set>
0

$$$$
5-1d
  Cerius2 12120216093D 1   1.00000                          
 Structure written by MMmdl.
 42 44  0  0  0  0  0  0  0  0999 V2000
   26.3805   22.0711   16.4149 C   0  0  0  0  0  0
   25.4924   21.4968   17.2515 C   0  0  0  0  0  0
   26.1757   20.9461   18.4741 C   0  0  0  0  0  0
   27.6480   20.9615   18.0765 C   0  0  0  0  0  0
   27.7679   22.0297   16.9959 C   0  0  0  0  0  0
   24.0354   21.3843   17.1151 C   0  0  0  0  0  0
   26.1572   22.7003   15.1061 C   0  0  0  0  0  0
   23.3255   22.2603   16.2797 C   0  0  0  0  0  0
   21.9353   22.1675   16.1597 C   0  0  0  0  0  0
   21.2440   21.2000   16.8909 C   0  0  0  0  0  0
   21.9325   20.3183   17.7259 C   0  0  0  0  0  0
   23.3231   20.4178   17.8396 C   0  0  0  0  0  0
   26.4188   24.0637   14.9194 C   0  0  0  0  0  0
   26.2302   24.6662   13.6710 C   0  0  0  0  0  0
   25.7938   23.9118   12.5776 C   0  0  0  0  0  0
   25.5287   22.5510   12.7580 C   0  0  0  0  0  0
   25.7177   21.9507   14.0074 C   0  0  0  0  0  0
   19.4786   21.0666   16.7251 S   0  0  0  0  0  0
   18.9393   22.4119   16.5503 O   0  0  0  0  0  0
   18.9842   20.2601   17.8366 O   0  0  0  0  0  0
   19.2649   20.1619   15.2153 C   0  0  0  0  0  0
   25.5583   24.5644   11.2471 C   0  0  0  0  0  0
   25.8646   19.9297   18.7321 H   0  0  0  0  0  0
   25.9927   21.5996   19.3347 H   0  0  0  0  0  0
   27.9308   19.9838   17.6644 H   0  0  0  0  0  0
   28.3058   21.1581   18.9290 H   0  0  0  0  0  0
   28.0342   22.9989   17.4324 H   0  0  0  0  0  0
   28.5273   21.7486   16.2589 H   0  0  0  0  0  0
   23.8499   23.0300   15.7148 H   0  0  0  0  0  0
   21.4086   22.8554   15.5017 H   0  0  0  0  0  0
   21.4043   19.5548   18.2930 H   0  0  0  0  0  0
   23.8439   19.7176   18.4910 H   0  0  0  0  0  0
   26.7595   24.6822   15.7484 H   0  0  0  0  0  0
   26.4283   25.7319   13.5613 H   0  0  0  0  0  0
   25.1766   21.9427   11.9256 H   0  0  0  0  0  0
   25.5224   20.8841   14.1076 H   0  0  0  0  0  0
   18.1935   20.0413   15.0414 H   0  0  0  0  0  0
   19.7372   19.1831   15.3168 H   0  0  0  0  0  0
   19.7129   20.7268   14.3958 H   0  0  0  0  0  0
   25.7270   23.8561   10.4294 H   0  0  0  0  0  0
   26.2457   25.4035   11.0968 H   0  0  0  0  0  0
   24.5300   24.9342   11.1888 H   0  0  0  0  0  0
  1  2  2  0  0  0
  1  5  1  0  0  0
  1  7  1  0  0  0
  2  3  1  0  0  0
  2  6  1  0  0  0
  3  4  1  0  0  0
  3 23  1  0  0  0
  3 24  1  0  0  0
  4  5  1  0  0  0
  4 25  1  0  0  0
  4 26  1  0  0  0
  5 27  1  0  0  0
  5 28  1  0  0  0
  6  8  2  0  0  0
  6 12  1  0  0  0
  7 13  2  0  0  0
  7 17  1  0  0  0
  8  9  1  0  0  0
  8 29  1  0  0  0
  9 10  2  0  0  0
  9 30  1  0  0  0
 10 11  1  0  0  0
 10 18  1  0  0  0
 11 12  2  0  0  0
 11 31  1  0  0  0
 12 32  1  0  0  0
 13 14  1  0  0  0
 13 33  1  0  0  0
 14 15  2  0  0  0
 14 34  1  0  0  0
 15 16  1  0  0  0
 15 22  1  0  0  0
 16 17  2  0  0  0
 16 35  1  0  0  0
 17 36  1  0  0  0
 18 19  2  0  0  0
 18 20  2  0  0  0
 18 21  1  0  0  0
 21 37  1  0  0  0
 21 38  1  0  0  0
 21 39  1  0  0  0
 22 40  1  0  0  0
 22 41  1  0  0  0
 22 42  1  0  0  0
M  END
>  <Name>
5-1d

>  <Family>
C

>  <IC50_uM>
0.003000

>  <set>
1

$$$$
5-1e
  Cerius2 12120216093D 1   1.00000                          
 Structure written by MMmdl.
 39 41  0  0  0  0  0  0  0  0999 V2000
   26.3808   22.0714   16.4153 C   0  0  0  0  0  0
   25.4932   21.4961   17.2515 C   0  0  0  0  0  0
   26.1766   20.9459   18.4744 C   0  0  0  0  0  0
   27.6492   20.9642   18.0782 C   0  0  0  0  0  0
   27.7682   22.0318   16.9967 C   0  0  0  0  0  0
   24.0360   21.3831   17.1148 C   0  0  0  0  0  0
   26.1564   22.7004   15.1065 C   0  0  0  0  0  0
   23.3266   22.2594   16.2793 C   0  0  0  0  0  0
   21.9364   22.1673   16.1586 C   0  0  0  0  0  0
   21.2446   21.2002   16.8895 C   0  0  0  0  0  0
   21.9325   20.3176   17.7241 C   0  0  0  0  0  0
   23.3232   20.4164   17.8385 C   0  0  0  0  0  0
   26.4206   24.0644   14.9191 C   0  0  0  0  0  0
   26.2287   24.6658   13.6718 C   0  0  0  0  0  0
   25.7784   23.9084   12.5932 C   0  0  0  0  0  0
   25.5237   22.5495   12.7601 C   0  0  0  0  0  0
   25.7158   21.9491   14.0077 C   0  0  0  0  0  0
   19.4788   21.0691   16.7254 S   0  0  0  0  0  0
   18.9415   22.4147   16.5478 O   0  0  0  0  0  0
   18.9839   20.2658   17.8391 O   0  0  0  0  0  0
   19.2630   20.1611   15.2176 C   0  0  0  0  0  0
   25.8670   19.9288   18.7314 H   0  0  0  0  0  0
   25.9919   21.5984   19.3353 H   0  0  0  0  0  0
   27.9350   19.9867   17.6679 H   0  0  0  0  0  0
   28.3055   21.1635   18.9313 H   0  0  0  0  0  0
   28.0333   23.0017   17.4325 H   0  0  0  0  0  0
   28.5280   21.7511   16.2604 H   0  0  0  0  0  0
   23.8514   23.0291   15.7149 H   0  0  0  0  0  0
   21.4105   22.8557   15.5006 H   0  0  0  0  0  0
   21.4036   19.5541   18.2905 H   0  0  0  0  0  0
   23.8434   19.7160   18.4901 H   0  0  0  0  0  0
   26.7677   24.6820   15.7460 H   0  0  0  0  0  0
   26.4317   25.7277   13.5444 H   0  0  0  0  0  0
   25.6294   24.3763   11.6219 H   0  0  0  0  0  0
   25.1786   21.9523   11.9181 H   0  0  0  0  0  0
   25.5255   20.8816   14.1076 H   0  0  0  0  0  0
   18.1914   20.0435   15.0433 H   0  0  0  0  0  0
   19.7319   19.1810   15.3218 H   0  0  0  0  0  0
   19.7134   20.7224   14.3969 H   0  0  0  0  0  0
  1  2  2  0  0  0
  1  5  1  0  0  0
  1  7  1  0  0  0
  2  3  1  0  0  0
  2  6  1  0  0  0
  3  4  1  0  0  0
  3 22  1  0  0  0
  3 23  1  0  0  0
  4  5  1  0  0  0
  4 24  1  0  0  0
  4 25  1  0  0  0
  5 26  1  0  0  0
  5 27  1  0  0  0
  6  8  2  0  0  0
  6 12  1  0  0  0
  7 13  2  0  0  0
  7 17  1  0  0  0
  8  9  1  0  0  0
  8 28  1  0  0  0
  9 10  2  0  0  0
  9 29  1  0  0  0
 10 11  1  0  0  0
 10 18  1  0  0  0
 11 12  2  0  0  0
 11 30  1  0  0  0
 12 31  1  0  0  0
 13 14  1  0  0  0
 13 32  1  0  0  0
 14 15  2  0  0  0
 14 33  1  0  0  0
 15 16  1  0  0  0
 15 34  1  0  0  0
 16 17  2  0  0  0
 16 35  1  0  0  0
 17 36  1  0  0  0
 18 19  2  0  0  0
 18 20  2  0  0  0
 18 21  1  0  0  0
 21 37  1  0  0  0
 21 38  1  0  0  0
 21 39  1  0  0  0
M  END
>  <Name>
5-1e

>  <Family>
C

>  <IC50_uM>
2.250000

>  <set>
0

$$$$
5-1f
  Cerius2 12120216093D 1   1.00000                          
 Structure written by MMmdl.
 42 44  0  0  0  0  0  0  0  0999 V2000
   26.3815   22.0713   16.4157 C   0  0  0  0  0  0
   25.4934   21.4961   17.2513 C   0  0  0  0  0  0
   26.1769   20.9458   18.4740 C   0  0  0  0  0  0
   27.6493   20.9631   18.0768 C   0  0  0  0  0  0
   27.7687   22.0323   16.9970 C   0  0  0  0  0  0
   24.0364   21.3831   17.1134 C   0  0  0  0  0  0
   26.1568   22.6997   15.1074 C   0  0  0  0  0  0
   23.3269   22.2595   16.2780 C   0  0  0  0  0  0
   21.9367   22.1675   16.1576 C   0  0  0  0  0  0
   21.2447   21.2003   16.8886 C   0  0  0  0  0  0
   21.9328   20.3176   17.7228 C   0  0  0  0  0  0
   23.3235   20.4161   17.8369 C   0  0  0  0  0  0
   26.4190   24.0627   14.9202 C   0  0  0  0  0  0
   26.2267   24.6653   13.6715 C   0  0  0  0  0  0
   25.7824   23.9133   12.5754 C   0  0  0  0  0  0
   25.5222   22.5489   12.7604 C   0  0  0  0  0  0
   25.7147   21.9489   14.0102 C   0  0  0  0  0  0
   19.4787   21.0700   16.7258 S   0  0  0  0  0  0
   18.9422   22.4158   16.5474 O   0  0  0  0  0  0
   18.9841   20.2678   17.8404 O   0  0  0  0  0  0
   19.2616   20.1607   15.2190 C   0  0  0  0  0  0
   25.5533   24.5673   11.2365 C   0  0  0  0  0  0
   25.7206   23.7196   10.1757 F   0  0  0  0  0  0
   26.3934   25.6187   10.9899 F   0  0  0  0  0  0
   24.2893   25.0720   11.1038 F   0  0  0  0  0  0
   25.8669   19.9289   18.7311 H   0  0  0  0  0  0
   25.9933   21.5986   19.3349 H   0  0  0  0  0  0
   27.9335   19.9860   17.6642 H   0  0  0  0  0  0
   28.3066   21.1599   18.9296 H   0  0  0  0  0  0
   28.0329   23.0016   17.4343 H   0  0  0  0  0  0
   28.5292   21.7531   16.2605 H   0  0  0  0  0  0
   23.8516   23.0301   15.7146 H   0  0  0  0  0  0
   21.4107   22.8562   15.5001 H   0  0  0  0  0  0
   21.4040   19.5541   18.2894 H   0  0  0  0  0  0
   23.8437   19.7155   18.4883 H   0  0  0  0  0  0
   26.7630   24.6809   15.7482 H   0  0  0  0  0  0
   26.4280   25.7308   13.5610 H   0  0  0  0  0  0
   25.1708   21.9385   11.9287 H   0  0  0  0  0  0
   25.5211   20.8819   14.1119 H   0  0  0  0  0  0
   18.1898   20.0400   15.0477 H   0  0  0  0  0  0
   19.7336   19.1819   15.3226 H   0  0  0  0  0  0
   19.7084   20.7226   14.3968 H   0  0  0  0  0  0
  1  2  2  0  0  0
  1  5  1  0  0  0
  1  7  1  0  0  0
  2  3  1  0  0  0
  2  6  1  0  0  0
  3  4  1  0  0  0
  3 26  1  0  0  0
  3 27  1  0  0  0
  4  5  1  0  0  0
  4 28  1  0  0  0
  4 29  1  0  0  0
  5 30  1  0  0  0
  5 31  1  0  0  0
  6  8  2  0  0  0
  6 12  1  0  0  0
  7 13  2  0  0  0
  7 17  1  0  0  0
  8  9  1  0  0  0
  8 32  1  0  0  0
  9 10  2  0  0  0
  9 33  1  0  0  0
 10 11  1  0  0  0
 10 18  1  0  0  0
 11 12  2  0  0  0
 11 34  1  0  0  0
 12 35  1  0  0  0
 13 14  1  0  0  0
 13 36  1  0  0  0
 14 15  2  0  0  0
 14 37  1  0  0  0
 15 16  1  0  0  0
 15 22  1  0  0  0
 16 17  2  0  0  0
 16 38  1  0  0  0
 17 39  1  0  0  0
 18 19  2  0  0  0
 18 20  2  0  0  0
 18 21  1  0  0  0
 21 40  1  0  0  0
 21 41  1  0  0  0
 21 42  1  0  0  0
 22 23  1  0  0  0
 22 24  1  0  0  0
 22 25  1  0  0  0
M  END
>  <Name>
5-1f

>  <Family>
C

>  <IC50_uM>
0.865000

>  <set>
2

$$$$
5-1g
  Cerius2 12120216093D 1   1.00000                          
 Structure written by MMmdl.
 39 41  0  0  0  0  0  0  0  0999 V2000
   26.3982   22.0919   16.4468 C   0  0  0  0  0  0
   25.5115   21.5100   17.2763 C   0  0  0  0  0  0
   26.2069   20.9055   18.4642 C   0  0  0  0  0  0
   27.6693   20.8840   18.0242 C   0  0  0  0  0  0
   27.8005   21.9794   16.9699 C   0  0  0  0  0  0
   24.0569   21.4046   17.1198 C   0  0  0  0  0  0
   26.1426   22.7291   15.1502 C   0  0  0  0  0  0
   23.3611   22.2810   16.2734 C   0  0  0  0  0  0
   21.9732   22.1884   16.1299 C   0  0  0  0  0  0
   21.2694   21.2202   16.8480 C   0  0  0  0  0  0
   21.9437   20.3373   17.6931 C   0  0  0  0  0  0
   23.3323   20.4365   17.8300 C   0  0  0  0  0  0
   26.3612   24.0956   14.8993 C   0  0  0  0  0  0
   26.1057   24.6381   13.6357 C   0  0  0  0  0  0
   25.6288   23.8197   12.6155 C   0  0  0  0  0  0
   25.4016   22.4658   12.8444 C   0  0  0  0  0  0
   25.6572   21.9238   14.1064 C   0  0  0  0  0  0
   19.5067   21.0894   16.6545 S   0  0  0  0  0  0
   18.9824   22.4244   16.3835 O   0  0  0  0  0  0
   18.9834   20.3588   17.8047 O   0  0  0  0  0  0
   19.3161   20.0918   15.2011 C   0  0  0  0  0  0
   25.3144   24.4875   11.0600 Cl  0  0  0  0  0  0
   26.9117   25.1801   16.1314 Cl  0  0  0  0  0  0
   25.8702   19.8937   18.7064 H   0  0  0  0  0  0
   26.0694   21.5423   19.3453 H   0  0  0  0  0  0
   27.9069   19.9096   17.5771 H   0  0  0  0  0  0
   28.3559   21.0327   18.8637 H   0  0  0  0  0  0
   28.1297   22.9180   17.4268 H   0  0  0  0  0  0
   28.5189   21.6892   16.1967 H   0  0  0  0  0  0
   23.8916   23.0560   15.7230 H   0  0  0  0  0  0
   21.4573   22.8784   15.4655 H   0  0  0  0  0  0
   21.4061   19.5730   18.2500 H   0  0  0  0  0  0
   23.8417   19.7341   18.4880 H   0  0  0  0  0  0
   26.2732   25.6960   13.4508 H   0  0  0  0  0  0
   25.0275   21.8235   12.0505 H   0  0  0  0  0  0
   25.4769   20.8616   14.2684 H   0  0  0  0  0  0
   18.2476   19.9646   15.0149 H   0  0  0  0  0  0
   19.7812   19.1195   15.3733 H   0  0  0  0  0  0
   19.7824   20.6019   14.3562 H   0  0  0  0  0  0
  1  2  2  0  0  0
  1  5  1  0  0  0
  1  7  1  0  0  0
  2  3  1  0  0  0
  2  6  1  0  0  0
  3  4  1  0  0  0
  3 24  1  0  0  0
  3 25  1  0  0  0
  4  5  1  0  0  0
  4 26  1  0  0  0
  4 27  1  0  0  0
  5 28  1  0  0  0
  5 29  1  0  0  0
  6  8  2  0  0  0
  6 12  1  0  0  0
  7 13  2  0  0  0
  7 17  1  0  0  0
  8  9  1  0  0  0
  8 30  1  0  0  0
  9 10  2  0  0  0
  9 31  1  0  0  0
 10 11  1  0  0  0
 10 18  1  0  0  0
 11 12  2  0  0  0
 11 32  1  0  0  0
 12 33  1  0  0  0
 13 14  1  0  0  0
 13 23  1  0  0  0
 14 15  2  0  0  0
 14 34  1  0  0  0
 15 16  1  0  0  0
 15 22  1  0  0  0
 16 17  2  0  0  0
 16 35  1  0  0  0
 17 36  1  0  0  0
 18 19  2  0  0  0
 18 20  2  0  0  0
 18 21  1  0  0  0
 21 37  1  0  0  0
 21 38  1  0  0  0
 21 39  1  0  0  0
M  END
>  <Name>
5-1g

>  <Family>
C

>  <IC50_uM>
0.053000

>  <set>
1

$$$$
5-1h
  Cerius2 12120216093D 1   1.00000                          
 Structure written by MMmdl.
 40 42  0  0  0  0  0  0  0  0999 V2000
   26.3815   22.0715   16.4155 C   0  0  0  0  0  0
   25.4935   21.4959   17.2508 C   0  0  0  0  0  0
   26.1756   20.9468   18.4747 C   0  0  0  0  0  0
   27.6487   20.9653   18.0798 C   0  0  0  0  0  0
   27.7684   22.0323   16.9977 C   0  0  0  0  0  0
   24.0366   21.3821   17.1126 C   0  0  0  0  0  0
   26.1566   22.7001   15.1073 C   0  0  0  0  0  0
   23.3272   22.2586   16.2772 C   0  0  0  0  0  0
   21.9370   22.1668   16.1574 C   0  0  0  0  0  0
   21.2450   21.1998   16.8887 C   0  0  0  0  0  0
   21.9332   20.3165   17.7223 C   0  0  0  0  0  0
   23.3240   20.4149   17.8359 C   0  0  0  0  0  0
   26.4205   24.0638   14.9198 C   0  0  0  0  0  0
   26.2273   24.6666   13.6712 C   0  0  0  0  0  0
   25.7749   23.9100   12.5873 C   0  0  0  0  0  0
   25.5211   22.5471   12.7601 C   0  0  0  0  0  0
   25.7148   21.9478   14.0099 C   0  0  0  0  0  0
   19.4788   21.0712   16.7272 S   0  0  0  0  0  0
   18.9437   22.4169   16.5447 O   0  0  0  0  0  0
   18.9844   20.2736   17.8452 O   0  0  0  0  0  0
   19.2592   20.1575   15.2234 C   0  0  0  0  0  0
   25.5758   24.5266   11.3072 C   0  0  0  0  0  0
   25.4142   25.0272   10.2685 N   0  0  0  0  0  0
   25.8660   19.9299   18.7321 H   0  0  0  0  0  0
   25.9900   21.5998   19.3350 H   0  0  0  0  0  0
   27.9349   19.9876   17.6700 H   0  0  0  0  0  0
   28.3044   21.1647   18.9334 H   0  0  0  0  0  0
   28.0335   23.0022   17.4331 H   0  0  0  0  0  0
   28.5287   21.7511   16.2619 H   0  0  0  0  0  0
   23.8517   23.0293   15.7138 H   0  0  0  0  0  0
   21.4105   22.8560   15.5007 H   0  0  0  0  0  0
   21.4046   19.5532   18.2892 H   0  0  0  0  0  0
   23.8443   19.7142   18.4872 H   0  0  0  0  0  0
   26.7682   24.6814   15.7466 H   0  0  0  0  0  0
   26.4330   25.7299   13.5570 H   0  0  0  0  0  0
   25.1747   21.9379   11.9267 H   0  0  0  0  0  0
   25.5240   20.8805   14.1112 H   0  0  0  0  0  0
   18.1873   20.0385   15.0525 H   0  0  0  0  0  0
   19.7291   19.1780   15.3301 H   0  0  0  0  0  0
   19.7072   20.7160   14.3994 H   0  0  0  0  0  0
  1  2  2  0  0  0
  1  5  1  0  0  0
  1  7  1  0  0  0
  2  3  1  0  0  0
  2  6  1  0  0  0
  3  4  1  0  0  0
  3 24  1  0  0  0
  3 25  1  0  0  0
  4  5  1  0  0  0
  4 26  1  0  0  0
  4 27  1  0  0  0
  5 28  1  0  0  0
  5 29  1  0  0  0
  6  8  2  0  0  0
  6 12  1  0  0  0
  7 13  2  0  0  0
  7 17  1  0  0  0
  8  9  1  0  0  0
  8 30  1  0  0  0
  9 10  2  0  0  0
  9 31  1  0  0  0
 10 11  1  0  0  0
 10 18  1  0  0  0
 11 12  2  0  0  0
 11 32  1  0  0  0
 12 33  1  0  0  0
 13 14  1  0  0  0
 13 34  1  0  0  0
 14 15  2  0  0  0
 14 35  1  0  0  0
 15 16  1  0  0  0
 15 22  1  0  0  0
 16 17  2  0  0  0
 16 36  1  0  0  0
 17 37  1  0  0  0
 18 19  2  0  0  0
 18 20  2  0  0  0
 18 21  1  0  0  0
 21 38  1  0  0  0
 21 39  1  0  0  0
 21 40  1  0  0  0
 22 23  3  0  0  0
M  END
>  <Name>
5-1h

>  <Family>
C

>  <IC50_uM>
77.900000

>  <set>
2

$$$$
5-1i
  Cerius2 12120216093D 1   1.00000                          
 Structure written by MMmdl.
 43 45  0  0  0  0  0  0  0  0999 V2000
   26.3796   22.0713   16.4146 C   0  0  0  0  0  0
   25.4916   21.4965   17.2509 C   0  0  0  0  0  0
   26.1742   20.9466   18.4743 C   0  0  0  0  0  0
   27.6464   20.9613   18.0770 C   0  0  0  0  0  0
   27.7668   22.0298   16.9965 C   0  0  0  0  0  0
   24.0347   21.3833   17.1147 C   0  0  0  0  0  0
   26.1563   22.7014   15.1058 C   0  0  0  0  0  0
   23.3248   22.2590   16.2792 C   0  0  0  0  0  0
   21.9346   22.1667   16.1601 C   0  0  0  0  0  0
   21.2434   21.1994   16.8919 C   0  0  0  0  0  0
   21.9324   20.3173   17.7262 C   0  0  0  0  0  0
   23.3230   20.4167   17.8395 C   0  0  0  0  0  0
   26.4218   24.0640   14.9185 C   0  0  0  0  0  0
   26.2341   24.6671   13.6697 C   0  0  0  0  0  0
   25.7784   23.9191   12.5776 C   0  0  0  0  0  0
   25.5334   22.5522   12.7554 C   0  0  0  0  0  0
   25.7213   21.9514   14.0053 C   0  0  0  0  0  0
   19.4778   21.0663   16.7286 S   0  0  0  0  0  0
   18.9387   22.4117   16.5554 O   0  0  0  0  0  0
   18.9845   20.2591   17.8403 O   0  0  0  0  0  0
   19.2618   20.1618   15.2188 C   0  0  0  0  0  0
   25.5909   24.5635   11.2318 C   0  0  0  0  0  0
   26.8240   24.4995   10.5206 O   0  0  0  0  0  0
   25.8624   19.9306   18.7330 H   0  0  0  0  0  0
   25.9914   21.6010   19.3343 H   0  0  0  0  0  0
   27.9290   19.9834   17.6652 H   0  0  0  0  0  0
   28.3040   21.1578   18.9296 H   0  0  0  0  0  0
   28.0326   22.9988   17.4335 H   0  0  0  0  0  0
   28.5267   21.7491   16.2603 H   0  0  0  0  0  0
   23.8494   23.0284   15.7140 H   0  0  0  0  0  0
   21.4078   22.8548   15.5026 H   0  0  0  0  0  0
   21.4042   19.5534   18.2930 H   0  0  0  0  0  0
   23.8443   19.7167   18.4909 H   0  0  0  0  0  0
   26.7698   24.6811   15.7456 H   0  0  0  0  0  0
   26.4484   25.7293   13.5558 H   0  0  0  0  0  0
   25.1982   21.9410   11.9183 H   0  0  0  0  0  0
   25.5344   20.8831   14.1027 H   0  0  0  0  0  0
   18.1901   20.0404   15.0470 H   0  0  0  0  0  0
   19.7350   19.1833   15.3191 H   0  0  0  0  0  0
   19.7078   20.7273   14.3985 H   0  0  0  0  0  0
   25.2927   25.6120   11.3397 H   0  0  0  0  0  0
   24.8171   24.0463   10.6544 H   0  0  0  0  0  0
   26.6416   24.9329    9.6603 H   0  0  0  0  0  0
  1  2  2  0  0  0
  1  5  1  0  0  0
  1  7  1  0  0  0
  2  3  1  0  0  0
  2  6  1  0  0  0
  3  4  1  0  0  0
  3 24  1  0  0  0
  3 25  1  0  0  0
  4  5  1  0  0  0
  4 26  1  0  0  0
  4 27  1  0  0  0
  5 28  1  0  0  0
  5 29  1  0  0  0
  6  8  2  0  0  0
  6 12  1  0  0  0
  7 13  2  0  0  0
  7 17  1  0  0  0
  8  9  1  0  0  0
  8 30  1  0  0  0
  9 10  2  0  0  0
  9 31  1  0  0  0
 10 11  1  0  0  0
 10 18  1  0  0  0
 11 12  2  0  0  0
 11 32  1  0  0  0
 12 33  1  0  0  0
 13 14  1  0  0  0
 13 34  1  0  0  0
 14 15  2  0  0  0
 14 35  1  0  0  0
 15 16  1  0  0  0
 15 22  1  0  0  0
 16 17  2  0  0  0
 16 36  1  0  0  0
 17 37  1  0  0  0
 18 19  2  0  0  0
 18 20  2  0  0  0
 18 21  1  0  0  0
 21 38  1  0  0  0
 21 39  1  0  0  0
 21 40  1  0  0  0
 22 23  1  0  0  0
 22 41  1  0  0  0
 22 42  1  0  0  0
 23 43  1  0  0  0
M  END
>  <Name>
5-1i

>  <Family>
C

>  <IC50_uM>
3.200000

>  <set>
1

$$$$
5-1j
  Cerius2 12120216093D 1   1.00000                          
 Structure written by MMmdl.
 46 48  0  0  0  0  0  0  0  0999 V2000
   26.3802   22.0713   16.4147 C   0  0  0  0  0  0
   25.4921   21.4964   17.2507 C   0  0  0  0  0  0
   26.1750   20.9466   18.4741 C   0  0  0  0  0  0
   27.6472   20.9620   18.0770 C   0  0  0  0  0  0
   27.7674   22.0307   16.9968 C   0  0  0  0  0  0
   24.0350   21.3832   17.1142 C   0  0  0  0  0  0
   26.1570   22.7008   15.1058 C   0  0  0  0  0  0
   23.3247   22.2591   16.2791 C   0  0  0  0  0  0
   21.9343   22.1669   16.1598 C   0  0  0  0  0  0
   21.2432   21.1995   16.8913 C   0  0  0  0  0  0
   21.9319   20.3175   17.7257 C   0  0  0  0  0  0
   23.3227   20.4166   17.8388 C   0  0  0  0  0  0
   26.4231   24.0634   14.9185 C   0  0  0  0  0  0
   26.2329   24.6667   13.6705 C   0  0  0  0  0  0
   25.7737   23.9185   12.5796 C   0  0  0  0  0  0
   25.5295   22.5517   12.7568 C   0  0  0  0  0  0
   25.7201   21.9508   14.0062 C   0  0  0  0  0  0
   19.4774   21.0667   16.7283 S   0  0  0  0  0  0
   18.9389   22.4121   16.5536 O   0  0  0  0  0  0
   18.9840   20.2608   17.8408 O   0  0  0  0  0  0
   19.2613   20.1609   15.2193 C   0  0  0  0  0  0
   25.5813   24.5664   11.2334 C   0  0  0  0  0  0
   26.8396   24.5582   10.5509 O   0  0  0  0  0  0
   26.7241   25.1693    9.2673 C   0  0  0  0  0  0
   25.8639   19.9303   18.7324 H   0  0  0  0  0  0
   25.9917   21.6005   19.3343 H   0  0  0  0  0  0
   27.9304   19.9844   17.6647 H   0  0  0  0  0  0
   28.3047   21.1584   18.9298 H   0  0  0  0  0  0
   28.0325   22.9998   17.4340 H   0  0  0  0  0  0
   28.5277   21.7506   16.2606 H   0  0  0  0  0  0
   23.8490   23.0288   15.7140 H   0  0  0  0  0  0
   21.4077   22.8553   15.5025 H   0  0  0  0  0  0
   21.4037   19.5541   18.2928 H   0  0  0  0  0  0
   23.8437   19.7165   18.4902 H   0  0  0  0  0  0
   26.7728   24.6800   15.7452 H   0  0  0  0  0  0
   26.4474   25.7287   13.5562 H   0  0  0  0  0  0
   25.1920   21.9399   11.9210 H   0  0  0  0  0  0
   25.5325   20.8827   14.1042 H   0  0  0  0  0  0
   18.1897   20.0385   15.0482 H   0  0  0  0  0  0
   19.7355   19.1829   15.3201 H   0  0  0  0  0  0
   19.7066   20.7261   14.3984 H   0  0  0  0  0  0
   25.2269   25.5967   11.3593 H   0  0  0  0  0  0
   24.8339   24.0167   10.6485 H   0  0  0  0  0  0
   27.7053   25.1419    8.7857 H   0  0  0  0  0  0
   26.4119   26.2131    9.3677 H   0  0  0  0  0  0
   26.0126   24.6184    8.6447 H   0  0  0  0  0  0
  1  2  2  0  0  0
  1  5  1  0  0  0
  1  7  1  0  0  0
  2  3  1  0  0  0
  2  6  1  0  0  0
  3  4  1  0  0  0
  3 25  1  0  0  0
  3 26  1  0  0  0
  4  5  1  0  0  0
  4 27  1  0  0  0
  4 28  1  0  0  0
  5 29  1  0  0  0
  5 30  1  0  0  0
  6  8  2  0  0  0
  6 12  1  0  0  0
  7 13  2  0  0  0
  7 17  1  0  0  0
  8  9  1  0  0  0
  8 31  1  0  0  0
  9 10  2  0  0  0
  9 32  1  0  0  0
 10 11  1  0  0  0
 10 18  1  0  0  0
 11 12  2  0  0  0
 11 33  1  0  0  0
 12 34  1  0  0  0
 13 14  1  0  0  0
 13 35  1  0  0  0
 14 15  2  0  0  0
 14 36  1  0  0  0
 15 16  1  0  0  0
 15 22  1  0  0  0
 16 17  2  0  0  0
 16 37  1  0  0  0
 17 38  1  0  0  0
 18 19  2  0  0  0
 18 20  2  0  0  0
 18 21  1  0  0  0
 21 39  1  0  0  0
 21 40  1  0  0  0
 21 41  1  0  0  0
 22 23  1  0  0  0
 22 42  1  0  0  0
 22 43  1  0  0  0
 23 24  1  0  0  0
 24 44  1  0  0  0
 24 45  1  0  0  0
 24 46  1  0  0  0
M  END
>  <Name>
5-1j

>  <Family>
C

>  <IC50_uM>
6.600000

>  <set>
2

$$$$
5-1k
  Cerius2 12120216093D 1   1.00000                          
 Structure written by MMmdl.
 43 45  0  0  0  0  0  0  0  0999 V2000
   26.3820   22.0706   16.4162 C   0  0  0  0  0  0
   25.4948   21.4958   17.2530 C   0  0  0  0  0  0
   26.1781   20.9439   18.4748 C   0  0  0  0  0  0
   27.6505   20.9615   18.0775 C   0  0  0  0  0  0
   27.7697   22.0296   16.9963 C   0  0  0  0  0  0
   24.0377   21.3848   17.1163 C   0  0  0  0  0  0
   26.1541   22.7001   15.1090 C   0  0  0  0  0  0
   23.3299   22.2613   16.2796 C   0  0  0  0  0  0
   21.9400   22.1692   16.1571 C   0  0  0  0  0  0
   21.2471   21.2019   16.8870 C   0  0  0  0  0  0
   21.9338   20.3197   17.7231 C   0  0  0  0  0  0
   23.3242   20.4184   17.8396 C   0  0  0  0  0  0
   26.4202   24.0614   14.9185 C   0  0  0  0  0  0
   26.2208   24.6632   13.6699 C   0  0  0  0  0  0
   25.7513   23.9155   12.5869 C   0  0  0  0  0  0
   25.5108   22.5514   12.7629 C   0  0  0  0  0  0
   25.7107   21.9507   14.0119 C   0  0  0  0  0  0
   19.4817   21.0700   16.7191 S   0  0  0  0  0  0
   18.9454   22.4145   16.5304 O   0  0  0  0  0  0
   18.9838   20.2748   17.8371 O   0  0  0  0  0  0
   19.2697   20.1512   15.2175 C   0  0  0  0  0  0
   25.5318   24.7268   11.0127 S   0  0  0  0  0  0
   25.9942   26.4289   11.4515 C   0  0  0  0  0  0
   25.8676   19.9268   18.7306 H   0  0  0  0  0  0
   25.9947   21.5958   19.3364 H   0  0  0  0  0  0
   27.9352   19.9839   17.6662 H   0  0  0  0  0  0
   28.3077   21.1596   18.9302 H   0  0  0  0  0  0
   28.0361   22.9988   17.4324 H   0  0  0  0  0  0
   28.5287   21.7486   16.2590 H   0  0  0  0  0  0
   23.8558   23.0309   15.7161 H   0  0  0  0  0  0
   21.4148   22.8577   15.4985 H   0  0  0  0  0  0
   21.4040   19.5563   18.2889 H   0  0  0  0  0  0
   23.8437   19.7182   18.4920 H   0  0  0  0  0  0
   26.7751   24.6793   15.7417 H   0  0  0  0  0  0
   26.4331   25.7256   13.5608 H   0  0  0  0  0  0
   25.1797   21.9286   11.9349 H   0  0  0  0  0  0
   25.5263   20.8819   14.1101 H   0  0  0  0  0  0
   18.1986   20.0288   15.0435 H   0  0  0  0  0  0
   19.7419   19.1733   15.3287 H   0  0  0  0  0  0
   19.7189   20.7083   14.3933 H   0  0  0  0  0  0
   26.0520   27.0263   10.5375 H   0  0  0  0  0  0
   26.9720   26.4478   11.9407 H   0  0  0  0  0  0
   25.2457   26.8797   12.1079 H   0  0  0  0  0  0
  1  2  2  0  0  0
  1  5  1  0  0  0
  1  7  1  0  0  0
  2  3  1  0  0  0
  2  6  1  0  0  0
  3  4  1  0  0  0
  3 24  1  0  0  0
  3 25  1  0  0  0
  4  5  1  0  0  0
  4 26  1  0  0  0
  4 27  1  0  0  0
  5 28  1  0  0  0
  5 29  1  0  0  0
  6  8  2  0  0  0
  6 12  1  0  0  0
  7 13  2  0  0  0
  7 17  1  0  0  0
  8  9  1  0  0  0
  8 30  1  0  0  0
  9 10  2  0  0  0
  9 31  1  0  0  0
 10 11  1  0  0  0
 10 18  1  0  0  0
 11 12  2  0  0  0
 11 32  1  0  0  0
 12 33  1  0  0  0
 13 14  1  0  0  0
 13 34  1  0  0  0
 14 15  2  0  0  0
 14 35  1  0  0  0
 15 16  1  0  0  0
 15 22  1  0  0  0
 16 17  2  0  0  0
 16 36  1  0  0  0
 17 37  1  0  0  0
 18 19  2  0  0  0
 18 20  2  0  0  0
 18 21  1  0  0  0
 21 38  1  0  0  0
 21 39  1  0  0  0
 21 40  1  0  0  0
 22 23  1  0  0  0
 23 41  1  0  0  0
 23 42  1  0  0  0
 23 43  1  0  0  0
M  END
>  <Name>
5-1k

>  <Family>
C

>  <IC50_uM>
0.221000

>  <set>
1

$$$$
5-1l
  Cerius2 12120216093D 1   1.00000                          
 Structure written by MMmdl.
 42 44  0  0  0  0  0  0  0  0999 V2000
   26.3963   22.0941   16.4442 C   0  0  0  0  0  0
   25.5097   21.5077   17.2716 C   0  0  0  0  0  0
   26.2065   20.9039   18.4599 C   0  0  0  0  0  0
   27.6697   20.8900   18.0233 C   0  0  0  0  0  0
   27.7971   21.9898   16.9739 C   0  0  0  0  0  0
   24.0536   21.4003   17.1176 C   0  0  0  0  0  0
   26.1430   22.7335   15.1483 C   0  0  0  0  0  0
   23.3541   22.2773   16.2743 C   0  0  0  0  0  0
   21.9657   22.1856   16.1346 C   0  0  0  0  0  0
   21.2636   21.2175   16.8540 C   0  0  0  0  0  0
   21.9400   20.3341   17.6964 C   0  0  0  0  0  0
   23.3294   20.4326   17.8291 C   0  0  0  0  0  0
   26.3579   24.1095   14.9200 C   0  0  0  0  0  0
   26.1207   24.6341   13.6374 C   0  0  0  0  0  0
   25.6567   23.8130   12.6158 C   0  0  0  0  0  0
   25.4258   22.4639   12.8347 C   0  0  0  0  0  0
   25.6705   21.9254   14.0979 C   0  0  0  0  0  0
   19.5001   21.0889   16.6651 S   0  0  0  0  0  0
   18.9781   22.4223   16.3815 O   0  0  0  0  0  0
   18.9778   20.3710   17.8236 O   0  0  0  0  0  0
   19.3048   20.0778   15.2217 C   0  0  0  0  0  0
   25.4296   24.3339   11.4026 F   0  0  0  0  0  0
   26.8556   25.0391   15.9935 C   0  0  0  0  0  0
   25.8755   19.8894   18.6994 H   0  0  0  0  0  0
   26.0640   21.5381   19.3421 H   0  0  0  0  0  0
   27.9128   19.9184   17.5730 H   0  0  0  0  0  0
   28.3539   21.0390   18.8646 H   0  0  0  0  0  0
   28.1141   22.9297   17.4367 H   0  0  0  0  0  0
   28.5220   21.7094   16.2033 H   0  0  0  0  0  0
   23.8833   23.0515   15.7208 H   0  0  0  0  0  0
   21.4487   22.8759   15.4714 H   0  0  0  0  0  0
   21.4040   19.5696   18.2546 H   0  0  0  0  0  0
   23.8389   19.7287   18.4853 H   0  0  0  0  0  0
   26.2899   25.6875   13.4263 H   0  0  0  0  0  0
   25.0626   21.8351   12.0273 H   0  0  0  0  0  0
   25.4951   20.8620   14.2584 H   0  0  0  0  0  0
   18.2356   19.9555   15.0356 H   0  0  0  0  0  0
   19.7636   19.1043   15.4040 H   0  0  0  0  0  0
   19.7752   20.5762   14.3722 H   0  0  0  0  0  0
   26.6289   26.0824   15.7475 H   0  0  0  0  0  0
   27.9401   24.9429   16.1012 H   0  0  0  0  0  0
   26.3709   24.8315   16.9527 H   0  0  0  0  0  0
  1  2  2  0  0  0
  1  5  1  0  0  0
  1  7  1  0  0  0
  2  3  1  0  0  0
  2  6  1  0  0  0
  3  4  1  0  0  0
  3 24  1  0  0  0
  3 25  1  0  0  0
  4  5  1  0  0  0
  4 26  1  0  0  0
  4 27  1  0  0  0
  5 28  1  0  0  0
  5 29  1  0  0  0
  6  8  2  0  0  0
  6 12  1  0  0  0
  7 13  2  0  0  0
  7 17  1  0  0  0
  8  9  1  0  0  0
  8 30  1  0  0  0
  9 10  2  0  0  0
  9 31  1  0  0  0
 10 11  1  0  0  0
 10 18  1  0  0  0
 11 12  2  0  0  0
 11 32  1  0  0  0
 12 33  1  0  0  0
 13 14  1  0  0  0
 13 23  1  0  0  0
 14 15  2  0  0  0
 14 34  1  0  0  0
 15 16  1  0  0  0
 15 22  1  0  0  0
 16 17  2  0  0  0
 16 35  1  0  0  0
 17 36  1  0  0  0
 18 19  2  0  0  0
 18 20  2  0  0  0
 18 21  1  0  0  0
 21 37  1  0  0  0
 21 38  1  0  0  0
 21 39  1  0  0  0
 23 40  1  0  0  0
 23 41  1  0  0  0
 23 42  1  0  0  0
M  END
>  <Name>
5-1l

>  <Family>
C

>  <IC50_uM>
0.075000

>  <set>
1

$$$$
5-7a
  Cerius2 12120216093D 1   1.00000                          
 Structure written by MMmdl.
 45 47  0  0  0  0  0  0  0  0999 V2000
   26.3811   22.0715   16.4152 C   0  0  0  0  0  0
   25.4937   21.4993   17.2539 C   0  0  0  0  0  0
   26.1813   20.9473   18.4775 C   0  0  0  0  0  0
   27.6650   20.9098   18.0564 C   0  0  0  0  0  0
   27.7723   22.0233   16.9950 C   0  0  0  0  0  0
   24.0375   21.3875   17.1168 C   0  0  0  0  0  0
   26.1534   22.6998   15.1078 C   0  0  0  0  0  0
   23.3300   22.2625   16.2786 C   0  0  0  0  0  0
   21.9403   22.1690   16.1553 C   0  0  0  0  0  0
   21.2478   21.2013   16.8852 C   0  0  0  0  0  0
   21.9349   20.3195   17.7216 C   0  0  0  0  0  0
   23.3250   20.4197   17.8389 C   0  0  0  0  0  0
   26.4183   24.0653   14.9209 C   0  0  0  0  0  0
   26.2199   24.6661   13.6746 C   0  0  0  0  0  0
   25.7648   23.9003   12.6092 C   0  0  0  0  0  0
   25.5078   22.5449   12.7652 C   0  0  0  0  0  0
   25.7064   21.9451   14.0117 C   0  0  0  0  0  0
   19.4825   21.0692   16.7175 S   0  0  0  0  0  0
   18.9459   22.4133   16.5274 O   0  0  0  0  0  0
   18.9846   20.2751   17.8364 O   0  0  0  0  0  0
   19.2709   20.1489   15.2167 C   0  0  0  0  0  0
   25.5752   24.4761   11.4147 F   0  0  0  0  0  0
   28.0123   19.5407   17.4363 C   0  0  0  0  0  0
   28.5959   21.1692   19.2431 C   0  0  0  0  0  0
   25.8245   19.9518   18.7603 H   0  0  0  0  0  0
   26.0124   21.6251   19.3233 H   0  0  0  0  0  0
   28.0211   22.9921   17.4448 H   0  0  0  0  0  0
   28.5282   21.7861   16.2382 H   0  0  0  0  0  0
   23.8561   23.0319   15.7150 H   0  0  0  0  0  0
   21.4150   22.8566   15.4961 H   0  0  0  0  0  0
   21.4055   19.5554   18.2868 H   0  0  0  0  0  0
   23.8455   19.7199   18.4908 H   0  0  0  0  0  0
   26.7695   24.6819   15.7467 H   0  0  0  0  0  0
   26.4185   25.7250   13.5360 H   0  0  0  0  0  0
   25.1588   21.9572   11.9211 H   0  0  0  0  0  0
   25.5160   20.8779   14.1145 H   0  0  0  0  0  0
   18.1997   20.0270   15.0421 H   0  0  0  0  0  0
   19.7422   19.1709   15.3292 H   0  0  0  0  0  0
   19.7207   20.7049   14.3921 H   0  0  0  0  0  0
   29.0508   19.5212   17.0872 H   0  0  0  0  0  0
   27.3709   19.3033   16.5803 H   0  0  0  0  0  0
   27.8933   18.7367   18.1714 H   0  0  0  0  0  0
   29.6444   21.1795   18.9259 H   0  0  0  0  0  0
   28.4811   20.3950   20.0096 H   0  0  0  0  0  0
   28.3820   22.1355   19.7131 H   0  0  0  0  0  0
  1  2  2  0  0  0
  1  5  1  0  0  0
  1  7  1  0  0  0
  2  3  1  0  0  0
  2  6  1  0  0  0
  3  4  1  0  0  0
  3 25  1  0  0  0
  3 26  1  0  0  0
  4  5  1  0  0  0
  4 23  1  0  0  0
  4 24  1  0  0  0
  5 27  1  0  0  0
  5 28  1  0  0  0
  6  8  2  0  0  0
  6 12  1  0  0  0
  7 13  2  0  0  0
  7 17  1  0  0  0
  8  9  1  0  0  0
  8 29  1  0  0  0
  9 10  2  0  0  0
  9 30  1  0  0  0
 10 11  1  0  0  0
 10 18  1  0  0  0
 11 12  2  0  0  0
 11 31  1  0  0  0
 12 32  1  0  0  0
 13 14  1  0  0  0
 13 33  1  0  0  0
 14 15  2  0  0  0
 14 34  1  0  0  0
 15 16  1  0  0  0
 15 22  1  0  0  0
 16 17  2  0  0  0
 16 35  1  0  0  0
 17 36  1  0  0  0
 18 19  2  0  0  0
 18 20  2  0  0  0
 18 21  1  0  0  0
 21 37  1  0  0  0
 21 38  1  0  0  0
 21 39  1  0  0  0
 23 40  1  0  0  0
 23 41  1  0  0  0
 23 42  1  0  0  0
 24 43  1  0  0  0
 24 44  1  0  0  0
 24 45  1  0  0  0
M  END
>  <Name>
5-7a

>  <Family>
C

>  <IC50_uM>
0.015000

>  <set>
1

$$$$
5-7b
  Cerius2 12120216093D 1   1.00000                          
 Structure written by MMmdl.
 45 47  0  0  0  0  0  0  0  0999 V2000
   26.3804   22.0710   16.4150 C   0  0  0  0  0  0
   25.4934   21.4992   17.2542 C   0  0  0  0  0  0
   26.1813   20.9474   18.4778 C   0  0  0  0  0  0
   27.6645   20.9083   18.0556 C   0  0  0  0  0  0
   27.7720   22.0217   16.9941 C   0  0  0  0  0  0
   24.0370   21.3880   17.1180 C   0  0  0  0  0  0
   26.1532   22.6997   15.1075 C   0  0  0  0  0  0
   23.3295   22.2632   16.2799 C   0  0  0  0  0  0
   21.9400   22.1695   16.1563 C   0  0  0  0  0  0
   21.2475   21.2016   16.8861 C   0  0  0  0  0  0
   21.9343   20.3203   17.7232 C   0  0  0  0  0  0
   23.3244   20.4206   17.8406 C   0  0  0  0  0  0
   26.4178   24.0640   14.9203 C   0  0  0  0  0  0
   26.2212   24.6667   13.6732 C   0  0  0  0  0  0
   25.7663   23.9054   12.6000 C   0  0  0  0  0  0
   25.5107   22.5470   12.7628 C   0  0  0  0  0  0
   25.7080   21.9471   14.0109 C   0  0  0  0  0  0
   19.4825   21.0671   16.7164 S   0  0  0  0  0  0
   18.9441   22.4110   16.5303 O   0  0  0  0  0  0
   18.9848   20.2685   17.8323 O   0  0  0  0  0  0
   19.2734   20.1512   15.2126 C   0  0  0  0  0  0
   25.5247   24.6457   11.0652 Cl  0  0  0  0  0  0
   28.0100   19.5388   17.4354 C   0  0  0  0  0  0
   28.5964   21.1669   19.2417 C   0  0  0  0  0  0
   25.8237   19.9526   18.7619 H   0  0  0  0  0  0
   26.0135   21.6260   19.3232 H   0  0  0  0  0  0
   28.0216   22.9903   17.4440 H   0  0  0  0  0  0
   28.5276   21.7839   16.2371 H   0  0  0  0  0  0
   23.8556   23.0324   15.7159 H   0  0  0  0  0  0
   21.4146   22.8568   15.4968 H   0  0  0  0  0  0
   21.4049   19.5564   18.2884 H   0  0  0  0  0  0
   23.8449   19.7210   18.4929 H   0  0  0  0  0  0
   26.7684   24.6806   15.7465 H   0  0  0  0  0  0
   26.4257   25.7279   13.5529 H   0  0  0  0  0  0
   25.1623   21.9440   11.9278 H   0  0  0  0  0  0
   25.5176   20.8798   14.1123 H   0  0  0  0  0  0
   18.2026   20.0263   15.0381 H   0  0  0  0  0  0
   19.7483   19.1743   15.3218 H   0  0  0  0  0  0
   19.7212   20.7113   14.3897 H   0  0  0  0  0  0
   29.0483   19.5183   17.0859 H   0  0  0  0  0  0
   27.3681   19.3020   16.5797 H   0  0  0  0  0  0
   27.8905   18.7351   18.1707 H   0  0  0  0  0  0
   29.6447   21.1766   18.9238 H   0  0  0  0  0  0
   28.4818   20.3927   20.0084 H   0  0  0  0  0  0
   28.3834   22.1333   19.7120 H   0  0  0  0  0  0
  1  2  2  0  0  0
  1  5  1  0  0  0
  1  7  1  0  0  0
  2  3  1  0  0  0
  2  6  1  0  0  0
  3  4  1  0  0  0
  3 25  1  0  0  0
  3 26  1  0  0  0
  4  5  1  0  0  0
  4 23  1  0  0  0
  4 24  1  0  0  0
  5 27  1  0  0  0
  5 28  1  0  0  0
  6  8  2  0  0  0
  6 12  1  0  0  0
  7 13  2  0  0  0
  7 17  1  0  0  0
  8  9  1  0  0  0
  8 29  1  0  0  0
  9 10  2  0  0  0
  9 30  1  0  0  0
 10 11  1  0  0  0
 10 18  1  0  0  0
 11 12  2  0  0  0
 11 31  1  0  0  0
 12 32  1  0  0  0
 13 14  1  0  0  0
 13 33  1  0  0  0
 14 15  2  0  0  0
 14 34  1  0  0  0
 15 16  1  0  0  0
 15 22  1  0  0  0
 16 17  2  0  0  0
 16 35  1  0  0  0
 17 36  1  0  0  0
 18 19  2  0  0  0
 18 20  2  0  0  0
 18 21  1  0  0  0
 21 37  1  0  0  0
 21 38  1  0  0  0
 21 39  1  0  0  0
 23 40  1  0  0  0
 23 41  1  0  0  0
 23 42  1  0  0  0
 24 43  1  0  0  0
 24 44  1  0  0  0
 24 45  1  0  0  0
M  END
>  <Name>
5-7b

>  <Family>
C

>  <IC50_uM>
0.007000

>  <set>
0

$$$$
5-7c
  Cerius2 12120216093D 1   1.00000                          
 Structure written by MMmdl.
 45 47  0  0  0  0  0  0  0  0999 V2000
   26.3830   22.0709   16.4173 C   0  0  0  0  0  0
   25.4974   21.4980   17.2567 C   0  0  0  0  0  0
   26.1853   20.9447   18.4797 C   0  0  0  0  0  0
   27.6646   20.9478   18.0783 C   0  0  0  0  0  0
   27.7764   22.0236   16.9929 C   0  0  0  0  0  0
   24.0408   21.3880   17.1190 C   0  0  0  0  0  0
   26.1489   22.6989   15.1104 C   0  0  0  0  0  0
   23.3364   22.2642   16.2794 C   0  0  0  0  0  0
   21.9471   22.1720   16.1527 C   0  0  0  0  0  0
   21.2519   21.2045   16.8805 C   0  0  0  0  0  0
   21.9360   20.3221   17.7186 C   0  0  0  0  0  0
   23.3260   20.4206   17.8394 C   0  0  0  0  0  0
   26.4125   24.0641   14.9212 C   0  0  0  0  0  0
   26.2066   24.6632   13.6753 C   0  0  0  0  0  0
   25.7448   23.8965   12.6135 C   0  0  0  0  0  0
   25.4888   22.5413   12.7724 C   0  0  0  0  0  0
   25.6949   21.9428   14.0181 C   0  0  0  0  0  0
   19.4870   21.0733   16.7061 S   0  0  0  0  0  0
   18.9534   22.4158   16.4969 O   0  0  0  0  0  0
   18.9829   20.2938   17.8324 O   0  0  0  0  0  0
   19.2805   20.1351   15.2158 C   0  0  0  0  0  0
   25.5480   24.4711   11.4195 F   0  0  0  0  0  0
   28.5594   21.2334   19.2436 C   0  0  0  0  0  0
   29.8683   21.2797   18.8982 F   0  0  0  0  0  0
   28.2740   22.4360   19.8092 F   0  0  0  0  0  0
   28.4404   20.3142   20.2312 F   0  0  0  0  0  0
   28.0861   19.6005   17.5526 C   0  0  0  0  0  0
   27.9552   18.6185   18.4783 F   0  0  0  0  0  0
   29.3795   19.5827   17.1464 F   0  0  0  0  0  0
   27.3492   19.2087   16.4819 F   0  0  0  0  0  0
   25.8398   19.9398   18.7429 H   0  0  0  0  0  0
   25.9851   21.6058   19.3317 H   0  0  0  0  0  0
   28.0359   23.0040   17.4101 H   0  0  0  0  0  0
   28.5228   21.7643   16.2336 H   0  0  0  0  0  0
   23.8639   23.0334   15.7167 H   0  0  0  0  0  0
   21.4239   22.8602   15.4923 H   0  0  0  0  0  0
   21.4043   19.5583   18.2821 H   0  0  0  0  0  0
   23.8427   19.7187   18.4922 H   0  0  0  0  0  0
   26.7675   24.6828   15.7436 H   0  0  0  0  0  0
   26.4044   25.7220   13.5342 H   0  0  0  0  0  0
   25.1347   21.9528   11.9310 H   0  0  0  0  0  0
   25.5042   20.8759   14.1225 H   0  0  0  0  0  0
   18.2100   20.0121   15.0384 H   0  0  0  0  0  0
   19.7506   19.1581   15.3420 H   0  0  0  0  0  0
   19.7345   20.6807   14.3864 H   0  0  0  0  0  0
  1  2  2  0  0  0
  1  5  1  0  0  0
  1  7  1  0  0  0
  2  3  1  0  0  0
  2  6  1  0  0  0
  3  4  1  0  0  0
  3 31  1  0  0  0
  3 32  1  0  0  0
  4  5  1  0  0  0
  4 23  1  0  0  0
  4 27  1  0  0  0
  5 33  1  0  0  0
  5 34  1  0  0  0
  6  8  2  0  0  0
  6 12  1  0  0  0
  7 13  2  0  0  0
  7 17  1  0  0  0
  8  9  1  0  0  0
  8 35  1  0  0  0
  9 10  2  0  0  0
  9 36  1  0  0  0
 10 11  1  0  0  0
 10 18  1  0  0  0
 11 12  2  0  0  0
 11 37  1  0  0  0
 12 38  1  0  0  0
 13 14  1  0  0  0
 13 39  1  0  0  0
 14 15  2  0  0  0
 14 40  1  0  0  0
 15 16  1  0  0  0
 15 22  1  0  0  0
 16 17  2  0  0  0
 16 41  1  0  0  0
 17 42  1  0  0  0
 18 19  2  0  0  0
 18 20  2  0  0  0
 18 21  1  0  0  0
 21 43  1  0  0  0
 21 44  1  0  0  0
 21 45  1  0  0  0
 23 24  1  0  0  0
 23 25  1  0  0  0
 23 26  1  0  0  0
 27 28  1  0  0  0
 27 29  1  0  0  0
 27 30  1  0  0  0
M  END
>  <Name>
5-7c

>  <Family>
C

>  <IC50_uM>
0.067000

>  <set>
1

$$$$
5-7d
  Cerius2 12120216093D 1   1.00000                          
 Structure written by MMmdl.
 51 53  0  0  0  0  0  0  0  0999 V2000
   26.3786   22.0715   16.4141 C   0  0  0  0  0  0
   25.4915   21.5028   17.2542 C   0  0  0  0  0  0
   26.1879   20.9492   18.4725 C   0  0  0  0  0  0
   27.6796   20.8661   18.0269 C   0  0  0  0  0  0
   27.7692   22.0160   16.9961 C   0  0  0  0  0  0
   24.0352   21.3915   17.1202 C   0  0  0  0  0  0
   26.1537   22.7002   15.1067 C   0  0  0  0  0  0
   23.3265   22.2651   16.2816 C   0  0  0  0  0  0
   21.9370   22.1692   16.1582 C   0  0  0  0  0  0
   21.2457   21.2008   16.8882 C   0  0  0  0  0  0
   21.9337   20.3213   17.7260 C   0  0  0  0  0  0
   23.3239   20.4236   17.8436 C   0  0  0  0  0  0
   26.4188   24.0659   14.9216 C   0  0  0  0  0  0
   26.2247   24.6671   13.6749 C   0  0  0  0  0  0
   25.7735   23.9017   12.6077 C   0  0  0  0  0  0
   25.5163   22.5460   12.7622 C   0  0  0  0  0  0
   25.7104   21.9457   14.0090 C   0  0  0  0  0  0
   19.4813   21.0632   16.7148 S   0  0  0  0  0  0
   18.9402   22.4055   16.5246 O   0  0  0  0  0  0
   18.9834   20.2662   17.8318 O   0  0  0  0  0  0
   19.2758   20.1442   15.2125 C   0  0  0  0  0  0
   25.5883   24.4779   11.4126 F   0  0  0  0  0  0
   27.4357   18.2450   18.1423 C   0  0  0  0  0  0
   27.8857   19.4660   17.3547 C   0  0  0  0  0  0
   30.0018   21.6104   18.9733 C   0  0  0  0  0  0
   28.6077   21.0586   19.2540 C   0  0  0  0  0  0
   25.8081   19.9701   18.7813 H   0  0  0  0  0  0
   26.0411   21.6460   19.3068 H   0  0  0  0  0  0
   27.9892   22.9765   17.4773 H   0  0  0  0  0  0
   28.5289   21.8267   16.2323 H   0  0  0  0  0  0
   23.8516   23.0345   15.7169 H   0  0  0  0  0  0
   21.4108   22.8549   15.4973 H   0  0  0  0  0  0
   21.4058   19.5561   18.2912 H   0  0  0  0  0  0
   23.8455   19.7245   18.4957 H   0  0  0  0  0  0
   26.7671   24.6818   15.7491 H   0  0  0  0  0  0
   26.4239   25.7259   13.5375 H   0  0  0  0  0  0
   25.1706   21.9588   11.9165 H   0  0  0  0  0  0
   25.5199   20.8786   14.1107 H   0  0  0  0  0  0
   18.2054   20.0203   15.0350 H   0  0  0  0  0  0
   19.7489   19.1670   15.3250 H   0  0  0  0  0  0
   19.7267   20.7022   14.3897 H   0  0  0  0  0  0
   27.9239   18.2395   19.1230 H   0  0  0  0  0  0
   27.7283   17.3194   17.6392 H   0  0  0  0  0  0
   26.3565   18.2365   18.3123 H   0  0  0  0  0  0
   28.9460   19.3255   17.1077 H   0  0  0  0  0  0
   27.3537   19.4511   16.3939 H   0  0  0  0  0  0
   30.5856   21.6216   19.9001 H   0  0  0  0  0  0
   29.9565   22.6415   18.6101 H   0  0  0  0  0  0
   30.5559   21.0196   18.2438 H   0  0  0  0  0  0
   28.7001   20.1076   19.7934 H   0  0  0  0  0  0
   28.1393   21.7544   19.9619 H   0  0  0  0  0  0
  1  2  2  0  0  0
  1  5  1  0  0  0
  1  7  1  0  0  0
  2  3  1  0  0  0
  2  6  1  0  0  0
  3  4  1  0  0  0
  3 27  1  0  0  0
  3 28  1  0  0  0
  4  5  1  0  0  0
  4 24  1  0  0  0
  4 26  1  0  0  0
  5 29  1  0  0  0
  5 30  1  0  0  0
  6  8  2  0  0  0
  6 12  1  0  0  0
  7 13  2  0  0  0
  7 17  1  0  0  0
  8  9  1  0  0  0
  8 31  1  0  0  0
  9 10  2  0  0  0
  9 32  1  0  0  0
 10 11  1  0  0  0
 10 18  1  0  0  0
 11 12  2  0  0  0
 11 33  1  0  0  0
 12 34  1  0  0  0
 13 14  1  0  0  0
 13 35  1  0  0  0
 14 15  2  0  0  0
 14 36  1  0  0  0
 15 16  1  0  0  0
 15 22  1  0  0  0
 16 17  2  0  0  0
 16 37  1  0  0  0
 17 38  1  0  0  0
 18 19  2  0  0  0
 18 20  2  0  0  0
 18 21  1  0  0  0
 21 39  1  0  0  0
 21 40  1  0  0  0
 21 41  1  0  0  0
 23 24  1  0  0  0
 23 42  1  0  0  0
 23 43  1  0  0  0
 23 44  1  0  0  0
 24 45  1  0  0  0
 24 46  1  0  0  0
 25 26  1  0  0  0
 25 47  1  0  0  0
 25 48  1  0  0  0
 25 49  1  0  0  0
 26 50  1  0  0  0
 26 51  1  0  0  0
M  END
>  <Name>
5-7d

>  <Family>
C

>  <IC50_uM>
65.000000

>  <set>
2

$$$$
5-7e
  Cerius2 12120216093D 1   1.00000                          
 Structure written by MMmdl.
 45 47  0  0  0  0  0  0  0  0999 V2000
   26.3815   22.0704   16.4153 C   0  0  0  0  0  0
   25.4947   21.4979   17.2541 C   0  0  0  0  0  0
   26.1825   20.9479   18.4784 C   0  0  0  0  0  0
   27.6645   20.9146   18.0565 C   0  0  0  0  0  0
   27.7735   22.0241   16.9948 C   0  0  0  0  0  0
   24.0383   21.3871   17.1176 C   0  0  0  0  0  0
   26.1524   22.6990   15.1080 C   0  0  0  0  0  0
   23.3318   22.2629   16.2794 C   0  0  0  0  0  0
   21.9422   22.1701   16.1552 C   0  0  0  0  0  0
   21.2488   21.2025   16.8843 C   0  0  0  0  0  0
   21.9347   20.3206   17.7215 C   0  0  0  0  0  0
   23.3249   20.4200   17.8398 C   0  0  0  0  0  0
   26.4173   24.0644   14.9212 C   0  0  0  0  0  0
   26.2167   24.6657   13.6755 C   0  0  0  0  0  0
   25.7591   23.9007   12.6109 C   0  0  0  0  0  0
   25.5024   22.5452   12.7666 C   0  0  0  0  0  0
   25.7031   21.9448   14.0125 C   0  0  0  0  0  0
   19.4837   21.0699   16.7139 S   0  0  0  0  0  0
   18.9476   22.4136   16.5191 O   0  0  0  0  0  0
   18.9839   20.2790   17.8341 O   0  0  0  0  0  0
   19.2744   20.1454   15.2154 C   0  0  0  0  0  0
   25.5668   24.4771   11.4171 F   0  0  0  0  0  0
   28.0000   19.5458   17.4405 C   0  0  0  0  0  0
   29.2855   19.5370   16.9837 F   0  0  0  0  0  0
   28.5814   21.1829   19.2463 C   0  0  0  0  0  0
   29.8783   21.2576   18.8316 F   0  0  0  0  0  0
   25.8265   19.9524   18.7623 H   0  0  0  0  0  0
   26.0098   21.6263   19.3231 H   0  0  0  0  0  0
   28.0209   22.9940   17.4432 H   0  0  0  0  0  0
   28.5291   21.7888   16.2372 H   0  0  0  0  0  0
   23.8584   23.0323   15.7162 H   0  0  0  0  0  0
   21.4176   22.8579   15.4957 H   0  0  0  0  0  0
   21.4045   19.5569   18.2864 H   0  0  0  0  0  0
   23.8435   19.7194   18.4925 H   0  0  0  0  0  0
   26.7699   24.6810   15.7464 H   0  0  0  0  0  0
   26.4155   25.7246   13.5370 H   0  0  0  0  0  0
   25.1516   21.9581   11.9230 H   0  0  0  0  0  0
   25.5120   20.8778   14.1145 H   0  0  0  0  0  0
   18.2037   20.0209   15.0406 H   0  0  0  0  0  0
   19.7479   19.1686   15.3306 H   0  0  0  0  0  0
   19.7236   20.7002   14.3894 H   0  0  0  0  0  0
   27.3528   19.2988   16.5928 H   0  0  0  0  0  0
   27.9093   18.7425   18.1792 H   0  0  0  0  0  0
   28.5154   20.3871   19.9953 H   0  0  0  0  0  0
   28.3427   22.1322   19.7368 H   0  0  0  0  0  0
  1  2  2  0  0  0
  1  5  1  0  0  0
  1  7  1  0  0  0
  2  3  1  0  0  0
  2  6  1  0  0  0
  3  4  1  0  0  0
  3 27  1  0  0  0
  3 28  1  0  0  0
  4  5  1  0  0  0
  4 23  1  0  0  0
  4 25  1  0  0  0
  5 29  1  0  0  0
  5 30  1  0  0  0
  6  8  2  0  0  0
  6 12  1  0  0  0
  7 13  2  0  0  0
  7 17  1  0  0  0
  8  9  1  0  0  0
  8 31  1  0  0  0
  9 10  2  0  0  0
  9 32  1  0  0  0
 10 11  1  0  0  0
 10 18  1  0  0  0
 11 12  2  0  0  0
 11 33  1  0  0  0
 12 34  1  0  0  0
 13 14  1  0  0  0
 13 35  1  0  0  0
 14 15  2  0  0  0
 14 36  1  0  0  0
 15 16  1  0  0  0
 15 22  1  0  0  0
 16 17  2  0  0  0
 16 37  1  0  0  0
 17 38  1  0  0  0
 18 19  2  0  0  0
 18 20  2  0  0  0
 18 21  1  0  0  0
 21 39  1  0  0  0
 21 40  1  0  0  0
 21 41  1  0  0  0
 23 24  1  0  0  0
 23 42  1  0  0  0
 23 43  1  0  0  0
 25 26  1  0  0  0
 25 44  1  0  0  0
 25 45  1  0  0  0
M  END
>  <Name>
5-7e

>  <Family>
C

>  <IC50_uM>
0.051000

>  <set>
1

$$$$
6-7b
  Cerius2 12120216093D 1   1.00000                          
 Structure written by MMmdl.
 39 41  0  0  0  0  0  0  0  0999 V2000
   26.3840   22.0717   16.4164 C   0  0  0  0  0  0
   25.4968   21.4968   17.2528 C   0  0  0  0  0  0
   26.1802   20.9444   18.4742 C   0  0  0  0  0  0
   27.6524   20.9612   18.0756 C   0  0  0  0  0  0
   27.7718   22.0307   16.9958 C   0  0  0  0  0  0
   24.0401   21.3863   17.1152 C   0  0  0  0  0  0
   26.1538   22.7018   15.1101 C   0  0  0  0  0  0
   23.3332   22.2630   16.2781 C   0  0  0  0  0  0
   21.9435   22.1711   16.1543 C   0  0  0  0  0  0
   21.2498   21.2039   16.8835 C   0  0  0  0  0  0
   21.9357   20.3213   17.7199 C   0  0  0  0  0  0
   23.3260   20.4197   17.8374 C   0  0  0  0  0  0
   26.4183   24.0660   14.9252 C   0  0  0  0  0  0
   26.2114   24.6541   13.6801 C   0  0  0  0  0  0
   25.7520   23.8994   12.6087 C   0  0  0  0  0  0
   25.4966   22.5443   12.7658 C   0  0  0  0  0  0
   25.7017   21.9470   14.0136 C   0  0  0  0  0  0
   19.4844   21.0726   16.7143 S   0  0  0  0  0  0
   18.9494   22.4166   16.5181 O   0  0  0  0  0  0
   18.9846   20.2840   17.8362 O   0  0  0  0  0  0
   19.2729   20.1459   15.2175 C   0  0  0  0  0  0
   25.5572   24.4767   11.4143 F   0  0  0  0  0  0
   26.4598   25.9622   13.5195 F   0  0  0  0  0  0
   25.8689   19.9276   18.7303 H   0  0  0  0  0  0
   25.9977   21.5964   19.3359 H   0  0  0  0  0  0
   27.9358   19.9840   17.6626 H   0  0  0  0  0  0
   28.3105   21.1574   18.9280 H   0  0  0  0  0  0
   28.0379   22.9996   17.4326 H   0  0  0  0  0  0
   28.5305   21.7508   16.2578 H   0  0  0  0  0  0
   23.8592   23.0337   15.7162 H   0  0  0  0  0  0
   21.4190   22.8601   15.4958 H   0  0  0  0  0  0
   21.4054   19.5579   18.2852 H   0  0  0  0  0  0
   23.8451   19.7191   18.4898 H   0  0  0  0  0  0
   26.7725   24.6883   15.7424 H   0  0  0  0  0  0
   25.1444   21.9553   11.9241 H   0  0  0  0  0  0
   25.5122   20.8793   14.1176 H   0  0  0  0  0  0
   18.2019   20.0245   15.0425 H   0  0  0  0  0  0
   19.7429   19.1676   15.3350 H   0  0  0  0  0  0
   19.7243   20.6977   14.3909 H   0  0  0  0  0  0
  1  2  2  0  0  0
  1  5  1  0  0  0
  1  7  1  0  0  0
  2  3  1  0  0  0
  2  6  1  0  0  0
  3  4  1  0  0  0
  3 24  1  0  0  0
  3 25  1  0  0  0
  4  5  1  0  0  0
  4 26  1  0  0  0
  4 27  1  0  0  0
  5 28  1  0  0  0
  5 29  1  0  0  0
  6  8  2  0  0  0
  6 12  1  0  0  0
  7 13  2  0  0  0
  7 17  1  0  0  0
  8  9  1  0  0  0
  8 30  1  0  0  0
  9 10  2  0  0  0
  9 31  1  0  0  0
 10 11  1  0  0  0
 10 18  1  0  0  0
 11 12  2  0  0  0
 11 32  1  0  0  0
 12 33  1  0  0  0
 13 14  1  0  0  0
 13 34  1  0  0  0
 14 15  2  0  0  0
 14 23  1  0  0  0
 15 16  1  0  0  0
 15 22  1  0  0  0
 16 17  2  0  0  0
 16 35  1  0  0  0
 17 36  1  0  0  0
 18 19  2  0  0  0
 18 20  2  0  0  0
 18 21  1  0  0  0
 21 37  1  0  0  0
 21 38  1  0  0  0
 21 39  1  0  0  0
M  END
>  <Name>
6-7b

>  <Family>
C

>  <IC50_uM>
0.051000

>  <set>
1

$$$$
6-7c
  Cerius2 12120216093D 1   1.00000                          
 Structure written by MMmdl.
 39 41  0  0  0  0  0  0  0  0999 V2000
   26.3840   22.0712   16.4167 C   0  0  0  0  0  0
   25.4967   21.4969   17.2535 C   0  0  0  0  0  0
   26.1803   20.9442   18.4745 C   0  0  0  0  0  0
   27.6528   20.9620   18.0770 C   0  0  0  0  0  0
   27.7719   22.0299   16.9953 C   0  0  0  0  0  0
   24.0400   21.3864   17.1153 C   0  0  0  0  0  0
   26.1534   22.7001   15.1098 C   0  0  0  0  0  0
   23.3329   22.2631   16.2781 C   0  0  0  0  0  0
   21.9432   22.1709   16.1541 C   0  0  0  0  0  0
   21.2496   21.2034   16.8831 C   0  0  0  0  0  0
   21.9354   20.3210   17.7198 C   0  0  0  0  0  0
   23.3257   20.4198   17.8376 C   0  0  0  0  0  0
   26.4178   24.0656   14.9236 C   0  0  0  0  0  0
   26.2126   24.6605   13.6768 C   0  0  0  0  0  0
   25.7524   23.8966   12.6075 C   0  0  0  0  0  0
   25.4974   22.5405   12.7694 C   0  0  0  0  0  0
   25.7015   21.9440   14.0163 C   0  0  0  0  0  0
   19.4843   21.0724   16.7146 S   0  0  0  0  0  0
   18.9497   22.4159   16.5152 O   0  0  0  0  0  0
   18.9845   20.2862   17.8382 O   0  0  0  0  0  0
   19.2725   20.1426   15.2195 C   0  0  0  0  0  0
   25.5516   24.4545   11.4035 F   0  0  0  0  0  0
   26.5320   26.3421   13.4744 Cl  0  0  0  0  0  0
   25.8697   19.9269   18.7297 H   0  0  0  0  0  0
   25.9968   21.5952   19.3368 H   0  0  0  0  0  0
   27.9375   19.9844   17.6660 H   0  0  0  0  0  0
   28.3098   21.1605   18.9297 H   0  0  0  0  0  0
   28.0391   22.9992   17.4309 H   0  0  0  0  0  0
   28.5302   21.7487   16.2575 H   0  0  0  0  0  0
   23.8585   23.0340   15.7163 H   0  0  0  0  0  0
   21.4185   22.8598   15.4957 H   0  0  0  0  0  0
   21.4053   19.5577   18.2852 H   0  0  0  0  0  0
   23.8445   19.7197   18.4905 H   0  0  0  0  0  0
   26.7713   24.6747   15.7526 H   0  0  0  0  0  0
   25.1453   21.9505   11.9282 H   0  0  0  0  0  0
   25.5109   20.8768   14.1219 H   0  0  0  0  0  0
   18.2012   20.0240   15.0436 H   0  0  0  0  0  0
   19.7399   19.1635   15.3399 H   0  0  0  0  0  0
   19.7263   20.6913   14.3922 H   0  0  0  0  0  0
  1  2  2  0  0  0
  1  5  1  0  0  0
  1  7  1  0  0  0
  2  3  1  0  0  0
  2  6  1  0  0  0
  3  4  1  0  0  0
  3 24  1  0  0  0
  3 25  1  0  0  0
  4  5  1  0  0  0
  4 26  1  0  0  0
  4 27  1  0  0  0
  5 28  1  0  0  0
  5 29  1  0  0  0
  6  8  2  0  0  0
  6 12  1  0  0  0
  7 13  2  0  0  0
  7 17  1  0  0  0
  8  9  1  0  0  0
  8 30  1  0  0  0
  9 10  2  0  0  0
  9 31  1  0  0  0
 10 11  1  0  0  0
 10 18  1  0  0  0
 11 12  2  0  0  0
 11 32  1  0  0  0
 12 33  1  0  0  0
 13 14  1  0  0  0
 13 34  1  0  0  0
 14 15  2  0  0  0
 14 23  1  0  0  0
 15 16  1  0  0  0
 15 22  1  0  0  0
 16 17  2  0  0  0
 16 35  1  0  0  0
 17 36  1  0  0  0
 18 19  2  0  0  0
 18 20  2  0  0  0
 18 21  1  0  0  0
 21 37  1  0  0  0
 21 38  1  0  0  0
 21 39  1  0  0  0
M  END
>  <Name>
6-7c

>  <Family>
C

>  <IC50_uM>
0.030000

>  <set>
0

$$$$
6-7d
  Cerius2 12120216093D 1   1.00000                          
 Structure written by MMmdl.
 42 44  0  0  0  0  0  0  0  0999 V2000
   26.3835   22.0704   16.4171 C   0  0  0  0  0  0
   25.4957   21.4975   17.2543 C   0  0  0  0  0  0
   26.1796   20.9453   18.4758 C   0  0  0  0  0  0
   27.6513   20.9584   18.0755 C   0  0  0  0  0  0
   27.7717   22.0272   16.9950 C   0  0  0  0  0  0
   24.0391   21.3860   17.1155 C   0  0  0  0  0  0
   26.1535   22.6968   15.1096 C   0  0  0  0  0  0
   23.3317   22.2623   16.2784 C   0  0  0  0  0  0
   21.9419   22.1696   16.1546 C   0  0  0  0  0  0
   21.2486   21.2022   16.8840 C   0  0  0  0  0  0
   21.9350   20.3198   17.7199 C   0  0  0  0  0  0
   23.3252   20.4188   17.8374 C   0  0  0  0  0  0
   26.4175   24.0628   14.9197 C   0  0  0  0  0  0
   26.2170   24.6733   13.6696 C   0  0  0  0  0  0
   25.7585   23.8943   12.6107 C   0  0  0  0  0  0
   25.5021   22.5374   12.7731 C   0  0  0  0  0  0
   25.7031   21.9401   14.0185 C   0  0  0  0  0  0
   19.4831   21.0716   16.7167 S   0  0  0  0  0  0
   18.9484   22.4157   16.5210 O   0  0  0  0  0  0
   18.9842   20.2828   17.8390 O   0  0  0  0  0  0
   19.2700   20.1454   15.2197 C   0  0  0  0  0  0
   25.5604   24.4497   11.4066 F   0  0  0  0  0  0
   26.4803   26.1287   13.4445 C   0  0  0  0  0  0
   25.3729   26.8195   13.0351 F   0  0  0  0  0  0
   27.4311   26.3622   12.4893 F   0  0  0  0  0  0
   26.9228   26.7925   14.5569 F   0  0  0  0  0  0
   25.8668   19.9294   18.7337 H   0  0  0  0  0  0
   25.9995   21.5990   19.3367 H   0  0  0  0  0  0
   27.9315   19.9805   17.6625 H   0  0  0  0  0  0
   28.3109   21.1533   18.9271 H   0  0  0  0  0  0
   28.0398   22.9960   17.4314 H   0  0  0  0  0  0
   28.5293   21.7458   16.2566 H   0  0  0  0  0  0
   23.8569   23.0335   15.7165 H   0  0  0  0  0  0
   21.4170   22.8582   15.4960 H   0  0  0  0  0  0
   21.4051   19.5563   18.2855 H   0  0  0  0  0  0
   23.8444   19.7184   18.4898 H   0  0  0  0  0  0
   26.7703   24.6684   15.7545 H   0  0  0  0  0  0
   25.1509   21.9474   11.9311 H   0  0  0  0  0  0
   25.5119   20.8733   14.1242 H   0  0  0  0  0  0
   18.1987   20.0258   15.0449 H   0  0  0  0  0  0
   19.7387   19.1666   15.3370 H   0  0  0  0  0  0
   19.7222   20.6964   14.3930 H   0  0  0  0  0  0
  1  2  2  0  0  0
  1  5  1  0  0  0
  1  7  1  0  0  0
  2  3  1  0  0  0
  2  6  1  0  0  0
  3  4  1  0  0  0
  3 27  1  0  0  0
  3 28  1  0  0  0
  4  5  1  0  0  0
  4 29  1  0  0  0
  4 30  1  0  0  0
  5 31  1  0  0  0
  5 32  1  0  0  0
  6  8  2  0  0  0
  6 12  1  0  0  0
  7 13  2  0  0  0
  7 17  1  0  0  0
  8  9  1  0  0  0
  8 33  1  0  0  0
  9 10  2  0  0  0
  9 34  1  0  0  0
 10 11  1  0  0  0
 10 18  1  0  0  0
 11 12  2  0  0  0
 11 35  1  0  0  0
 12 36  1  0  0  0
 13 14  1  0  0  0
 13 37  1  0  0  0
 14 15  2  0  0  0
 14 23  1  0  0  0
 15 16  1  0  0  0
 15 22  1  0  0  0
 16 17  2  0  0  0
 16 38  1  0  0  0
 17 39  1  0  0  0
 18 19  2  0  0  0
 18 20  2  0  0  0
 18 21  1  0  0  0
 21 40  1  0  0  0
 21 41  1  0  0  0
 21 42  1  0  0  0
 23 24  1  0  0  0
 23 25  1  0  0  0
 23 26  1  0  0  0
M  END
>  <Name>
6-7d

>  <Family>
C

>  <IC50_uM>
>100

>  <set>
2

$$$$
6-7e
  Cerius2 12120216093D 1   1.00000                          
 Structure written by MMmdl.
 39 41  0  0  0  0  0  0  0  0999 V2000
   26.3850   22.0706   16.4166 C   0  0  0  0  0  0
   25.4979   21.4970   17.2536 C   0  0  0  0  0  0
   26.1804   20.9444   18.4753 C   0  0  0  0  0  0
   27.6530   20.9617   18.0781 C   0  0  0  0  0  0
   27.7730   22.0285   16.9953 C   0  0  0  0  0  0
   24.0413   21.3875   17.1157 C   0  0  0  0  0  0
   26.1522   22.7000   15.1108 C   0  0  0  0  0  0
   23.3356   22.2643   16.2778 C   0  0  0  0  0  0
   21.9460   22.1720   16.1529 C   0  0  0  0  0  0
   21.2517   21.2046   16.8817 C   0  0  0  0  0  0
   21.9369   20.3222   17.7189 C   0  0  0  0  0  0
   23.3271   20.4208   17.8376 C   0  0  0  0  0  0
   26.4167   24.0651   14.9238 C   0  0  0  0  0  0
   26.2068   24.6561   13.6788 C   0  0  0  0  0  0
   25.7452   23.9063   12.6080 C   0  0  0  0  0  0
   25.4943   22.5541   12.7804 C   0  0  0  0  0  0
   25.6973   21.9460   14.0178 C   0  0  0  0  0  0
   19.4863   21.0733   16.7108 S   0  0  0  0  0  0
   18.9522   22.4161   16.5060 O   0  0  0  0  0  0
   18.9851   20.2915   17.8369 O   0  0  0  0  0  0
   19.2761   20.1383   15.2190 C   0  0  0  0  0  0
   25.5474   24.4839   11.4134 F   0  0  0  0  0  0
   25.0571   21.8173   11.7485 F   0  0  0  0  0  0
   26.4557   25.9646   13.5213 F   0  0  0  0  0  0
   25.8688   19.9274   18.7304 H   0  0  0  0  0  0
   25.9970   21.5961   19.3371 H   0  0  0  0  0  0
   27.9380   19.9838   17.6684 H   0  0  0  0  0  0
   28.3099   21.1609   18.9308 H   0  0  0  0  0  0
   28.0413   22.9981   17.4297 H   0  0  0  0  0  0
   28.5306   21.7455   16.2575 H   0  0  0  0  0  0
   23.8619   23.0358   15.7172 H   0  0  0  0  0  0
   21.4216   22.8610   15.4941 H   0  0  0  0  0  0
   21.4062   19.5589   18.2838 H   0  0  0  0  0  0
   23.8460   19.7208   18.4907 H   0  0  0  0  0  0
   26.7733   24.6873   15.7404 H   0  0  0  0  0  0
   25.5050   20.8803   14.1112 H   0  0  0  0  0  0
   18.2051   20.0183   15.0423 H   0  0  0  0  0  0
   19.7436   19.1597   15.3431 H   0  0  0  0  0  0
   19.7303   20.6842   14.3901 H   0  0  0  0  0  0
  1  2  2  0  0  0
  1  5  1  0  0  0
  1  7  1  0  0  0
  2  3  1  0  0  0
  2  6  1  0  0  0
  3  4  1  0  0  0
  3 25  1  0  0  0
  3 26  1  0  0  0
  4  5  1  0  0  0
  4 27  1  0  0  0
  4 28  1  0  0  0
  5 29  1  0  0  0
  5 30  1  0  0  0
  6  8  2  0  0  0
  6 12  1  0  0  0
  7 13  2  0  0  0
  7 17  1  0  0  0
  8  9  1  0  0  0
  8 31  1  0  0  0
  9 10  2  0  0  0
  9 32  1  0  0  0
 10 11  1  0  0  0
 10 18  1  0  0  0
 11 12  2  0  0  0
 11 33  1  0  0  0
 12 34  1  0  0  0
 13 14  1  0  0  0
 13 35  1  0  0  0
 14 15  2  0  0  0
 14 24  1  0  0  0
 15 16  1  0  0  0
 15 22  1  0  0  0
 16 17  2  0  0  0
 16 23  1  0  0  0
 17 36  1  0  0  0
 18 19  2  0  0  0
 18 20  2  0  0  0
 18 21  1  0  0  0
 21 37  1  0  0  0
 21 38  1  0  0  0
 21 39  1  0  0  0
M  END
>  <Name>
6-7e

>  <Family>
C

>  <IC50_uM>
>100

>  <set>
0

$$$$
6-7g
  Cerius2 12120216093D 1   1.00000                          
 Structure written by MMmdl.
 39 41  0  0  0  0  0  0  0  0999 V2000
   26.3838   22.0702   16.4165 C   0  0  0  0  0  0
   25.4963   21.4967   17.2536 C   0  0  0  0  0  0
   26.1798   20.9453   18.4755 C   0  0  0  0  0  0
   27.6521   20.9615   18.0773 C   0  0  0  0  0  0
   27.7718   22.0285   16.9951 C   0  0  0  0  0  0
   24.0395   21.3859   17.1157 C   0  0  0  0  0  0
   26.1536   22.6984   15.1093 C   0  0  0  0  0  0
   23.3321   22.2626   16.2786 C   0  0  0  0  0  0
   21.9423   22.1703   16.1551 C   0  0  0  0  0  0
   21.2487   21.2030   16.8845 C   0  0  0  0  0  0
   21.9350   20.3206   17.7208 C   0  0  0  0  0  0
   23.3254   20.4192   17.8379 C   0  0  0  0  0  0
   26.4174   24.0623   14.9207 C   0  0  0  0  0  0
   26.2148   24.6651   13.6731 C   0  0  0  0  0  0
   25.7532   23.9040   12.5949 C   0  0  0  0  0  0
   25.5001   22.5428   12.7695 C   0  0  0  0  0  0
   25.7032   21.9450   14.0171 C   0  0  0  0  0  0
   19.4833   21.0717   16.7149 S   0  0  0  0  0  0
   18.9477   22.4155   16.5209 O   0  0  0  0  0  0
   18.9842   20.2807   17.8355 O   0  0  0  0  0  0
   19.2716   20.1480   15.2162 C   0  0  0  0  0  0
   25.4822   24.5835   11.0286 Cl  0  0  0  0  0  0
   26.5537   26.3559   13.5306 Cl  0  0  0  0  0  0
   25.8685   19.9287   18.7322 H   0  0  0  0  0  0
   25.9971   21.5980   19.3365 H   0  0  0  0  0  0
   27.9359   19.9834   17.6667 H   0  0  0  0  0  0
   28.3098   21.1597   18.9297 H   0  0  0  0  0  0
   28.0396   22.9979   17.4301 H   0  0  0  0  0  0
   28.5299   21.7464   16.2574 H   0  0  0  0  0  0
   23.8578   23.0333   15.7165 H   0  0  0  0  0  0
   21.4174   22.8588   15.4963 H   0  0  0  0  0  0
   21.4051   19.5569   18.2859 H   0  0  0  0  0  0
   23.8444   19.7186   18.4903 H   0  0  0  0  0  0
   26.7705   24.6690   15.7521 H   0  0  0  0  0  0
   25.1474   21.9342   11.9397 H   0  0  0  0  0  0
   25.5122   20.8777   14.1211 H   0  0  0  0  0  0
   18.2004   20.0293   15.0397 H   0  0  0  0  0  0
   19.7393   19.1686   15.3322 H   0  0  0  0  0  0
   19.7252   20.7003   14.3912 H   0  0  0  0  0  0
  1  2  2  0  0  0
  1  5  1  0  0  0
  1  7  1  0  0  0
  2  3  1  0  0  0
  2  6  1  0  0  0
  3  4  1  0  0  0
  3 24  1  0  0  0
  3 25  1  0  0  0
  4  5  1  0  0  0
  4 26  1  0  0  0
  4 27  1  0  0  0
  5 28  1  0  0  0
  5 29  1  0  0  0
  6  8  2  0  0  0
  6 12  1  0  0  0
  7 13  2  0  0  0
  7 17  1  0  0  0
  8  9  1  0  0  0
  8 30  1  0  0  0
  9 10  2  0  0  0
  9 31  1  0  0  0
 10 11  1  0  0  0
 10 18  1  0  0  0
 11 12  2  0  0  0
 11 32  1  0  0  0
 12 33  1  0  0  0
 13 14  1  0  0  0
 13 34  1  0  0  0
 14 15  2  0  0  0
 14 23  1  0  0  0
 15 16  1  0  0  0
 15 22  1  0  0  0
 16 17  2  0  0  0
 16 35  1  0  0  0
 17 36  1  0  0  0
 18 19  2  0  0  0
 18 20  2  0  0  0
 18 21  1  0  0  0
 21 37  1  0  0  0
 21 38  1  0  0  0
 21 39  1  0  0  0
M  END
>  <Name>
6-7g

>  <Family>
C

>  <IC50_uM>
0.010000

>  <set>
0

$$$$
6-7i
  Cerius2 12120216093D 1   1.00000                          
 Structure written by MMmdl.
 43 45  0  0  0  0  0  0  0  0999 V2000
   26.3829   22.0710   16.4161 C   0  0  0  0  0  0
   25.4952   21.4967   17.2526 C   0  0  0  0  0  0
   26.1783   20.9453   18.4746 C   0  0  0  0  0  0
   27.6505   20.9606   18.0765 C   0  0  0  0  0  0
   27.7707   22.0291   16.9958 C   0  0  0  0  0  0
   24.0383   21.3851   17.1152 C   0  0  0  0  0  0
   26.1550   22.7005   15.1093 C   0  0  0  0  0  0
   23.3304   22.2618   16.2790 C   0  0  0  0  0  0
   21.9405   22.1691   16.1564 C   0  0  0  0  0  0
   21.2477   21.2016   16.8860 C   0  0  0  0  0  0
   21.9344   20.3194   17.7220 C   0  0  0  0  0  0
   23.3250   20.4183   17.8382 C   0  0  0  0  0  0
   26.4180   24.0614   14.9202 C   0  0  0  0  0  0
   26.2174   24.6583   13.6735 C   0  0  0  0  0  0
   25.7604   23.9168   12.5824 C   0  0  0  0  0  0
   25.5101   22.5550   12.7655 C   0  0  0  0  0  0
   25.7085   21.9519   14.0132 C   0  0  0  0  0  0
   19.4821   21.0713   16.7181 S   0  0  0  0  0  0
   18.9467   22.4155   16.5256 O   0  0  0  0  0  0
   18.9837   20.2796   17.8386 O   0  0  0  0  0  0
   19.2691   20.1489   15.2187 C   0  0  0  0  0  0
   26.4816   25.9688   13.5674 F   0  0  0  0  0  0
   25.5211   24.3666   11.3125 O   0  0  0  0  0  0
   25.7427   25.7517   11.0597 C   0  0  0  0  0  0
   25.8665   19.9290   18.7319 H   0  0  0  0  0  0
   25.9960   21.5985   19.3352 H   0  0  0  0  0  0
   27.9331   19.9828   17.6644 H   0  0  0  0  0  0
   28.3084   21.1570   18.9291 H   0  0  0  0  0  0
   28.0378   22.9981   17.4317 H   0  0  0  0  0  0
   28.5294   21.7477   16.2582 H   0  0  0  0  0  0
   23.8554   23.0329   15.7169 H   0  0  0  0  0  0
   21.4149   22.8576   15.4982 H   0  0  0  0  0  0
   21.4049   19.5563   18.2881 H   0  0  0  0  0  0
   23.8445   19.7183   18.4908 H   0  0  0  0  0  0
   26.7694   24.6842   15.7390 H   0  0  0  0  0  0
   25.1595   21.9477   11.9325 H   0  0  0  0  0  0
   25.5168   20.8843   14.1121 H   0  0  0  0  0  0
   18.1978   20.0314   15.0425 H   0  0  0  0  0  0
   19.7363   19.1691   15.3337 H   0  0  0  0  0  0
   19.7229   20.7016   14.3940 H   0  0  0  0  0  0
   25.4969   25.9404   10.0101 H   0  0  0  0  0  0
   26.7952   26.0148   11.2058 H   0  0  0  0  0  0
   25.0822   26.3743   11.6717 H   0  0  0  0  0  0
  1  2  2  0  0  0
  1  5  1  0  0  0
  1  7  1  0  0  0
  2  3  1  0  0  0
  2  6  1  0  0  0
  3  4  1  0  0  0
  3 25  1  0  0  0
  3 26  1  0  0  0
  4  5  1  0  0  0
  4 27  1  0  0  0
  4 28  1  0  0  0
  5 29  1  0  0  0
  5 30  1  0  0  0
  6  8  2  0  0  0
  6 12  1  0  0  0
  7 13  2  0  0  0
  7 17  1  0  0  0
  8  9  1  0  0  0
  8 31  1  0  0  0
  9 10  2  0  0  0
  9 32  1  0  0  0
 10 11  1  0  0  0
 10 18  1  0  0  0
 11 12  2  0  0  0
 11 33  1  0  0  0
 12 34  1  0  0  0
 13 14  1  0  0  0
 13 35  1  0  0  0
 14 15  2  0  0  0
 14 22  1  0  0  0
 15 16  1  0  0  0
 15 23  1  0  0  0
 16 17  2  0  0  0
 16 36  1  0  0  0
 17 37  1  0  0  0
 18 19  2  0  0  0
 18 20  2  0  0  0
 18 21  1  0  0  0
 21 38  1  0  0  0
 21 39  1  0  0  0
 21 40  1  0  0  0
 23 24  1  0  0  0
 24 41  1  0  0  0
 24 42  1  0  0  0
 24 43  1  0  0  0
M  END
>  <Name>
6-7i

>  <Family>
C

>  <IC50_uM>
0.120000

>  <set>
1

$$$$
6-7j
  Cerius2 12120216093D 1   1.00000                          
 Structure written by MMmdl.
 43 45  0  0  0  0  0  0  0  0999 V2000
   26.3804   22.0752   16.4186 C   0  0  0  0  0  0
   25.4953   21.4910   17.2504 C   0  0  0  0  0  0
   26.1787   20.9370   18.4706 C   0  0  0  0  0  0
   27.6524   20.9698   18.0783 C   0  0  0  0  0  0
   27.7663   22.0441   17.0024 C   0  0  0  0  0  0
   24.0398   21.3765   17.1107 C   0  0  0  0  0  0
   26.1499   22.7034   15.1121 C   0  0  0  0  0  0
   23.3345   22.2550   16.2739 C   0  0  0  0  0  0
   21.9445   22.1687   16.1548 C   0  0  0  0  0  0
   21.2494   21.2028   16.8847 C   0  0  0  0  0  0
   21.9348   20.3154   17.7173 C   0  0  0  0  0  0
   23.3256   20.4102   17.8330 C   0  0  0  0  0  0
   26.4086   24.0648   14.9218 C   0  0  0  0  0  0
   26.2182   24.6558   13.6671 C   0  0  0  0  0  0
   25.7769   23.8991   12.5703 C   0  0  0  0  0  0
   25.5259   22.5384   12.7589 C   0  0  0  0  0  0
   25.7126   21.9489   14.0167 C   0  0  0  0  0  0
   19.4827   21.0816   16.7261 S   0  0  0  0  0  0
   18.9535   22.4306   16.5501 O   0  0  0  0  0  0
   18.9859   20.2812   17.8409 O   0  0  0  0  0  0
   19.2583   20.1733   15.2200 C   0  0  0  0  0  0
   26.5490   26.3490   13.5119 Cl  0  0  0  0  0  0
   25.6229   24.5615   11.3795 O   0  0  0  0  0  0
   25.2366   23.7873   10.2462 C   0  0  0  0  0  0
   25.8748   19.9153   18.7166 H   0  0  0  0  0  0
   25.9865   21.5812   19.3358 H   0  0  0  0  0  0
   27.9468   19.9969   17.6627 H   0  0  0  0  0  0
   28.3054   21.1690   18.9338 H   0  0  0  0  0  0
   28.0228   23.0139   17.4438 H   0  0  0  0  0  0
   28.5303   21.7736   16.2665 H   0  0  0  0  0  0
   23.8625   23.0242   15.7117 H   0  0  0  0  0  0
   21.4203   22.8614   15.5001 H   0  0  0  0  0  0
   21.4027   19.5525   18.2821 H   0  0  0  0  0  0
   23.8449   19.7093   18.4847 H   0  0  0  0  0  0
   26.7501   24.6781   15.7531 H   0  0  0  0  0  0
   25.1852   21.8969   11.9507 H   0  0  0  0  0  0
   25.5218   20.8815   14.1228 H   0  0  0  0  0  0
   18.1857   20.0566   15.0510 H   0  0  0  0  0  0
   19.7275   19.1928   15.3221 H   0  0  0  0  0  0
   19.7053   20.7338   14.3970 H   0  0  0  0  0  0
   24.2429   23.3500   10.3879 H   0  0  0  0  0  0
   25.9831   23.0182   10.0221 H   0  0  0  0  0  0
   25.1844   24.4609    9.3854 H   0  0  0  0  0  0
  1  2  2  0  0  0
  1  5  1  0  0  0
  1  7  1  0  0  0
  2  3  1  0  0  0
  2  6  1  0  0  0
  3  4  1  0  0  0
  3 25  1  0  0  0
  3 26  1  0  0  0
  4  5  1  0  0  0
  4 27  1  0  0  0
  4 28  1  0  0  0
  5 29  1  0  0  0
  5 30  1  0  0  0
  6  8  2  0  0  0
  6 12  1  0  0  0
  7 13  2  0  0  0
  7 17  1  0  0  0
  8  9  1  0  0  0
  8 31  1  0  0  0
  9 10  2  0  0  0
  9 32  1  0  0  0
 10 11  1  0  0  0
 10 18  1  0  0  0
 11 12  2  0  0  0
 11 33  1  0  0  0
 12 34  1  0  0  0
 13 14  1  0  0  0
 13 35  1  0  0  0
 14 15  2  0  0  0
 14 22  1  0  0  0
 15 16  1  0  0  0
 15 23  1  0  0  0
 16 17  2  0  0  0
 16 36  1  0  0  0
 17 37  1  0  0  0
 18 19  2  0  0  0
 18 20  2  0  0  0
 18 21  1  0  0  0
 21 38  1  0  0  0
 21 39  1  0  0  0
 21 40  1  0  0  0
 23 24  1  0  0  0
 24 41  1  0  0  0
 24 42  1  0  0  0
 24 43  1  0  0  0
M  END
>  <Name>
6-7j

>  <Family>
C

>  <IC50_uM>
0.140000

>  <set>
0

$$$$
6-7k
  Cerius2 12120216093D 1   1.00000                          
 Structure written by MMmdl.
 43 45  0  0  0  0  0  0  0  0999 V2000
   26.3859   22.0695   16.4172 C   0  0  0  0  0  0
   25.4985   21.4977   17.2554 C   0  0  0  0  0  0
   26.1807   20.9438   18.4760 C   0  0  0  0  0  0
   27.6534   20.9607   18.0787 C   0  0  0  0  0  0
   27.7742   22.0266   16.9955 C   0  0  0  0  0  0
   24.0419   21.3893   17.1176 C   0  0  0  0  0  0
   26.1535   22.6969   15.1100 C   0  0  0  0  0  0
   23.3367   22.2653   16.2783 C   0  0  0  0  0  0
   21.9474   22.1718   16.1516 C   0  0  0  0  0  0
   21.2532   21.2037   16.8797 C   0  0  0  0  0  0
   21.9376   20.3225   17.7181 C   0  0  0  0  0  0
   23.3274   20.4226   17.8393 C   0  0  0  0  0  0
   26.4114   24.0611   14.9222 C   0  0  0  0  0  0
   26.2032   24.6617   13.6762 C   0  0  0  0  0  0
   25.7611   23.9004   12.5884 C   0  0  0  0  0  0
   25.4821   22.5424   12.7759 C   0  0  0  0  0  0
   25.6926   21.9437   14.0214 C   0  0  0  0  0  0
   19.4878   21.0740   16.7076 S   0  0  0  0  0  0
   18.9545   22.4166   16.4982 O   0  0  0  0  0  0
   18.9855   20.2955   17.8353 O   0  0  0  0  0  0
   19.2785   20.1359   15.2176 C   0  0  0  0  0  0
   26.4891   26.3609   13.5310 Cl  0  0  0  0  0  0
   25.5293   24.4958   11.3711 O   0  0  0  0  0  0
   26.7086   24.4388   10.5599 C   0  0  0  0  0  0
   24.8614   21.5626   11.4937 Cl  0  0  0  0  0  0
   25.8682   19.9265   18.7292 H   0  0  0  0  0  0
   25.9975   21.5943   19.3390 H   0  0  0  0  0  0
   27.9385   19.9825   17.6696 H   0  0  0  0  0  0
   28.3101   21.1604   18.9315 H   0  0  0  0  0  0
   28.0433   22.9960   17.4295 H   0  0  0  0  0  0
   28.5317   21.7427   16.2579 H   0  0  0  0  0  0
   23.8633   23.0367   15.7181 H   0  0  0  0  0  0
   21.4231   22.8602   15.4923 H   0  0  0  0  0  0
   21.4067   19.5593   18.2830 H   0  0  0  0  0  0
   23.8460   19.7241   18.4942 H   0  0  0  0  0  0
   26.7569   24.6713   15.7545 H   0  0  0  0  0  0
   25.4954   20.8798   14.1393 H   0  0  0  0  0  0
   18.2075   20.0164   15.0403 H   0  0  0  0  0  0
   19.7452   19.1574   15.3440 H   0  0  0  0  0  0
   19.7337   20.6798   14.3879 H   0  0  0  0  0  0
   27.0187   23.4051   10.3738 H   0  0  0  0  0  0
   27.5314   25.0023   11.0122 H   0  0  0  0  0  0
   26.4714   24.8997    9.5965 H   0  0  0  0  0  0
  1  2  2  0  0  0
  1  5  1  0  0  0
  1  7  1  0  0  0
  2  3  1  0  0  0
  2  6  1  0  0  0
  3  4  1  0  0  0
  3 26  1  0  0  0
  3 27  1  0  0  0
  4  5  1  0  0  0
  4 28  1  0  0  0
  4 29  1  0  0  0
  5 30  1  0  0  0
  5 31  1  0  0  0
  6  8  2  0  0  0
  6 12  1  0  0  0
  7 13  2  0  0  0
  7 17  1  0  0  0
  8  9  1  0  0  0
  8 32  1  0  0  0
  9 10  2  0  0  0
  9 33  1  0  0  0
 10 11  1  0  0  0
 10 18  1  0  0  0
 11 12  2  0  0  0
 11 34  1  0  0  0
 12 35  1  0  0  0
 13 14  1  0  0  0
 13 36  1  0  0  0
 14 15  2  0  0  0
 14 22  1  0  0  0
 15 16  1  0  0  0
 15 23  1  0  0  0
 16 17  2  0  0  0
 16 25  1  0  0  0
 17 37  1  0  0  0
 18 19  2  0  0  0
 18 20  2  0  0  0
 18 21  1  0  0  0
 21 38  1  0  0  0
 21 39  1  0  0  0
 21 40  1  0  0  0
 23 24  1  0  0  0
 24 41  1  0  0  0
 24 42  1  0  0  0
 24 43  1  0  0  0
M  END
>  <Name>
6-7k

>  <Family>
C

>  <IC50_uM>
0.017000

>  <set>
0

$$$$
6-7l
  Cerius2 12120216093D 1   1.00000                          
 Structure written by MMmdl.
 42 45  0  0  0  0  0  0  0  0999 V2000
   26.3844   22.0754   16.4169 C   0  0  0  0  0  0
   25.4977   21.4983   17.2523 C   0  0  0  0  0  0
   26.1824   20.9413   18.4710 C   0  0  0  0  0  0
   27.6543   20.9596   18.0716 C   0  0  0  0  0  0
   27.7729   22.0314   16.9940 C   0  0  0  0  0  0
   24.0408   21.3885   17.1152 C   0  0  0  0  0  0
   26.1543   22.7109   15.1125 C   0  0  0  0  0  0
   23.3339   22.2651   16.2778 C   0  0  0  0  0  0
   21.9441   22.1727   16.1535 C   0  0  0  0  0  0
   21.2502   21.2052   16.8821 C   0  0  0  0  0  0
   21.9359   20.3233   17.7194 C   0  0  0  0  0  0
   23.3262   20.4223   17.8378 C   0  0  0  0  0  0
   26.4195   24.0783   14.9373 C   0  0  0  0  0  0
   26.2048   24.6326   13.6912 C   0  0  0  0  0  0
   25.7529   23.8846   12.6309 C   0  0  0  0  0  0
   25.4928   22.5389   12.7561 C   0  0  0  0  0  0
   25.7008   21.9508   14.0094 C   0  0  0  0  0  0
   19.4852   21.0723   16.7114 S   0  0  0  0  0  0
   18.9491   22.4161   16.5173 O   0  0  0  0  0  0
   18.9852   20.2809   17.8313 O   0  0  0  0  0  0
   19.2761   20.1483   15.2127 C   0  0  0  0  0  0
   26.4026   25.9370   13.3590 O   0  0  0  0  0  0
   25.6099   24.6211   11.4974 O   0  0  0  0  0  0
   26.0209   25.9285   11.9627 C   0  0  0  0  0  0
   25.8714   19.9235   18.7234 H   0  0  0  0  0  0
   26.0005   21.5901   19.3353 H   0  0  0  0  0  0
   27.9379   19.9833   17.6565 H   0  0  0  0  0  0
   28.3128   21.1542   18.9241 H   0  0  0  0  0  0
   28.0410   22.9990   17.4328 H   0  0  0  0  0  0
   28.5302   21.7523   16.2543 H   0  0  0  0  0  0
   23.8599   23.0354   15.7155 H   0  0  0  0  0  0
   21.4198   22.8612   15.4942 H   0  0  0  0  0  0
   21.4054   19.5598   18.2845 H   0  0  0  0  0  0
   23.8449   19.7221   18.4908 H   0  0  0  0  0  0
   26.7719   24.7002   15.7544 H   0  0  0  0  0  0
   25.1421   21.9496   11.9150 H   0  0  0  0  0  0
   25.5137   20.8830   14.1194 H   0  0  0  0  0  0
   18.2054   20.0259   15.0366 H   0  0  0  0  0  0
   19.7473   19.1705   15.3285 H   0  0  0  0  0  0
   19.7276   20.7021   14.3874 H   0  0  0  0  0  0
   26.8752   26.2622   11.3631 H   0  0  0  0  0  0
   25.1899   26.6289   11.8215 H   0  0  0  0  0  0
  1  2  2  0  0  0
  1  5  1  0  0  0
  1  7  1  0  0  0
  2  3  1  0  0  0
  2  6  1  0  0  0
  3  4  1  0  0  0
  3 25  1  0  0  0
  3 26  1  0  0  0
  4  5  1  0  0  0
  4 27  1  0  0  0
  4 28  1  0  0  0
  5 29  1  0  0  0
  5 30  1  0  0  0
  6  8  2  0  0  0
  6 12  1  0  0  0
  7 13  2  0  0  0
  7 17  1  0  0  0
  8  9  1  0  0  0
  8 31  1  0  0  0
  9 10  2  0  0  0
  9 32  1  0  0  0
 10 11  1  0  0  0
 10 18  1  0  0  0
 11 12  2  0  0  0
 11 33  1  0  0  0
 12 34  1  0  0  0
 13 14  1  0  0  0
 13 35  1  0  0  0
 14 15  2  0  0  0
 14 22  1  0  0  0
 15 16  1  0  0  0
 15 23  1  0  0  0
 16 17  2  0  0  0
 16 36  1  0  0  0
 17 37  1  0  0  0
 18 19  2  0  0  0
 18 20  2  0  0  0
 18 21  1  0  0  0
 21 38  1  0  0  0
 21 39  1  0  0  0
 21 40  1  0  0  0
 22 24  1  0  0  0
 23 24  1  0  0  0
 24 41  1  0  0  0
 24 42  1  0  0  0
M  END
>  <Name>
6-7l

>  <Family>
C

>  <IC50_uM>
0.021000

>  <set>
2

$$$$
6-7m
  Cerius2 12120216093D 1   1.00000                          
 Structure written by MMmdl.
 47 49  0  0  0  0  0  0  0  0999 V2000
   26.3816   22.0708   16.4164 C   0  0  0  0  0  0
   25.4944   21.4966   17.2535 C   0  0  0  0  0  0
   26.1782   20.9428   18.4743 C   0  0  0  0  0  0
   27.6501   20.9576   18.0750 C   0  0  0  0  0  0
   27.7700   22.0268   16.9949 C   0  0  0  0  0  0
   24.0375   21.3861   17.1175 C   0  0  0  0  0  0
   26.1540   22.7010   15.1095 C   0  0  0  0  0  0
   23.3295   22.2624   16.2809 C   0  0  0  0  0  0
   21.9398   22.1694   16.1580 C   0  0  0  0  0  0
   21.2471   21.2016   16.8876 C   0  0  0  0  0  0
   21.9337   20.3202   17.7245 C   0  0  0  0  0  0
   23.3240   20.4198   17.8413 C   0  0  0  0  0  0
   26.4182   24.0609   14.9194 C   0  0  0  0  0  0
   26.2200   24.6618   13.6677 C   0  0  0  0  0  0
   25.7574   23.9211   12.5580 C   0  0  0  0  0  0
   25.5148   22.5543   12.7624 C   0  0  0  0  0  0
   25.7122   21.9535   14.0135 C   0  0  0  0  0  0
   19.4819   21.0686   16.7170 S   0  0  0  0  0  0
   18.9444   22.4123   16.5272 O   0  0  0  0  0  0
   18.9835   20.2733   17.8349 O   0  0  0  0  0  0
   19.2722   20.1492   15.2156 C   0  0  0  0  0  0
   26.6258   26.3435   13.5266 Cl  0  0  0  0  0  0
   25.5320   24.5138   11.3091 N   0  0  0  0  0  0
   26.6851   24.7975   10.4548 C   0  0  0  0  0  0
   24.3144   24.0733   10.6232 C   0  0  0  0  0  0
   25.8658   19.9264   18.7304 H   0  0  0  0  0  0
   25.9969   21.5948   19.3363 H   0  0  0  0  0  0
   27.9322   19.9800   17.6623 H   0  0  0  0  0  0
   28.3085   21.1536   18.9272 H   0  0  0  0  0  0
   28.0385   22.9950   17.4317 H   0  0  0  0  0  0
   28.5276   21.7455   16.2564 H   0  0  0  0  0  0
   23.8549   23.0327   15.7180 H   0  0  0  0  0  0
   21.4143   22.8572   15.4991 H   0  0  0  0  0  0
   21.4044   19.5565   18.2903 H   0  0  0  0  0  0
   23.8437   19.7200   18.4941 H   0  0  0  0  0  0
   26.7756   24.6687   15.7480 H   0  0  0  0  0  0
   25.1485   21.9283   11.9510 H   0  0  0  0  0  0
   25.5179   20.8865   14.1127 H   0  0  0  0  0  0
   18.2012   20.0260   15.0408 H   0  0  0  0  0  0
   19.7449   19.1717   15.3274 H   0  0  0  0  0  0
   19.7215   20.7066   14.3915 H   0  0  0  0  0  0
   26.4025   25.5075    9.6699 H   0  0  0  0  0  0
   27.0563   23.8889    9.9689 H   0  0  0  0  0  0
   27.4977   25.2559   11.0294 H   0  0  0  0  0  0
   24.1005   24.7314    9.7742 H   0  0  0  0  0  0
   23.4373   24.0927   11.2776 H   0  0  0  0  0  0
   24.4371   23.0533   10.2419 H   0  0  0  0  0  0
  1  2  2  0  0  0
  1  5  1  0  0  0
  1  7  1  0  0  0
  2  3  1  0  0  0
  2  6  1  0  0  0
  3  4  1  0  0  0
  3 26  1  0  0  0
  3 27  1  0  0  0
  4  5  1  0  0  0
  4 28  1  0  0  0
  4 29  1  0  0  0
  5 30  1  0  0  0
  5 31  1  0  0  0
  6  8  2  0  0  0
  6 12  1  0  0  0
  7 13  2  0  0  0
  7 17  1  0  0  0
  8  9  1  0  0  0
  8 32  1  0  0  0
  9 10  2  0  0  0
  9 33  1  0  0  0
 10 11  1  0  0  0
 10 18  1  0  0  0
 11 12  2  0  0  0
 11 34  1  0  0  0
 12 35  1  0  0  0
 13 14  1  0  0  0
 13 36  1  0  0  0
 14 15  2  0  0  0
 14 22  1  0  0  0
 15 16  1  0  0  0
 15 23  1  0  0  0
 16 17  2  0  0  0
 16 37  1  0  0  0
 17 38  1  0  0  0
 18 19  2  0  0  0
 18 20  2  0  0  0
 18 21  1  0  0  0
 21 39  1  0  0  0
 21 40  1  0  0  0
 21 41  1  0  0  0
 23 24  1  0  0  0
 23 25  1  0  0  0
 24 42  1  0  0  0
 24 43  1  0  0  0
 24 44  1  0  0  0
 25 45  1  0  0  0
 25 46  1  0  0  0
 25 47  1  0  0  0
M  END
>  <Name>
6-7m

>  <Family>
C

>  <IC50_uM>
0.005000

>  <set>
2

$$$$
6-7p
  Cerius2 12120216093D 1   1.00000                          
 Structure written by MMmdl.
 42 44  0  0  0  0  0  0  0  0999 V2000
   26.3824   22.0719   16.4158 C   0  0  0  0  0  0
   25.4944   21.4971   17.2516 C   0  0  0  0  0  0
   26.1765   20.9449   18.4739 C   0  0  0  0  0  0
   27.6491   20.9610   18.0774 C   0  0  0  0  0  0
   27.7699   22.0291   16.9964 C   0  0  0  0  0  0
   24.0377   21.3854   17.1141 C   0  0  0  0  0  0
   26.1557   22.7026   15.1091 C   0  0  0  0  0  0
   23.3295   22.2616   16.2777 C   0  0  0  0  0  0
   21.9394   22.1693   16.1564 C   0  0  0  0  0  0
   21.2470   21.2021   16.8869 C   0  0  0  0  0  0
   21.9344   20.3197   17.7223 C   0  0  0  0  0  0
   23.3248   20.4187   17.8377 C   0  0  0  0  0  0
   26.4192   24.0641   14.9226 C   0  0  0  0  0  0
   26.2200   24.6554   13.6751 C   0  0  0  0  0  0
   25.7668   23.9195   12.5836 C   0  0  0  0  0  0
   25.5147   22.5540   12.7606 C   0  0  0  0  0  0
   25.7114   21.9531   14.0102 C   0  0  0  0  0  0
   19.4814   21.0692   16.7217 S   0  0  0  0  0  0
   18.9437   22.4142   16.5411 O   0  0  0  0  0  0
   18.9860   20.2678   17.8365 O   0  0  0  0  0  0
   19.2672   20.1575   15.2161 C   0  0  0  0  0  0
   26.4751   25.9648   13.5370 F   0  0  0  0  0  0
   25.5721   24.6044   11.2674 C   0  0  0  0  0  0
   25.1092   23.7822   10.2757 F   0  0  0  0  0  0
   26.7233   25.1500   10.7693 F   0  0  0  0  0  0
   24.6737   25.6345   11.3239 F   0  0  0  0  0  0
   25.8648   19.9283   18.7300 H   0  0  0  0  0  0
   25.9932   21.5971   19.3353 H   0  0  0  0  0  0
   27.9331   19.9833   17.6661 H   0  0  0  0  0  0
   28.3060   21.1584   18.9304 H   0  0  0  0  0  0
   28.0375   22.9980   17.4325 H   0  0  0  0  0  0
   28.5285   21.7472   16.2593 H   0  0  0  0  0  0
   23.8546   23.0321   15.7147 H   0  0  0  0  0  0
   21.4137   22.8582   15.4988 H   0  0  0  0  0  0
   21.4051   19.5564   18.2885 H   0  0  0  0  0  0
   23.8451   19.7187   18.4898 H   0  0  0  0  0  0
   26.7690   24.6872   15.7416 H   0  0  0  0  0  0
   25.1668   21.9432   11.9282 H   0  0  0  0  0  0
   25.5214   20.8849   14.1099 H   0  0  0  0  0  0
   18.1958   20.0347   15.0439 H   0  0  0  0  0  0
   19.7407   19.1797   15.3214 H   0  0  0  0  0  0
   19.7135   20.7193   14.3933 H   0  0  0  0  0  0
  1  2  2  0  0  0
  1  5  1  0  0  0
  1  7  1  0  0  0
  2  3  1  0  0  0
  2  6  1  0  0  0
  3  4  1  0  0  0
  3 27  1  0  0  0
  3 28  1  0  0  0
  4  5  1  0  0  0
  4 29  1  0  0  0
  4 30  1  0  0  0
  5 31  1  0  0  0
  5 32  1  0  0  0
  6  8  2  0  0  0
  6 12  1  0  0  0
  7 13  2  0  0  0
  7 17  1  0  0  0
  8  9  1  0  0  0
  8 33  1  0  0  0
  9 10  2  0  0  0
  9 34  1  0  0  0
 10 11  1  0  0  0
 10 18  1  0  0  0
 11 12  2  0  0  0
 11 35  1  0  0  0
 12 36  1  0  0  0
 13 14  1  0  0  0
 13 37  1  0  0  0
 14 15  2  0  0  0
 14 22  1  0  0  0
 15 16  1  0  0  0
 15 23  1  0  0  0
 16 17  2  0  0  0
 16 38  1  0  0  0
 17 39  1  0  0  0
 18 19  2  0  0  0
 18 20  2  0  0  0
 18 21  1  0  0  0
 21 40  1  0  0  0
 21 41  1  0  0  0
 21 42  1  0  0  0
 23 24  1  0  0  0
 23 25  1  0  0  0
 23 26  1  0  0  0
M  END
>  <Name>
6-7p

>  <Family>
C

>  <IC50_uM>
0.760000

>  <set>
1

$$$$
6-8a
  Cerius2 12120216093D 1   1.00000                          
 Structure written by MMmdl.
 38 40  0  0  0  0  0  0  0  0999 V2000
   26.3818   22.0696   16.4150 C   0  0  0  0  0  0
   25.4951   21.4957   17.2530 C   0  0  0  0  0  0
   26.1793   20.9463   18.4754 C   0  0  0  0  0  0
   27.6517   20.9645   18.0781 C   0  0  0  0  0  0
   27.7699   22.0296   16.9939 C   0  0  0  0  0  0
   24.0379   21.3852   17.1177 C   0  0  0  0  0  0
   26.1532   22.6987   15.1076 C   0  0  0  0  0  0
   23.3298   22.2622   16.2820 C   0  0  0  0  0  0
   21.9398   22.1699   16.1611 C   0  0  0  0  0  0
   21.2457   21.2017   16.8901 C   0  0  0  0  0  0
   21.9336   20.3211   17.7270 C   0  0  0  0  0  0
   23.3245   20.4193   17.8422 C   0  0  0  0  0  0
   26.4181   24.0644   14.9210 C   0  0  0  0  0  0
   26.2191   24.6660   13.6752 C   0  0  0  0  0  0
   25.7633   23.9010   12.6097 C   0  0  0  0  0  0
   25.5062   22.5455   12.7651 C   0  0  0  0  0  0
   25.7052   21.9449   14.0112 C   0  0  0  0  0  0
   19.4882   21.0707   16.7096 S   0  0  0  0  0  0
   18.9325   22.3795   16.4141 O   0  0  0  0  0  0
   18.9584   20.2751   17.8029 O   0  0  0  0  0  0
   19.3443   20.1564   15.3132 N   0  0  0  0  0  0
   25.5736   24.4774   11.4155 F   0  0  0  0  0  0
   25.8695   19.9293   18.7328 H   0  0  0  0  0  0
   25.9954   21.5992   19.3360 H   0  0  0  0  0  0
   27.9376   19.9862   17.6697 H   0  0  0  0  0  0
   28.3085   21.1659   18.9303 H   0  0  0  0  0  0
   28.0371   22.9999   17.4271 H   0  0  0  0  0  0
   28.5280   21.7463   16.2565 H   0  0  0  0  0  0
   23.8548   23.0327   15.7190 H   0  0  0  0  0  0
   21.4104   22.8581   15.5058 H   0  0  0  0  0  0
   21.4034   19.5591   18.2940 H   0  0  0  0  0  0
   23.8442   19.7195   18.4949 H   0  0  0  0  0  0
   26.7698   24.6807   15.7468 H   0  0  0  0  0  0
   26.4180   25.7249   13.5373 H   0  0  0  0  0  0
   25.1565   21.9585   11.9207 H   0  0  0  0  0  0
   25.5143   20.8778   14.1130 H   0  0  0  0  0  0
   18.8673   20.6823   14.5761 H   0  0  0  0  0  0
   18.8740   19.2672   15.5012 H   0  0  0  0  0  0
  1  2  2  0  0  0
  1  5  1  0  0  0
  1  7  1  0  0  0
  2  3  1  0  0  0
  2  6  1  0  0  0
  3  4  1  0  0  0
  3 23  1  0  0  0
  3 24  1  0  0  0
  4  5  1  0  0  0
  4 25  1  0  0  0
  4 26  1  0  0  0
  5 27  1  0  0  0
  5 28  1  0  0  0
  6  8  2  0  0  0
  6 12  1  0  0  0
  7 13  2  0  0  0
  7 17  1  0  0  0
  8  9  1  0  0  0
  8 29  1  0  0  0
  9 10  2  0  0  0
  9 30  1  0  0  0
 10 11  1  0  0  0
 10 18  1  0  0  0
 11 12  2  0  0  0
 11 31  1  0  0  0
 12 32  1  0  0  0
 13 14  1  0  0  0
 13 33  1  0  0  0
 14 15  2  0  0  0
 14 34  1  0  0  0
 15 16  1  0  0  0
 15 22  1  0  0  0
 16 17  2  0  0  0
 16 35  1  0  0  0
 17 36  1  0  0  0
 18 19  2  0  0  0
 18 20  2  0  0  0
 18 21  1  0  0  0
 21 37  1  0  0  0
 21 38  1  0  0  0
M  END
>  <Name>
6-8a

>  <Family>
C

>  <IC50_uM>
0.007000

>  <set>
1

$$$$
6-8b
  Cerius2 12120216093D 1   1.00000                          
 Structure written by MMmdl.
 38 40  0  0  0  0  0  0  0  0999 V2000
   26.3837   22.0703   16.4158 C   0  0  0  0  0  0
   25.4971   21.4970   17.2539 C   0  0  0  0  0  0
   26.1809   20.9452   18.4752 C   0  0  0  0  0  0
   27.6530   20.9615   18.0766 C   0  0  0  0  0  0
   27.7723   22.0276   16.9933 C   0  0  0  0  0  0
   24.0401   21.3877   17.1178 C   0  0  0  0  0  0
   26.1522   22.7011   15.1098 C   0  0  0  0  0  0
   23.3331   22.2646   16.2809 C   0  0  0  0  0  0
   21.9434   22.1716   16.1581 C   0  0  0  0  0  0
   21.2486   21.2031   16.8863 C   0  0  0  0  0  0
   21.9357   20.3229   17.7242 C   0  0  0  0  0  0
   23.3263   20.4218   17.8414 C   0  0  0  0  0  0
   26.4169   24.0655   14.9254 C   0  0  0  0  0  0
   26.2084   24.6544   13.6808 C   0  0  0  0  0  0
   25.7475   23.9007   12.6095 C   0  0  0  0  0  0
   25.4916   22.5455   12.7663 C   0  0  0  0  0  0
   25.6983   21.9472   14.0134 C   0  0  0  0  0  0
   19.4913   21.0725   16.7043 S   0  0  0  0  0  0
   18.9362   22.3817   16.4087 O   0  0  0  0  0  0
   18.9607   20.2768   17.7971 O   0  0  0  0  0  0
   19.3485   20.1589   15.3075 N   0  0  0  0  0  0
   25.5517   24.4788   11.4158 F   0  0  0  0  0  0
   26.4568   25.9627   13.5209 F   0  0  0  0  0  0
   25.8694   19.9284   18.7317 H   0  0  0  0  0  0
   25.9985   21.5976   19.3367 H   0  0  0  0  0  0
   27.9368   19.9831   17.6671 H   0  0  0  0  0  0
   28.3109   21.1608   18.9285 H   0  0  0  0  0  0
   28.0413   22.9973   17.4269 H   0  0  0  0  0  0
   28.5291   21.7438   16.2550 H   0  0  0  0  0  0
   23.8585   23.0358   15.7192 H   0  0  0  0  0  0
   21.4143   22.8599   15.5024 H   0  0  0  0  0  0
   21.4050   19.5607   18.2906 H   0  0  0  0  0  0
   23.8457   19.7224   18.4948 H   0  0  0  0  0  0
   26.7721   24.6873   15.7424 H   0  0  0  0  0  0
   25.1378   21.9574   11.9247 H   0  0  0  0  0  0
   25.5083   20.8796   14.1169 H   0  0  0  0  0  0
   18.8730   20.6851   14.5699 H   0  0  0  0  0  0
   18.8777   19.2697   15.4945 H   0  0  0  0  0  0
  1  2  2  0  0  0
  1  5  1  0  0  0
  1  7  1  0  0  0
  2  3  1  0  0  0
  2  6  1  0  0  0
  3  4  1  0  0  0
  3 24  1  0  0  0
  3 25  1  0  0  0
  4  5  1  0  0  0
  4 26  1  0  0  0
  4 27  1  0  0  0
  5 28  1  0  0  0
  5 29  1  0  0  0
  6  8  2  0  0  0
  6 12  1  0  0  0
  7 13  2  0  0  0
  7 17  1  0  0  0
  8  9  1  0  0  0
  8 30  1  0  0  0
  9 10  2  0  0  0
  9 31  1  0  0  0
 10 11  1  0  0  0
 10 18  1  0  0  0
 11 12  2  0  0  0
 11 32  1  0  0  0
 12 33  1  0  0  0
 13 14  1  0  0  0
 13 34  1  0  0  0
 14 15  2  0  0  0
 14 23  1  0  0  0
 15 16  1  0  0  0
 15 22  1  0  0  0
 16 17  2  0  0  0
 16 35  1  0  0  0
 17 36  1  0  0  0
 18 19  2  0  0  0
 18 20  2  0  0  0
 18 21  1  0  0  0
 21 37  1  0  0  0
 21 38  1  0  0  0
M  END
>  <Name>
6-8b

>  <Family>
C

>  <IC50_uM>
0.018000

>  <set>
1

$$$$
6-8c
  Cerius2 12120216093D 1   1.00000                          
 Structure written by MMmdl.
 38 40  0  0  0  0  0  0  0  0999 V2000
   26.3833   22.0703   16.4161 C   0  0  0  0  0  0
   25.4967   21.4969   17.2542 C   0  0  0  0  0  0
   26.1814   20.9439   18.4745 C   0  0  0  0  0  0
   27.6536   20.9620   18.0761 C   0  0  0  0  0  0
   27.7722   22.0278   16.9925 C   0  0  0  0  0  0
   24.0395   21.3875   17.1185 C   0  0  0  0  0  0
   26.1515   22.6999   15.1096 C   0  0  0  0  0  0
   23.3323   22.2647   16.2820 C   0  0  0  0  0  0
   21.9424   22.1716   16.1594 C   0  0  0  0  0  0
   21.2478   21.2028   16.8873 C   0  0  0  0  0  0
   21.9348   20.3230   17.7257 C   0  0  0  0  0  0
   23.3256   20.4218   17.8425 C   0  0  0  0  0  0
   26.4156   24.0654   14.9240 C   0  0  0  0  0  0
   26.2110   24.6608   13.6771 C   0  0  0  0  0  0
   25.7513   23.8974   12.6074 C   0  0  0  0  0  0
   25.4957   22.5414   12.7688 C   0  0  0  0  0  0
   25.6996   21.9443   14.0157 C   0  0  0  0  0  0
   19.4909   21.0717   16.7035 S   0  0  0  0  0  0
   18.9355   22.3805   16.4067 O   0  0  0  0  0  0
   18.9597   20.2763   17.7962 O   0  0  0  0  0  0
   19.3495   20.1579   15.3067 N   0  0  0  0  0  0
   25.5515   24.4556   11.4034 F   0  0  0  0  0  0
   26.5316   26.3423   13.4753 Cl  0  0  0  0  0  0
   25.8710   19.9264   18.7293 H   0  0  0  0  0  0
   25.9986   21.5944   19.3372 H   0  0  0  0  0  0
   27.9391   19.9839   17.6669 H   0  0  0  0  0  0
   28.3108   21.1623   18.9283 H   0  0  0  0  0  0
   28.0419   22.9974   17.4258 H   0  0  0  0  0  0
   28.5284   21.7439   16.2537 H   0  0  0  0  0  0
   23.8574   23.0362   15.7205 H   0  0  0  0  0  0
   21.4130   22.8599   15.5040 H   0  0  0  0  0  0
   21.4043   19.5610   18.2923 H   0  0  0  0  0  0
   23.8448   19.7225   18.4960 H   0  0  0  0  0  0
   26.7692   24.6742   15.7532 H   0  0  0  0  0  0
   25.1436   21.9516   11.9273 H   0  0  0  0  0  0
   25.5098   20.8768   14.1205 H   0  0  0  0  0  0
   18.8725   20.6829   14.5691 H   0  0  0  0  0  0
   18.8810   19.2675   15.4936 H   0  0  0  0  0  0
  1  2  2  0  0  0
  1  5  1  0  0  0
  1  7  1  0  0  0
  2  3  1  0  0  0
  2  6  1  0  0  0
  3  4  1  0  0  0
  3 24  1  0  0  0
  3 25  1  0  0  0
  4  5  1  0  0  0
  4 26  1  0  0  0
  4 27  1  0  0  0
  5 28  1  0  0  0
  5 29  1  0  0  0
  6  8  2  0  0  0
  6 12  1  0  0  0
  7 13  2  0  0  0
  7 17  1  0  0  0
  8  9  1  0  0  0
  8 30  1  0  0  0
  9 10  2  0  0  0
  9 31  1  0  0  0
 10 11  1  0  0  0
 10 18  1  0  0  0
 11 12  2  0  0  0
 11 32  1  0  0  0
 12 33  1  0  0  0
 13 14  1  0  0  0
 13 34  1  0  0  0
 14 15  2  0  0  0
 14 23  1  0  0  0
 15 16  1  0  0  0
 15 22  1  0  0  0
 16 17  2  0  0  0
 16 35  1  0  0  0
 17 36  1  0  0  0
 18 19  2  0  0  0
 18 20  2  0  0  0
 18 21  1  0  0  0
 21 37  1  0  0  0
 21 38  1  0  0  0
M  END
>  <Name>
6-8c

>  <Family>
C

>  <IC50_uM>
0.010000

>  <set>
0

$$$$
6-8e
  Cerius2 12120216093D 1   1.00000                          
 Structure written by MMmdl.
 38 40  0  0  0  0  0  0  0  0999 V2000
   26.3844   22.0696   16.4162 C   0  0  0  0  0  0
   25.4981   21.4964   17.2544 C   0  0  0  0  0  0
   26.1813   20.9438   18.4754 C   0  0  0  0  0  0
   27.6538   20.9631   18.0784 C   0  0  0  0  0  0
   27.7726   22.0284   16.9942 C   0  0  0  0  0  0
   24.0414   21.3879   17.1182 C   0  0  0  0  0  0
   26.1504   22.6994   15.1105 C   0  0  0  0  0  0
   23.3357   22.2650   16.2806 C   0  0  0  0  0  0
   21.9462   22.1721   16.1568 C   0  0  0  0  0  0
   21.2509   21.2036   16.8845 C   0  0  0  0  0  0
   21.9369   20.3231   17.7231 C   0  0  0  0  0  0
   23.3274   20.4217   17.8411 C   0  0  0  0  0  0
   26.4147   24.0646   14.9238 C   0  0  0  0  0  0
   26.2043   24.6560   13.6791 C   0  0  0  0  0  0
   25.7416   23.9069   12.6083 C   0  0  0  0  0  0
   25.4904   22.5547   12.7805 C   0  0  0  0  0  0
   25.6945   21.9460   14.0174 C   0  0  0  0  0  0
   19.4933   21.0749   16.7015 S   0  0  0  0  0  0
   18.9395   22.3848   16.4063 O   0  0  0  0  0  0
   18.9620   20.2793   17.7939 O   0  0  0  0  0  0
   19.3504   20.1624   15.3041 N   0  0  0  0  0  0
   26.4536   25.9646   13.5222 F   0  0  0  0  0  0
   25.5428   24.4851   11.4141 F   0  0  0  0  0  0
   25.0515   21.8186   11.7487 F   0  0  0  0  0  0
   25.8707   19.9263   18.7296 H   0  0  0  0  0  0
   25.9971   21.5943   19.3379 H   0  0  0  0  0  0
   27.9405   19.9848   17.6703 H   0  0  0  0  0  0
   28.3102   21.1645   18.9310 H   0  0  0  0  0  0
   28.0408   22.9986   17.4270 H   0  0  0  0  0  0
   28.5299   21.7446   16.2563 H   0  0  0  0  0  0
   23.8614   23.0370   15.7205 H   0  0  0  0  0  0
   21.4172   22.8607   15.5014 H   0  0  0  0  0  0
   21.4059   19.5611   18.2891 H   0  0  0  0  0  0
   23.8467   19.7227   18.4950 H   0  0  0  0  0  0
   26.7716   24.6866   15.7405 H   0  0  0  0  0  0
   25.5022   20.8803   14.1103 H   0  0  0  0  0  0
   18.8747   20.6893   14.5669 H   0  0  0  0  0  0
   18.8791   19.2733   15.4905 H   0  0  0  0  0  0
  1  2  2  0  0  0
  1  5  1  0  0  0
  1  7  1  0  0  0
  2  3  1  0  0  0
  2  6  1  0  0  0
  3  4  1  0  0  0
  3 25  1  0  0  0
  3 26  1  0  0  0
  4  5  1  0  0  0
  4 27  1  0  0  0
  4 28  1  0  0  0
  5 29  1  0  0  0
  5 30  1  0  0  0
  6  8  2  0  0  0
  6 12  1  0  0  0
  7 13  2  0  0  0
  7 17  1  0  0  0
  8  9  1  0  0  0
  8 31  1  0  0  0
  9 10  2  0  0  0
  9 32  1  0  0  0
 10 11  1  0  0  0
 10 18  1  0  0  0
 11 12  2  0  0  0
 11 33  1  0  0  0
 12 34  1  0  0  0
 13 14  1  0  0  0
 13 35  1  0  0  0
 14 15  2  0  0  0
 14 22  1  0  0  0
 15 16  1  0  0  0
 15 23  1  0  0  0
 16 17  2  0  0  0
 16 24  1  0  0  0
 17 36  1  0  0  0
 18 19  2  0  0  0
 18 20  2  0  0  0
 18 21  1  0  0  0
 21 37  1  0  0  0
 21 38  1  0  0  0
M  END
>  <Name>
6-8e

>  <Family>
C

>  <IC50_uM>
2.900000

>  <set>
0

$$$$
6-8f
  Cerius2 12120216093D 1   1.00000                          
 Structure written by MMmdl.
 38 40  0  0  0  0  0  0  0  0999 V2000
   26.3823   22.0689   16.4150 C   0  0  0  0  0  0
   25.4954   21.4953   17.2532 C   0  0  0  0  0  0
   26.1792   20.9459   18.4758 C   0  0  0  0  0  0
   27.6519   20.9651   18.0793 C   0  0  0  0  0  0
   27.7701   22.0297   16.9946 C   0  0  0  0  0  0
   24.0382   21.3852   17.1178 C   0  0  0  0  0  0
   26.1531   22.6980   15.1077 C   0  0  0  0  0  0
   23.3302   22.2624   16.2821 C   0  0  0  0  0  0
   21.9402   22.1704   16.1611 C   0  0  0  0  0  0
   21.2459   21.2022   16.8901 C   0  0  0  0  0  0
   21.9337   20.3216   17.7271 C   0  0  0  0  0  0
   23.3245   20.4197   17.8424 C   0  0  0  0  0  0
   26.4180   24.0622   14.9202 C   0  0  0  0  0  0
   26.2180   24.6658   13.6742 C   0  0  0  0  0  0
   25.7598   23.9057   12.6017 C   0  0  0  0  0  0
   25.5042   22.5471   12.7642 C   0  0  0  0  0  0
   25.7046   21.9464   14.0114 C   0  0  0  0  0  0
   19.4885   21.0705   16.7089 S   0  0  0  0  0  0
   18.9328   22.3793   16.4129 O   0  0  0  0  0  0
   18.9583   20.2754   17.8022 O   0  0  0  0  0  0
   19.3458   20.1558   15.3127 N   0  0  0  0  0  0
   25.5139   24.6475   11.0684 Cl  0  0  0  0  0  0
   25.8699   19.9286   18.7327 H   0  0  0  0  0  0
   25.9944   21.5986   19.3365 H   0  0  0  0  0  0
   27.9391   19.9867   17.6717 H   0  0  0  0  0  0
   28.3079   21.1674   18.9320 H   0  0  0  0  0  0
   28.0366   23.0003   17.4278 H   0  0  0  0  0  0
   28.5289   21.7468   16.2580 H   0  0  0  0  0  0
   23.8554   23.0326   15.7187 H   0  0  0  0  0  0
   21.4110   22.8587   15.5056 H   0  0  0  0  0  0
   21.4033   19.5596   18.2940 H   0  0  0  0  0  0
   23.8442   19.7196   18.4950 H   0  0  0  0  0  0
   26.7707   24.6786   15.7456 H   0  0  0  0  0  0
   26.4225   25.7271   13.5543 H   0  0  0  0  0  0
   25.1529   21.9449   11.9297 H   0  0  0  0  0  0
   25.5135   20.8792   14.1126 H   0  0  0  0  0  0
   18.8671   20.6803   14.5758 H   0  0  0  0  0  0
   18.8783   19.2653   15.5011 H   0  0  0  0  0  0
  1  2  2  0  0  0
  1  5  1  0  0  0
  1  7  1  0  0  0
  2  3  1  0  0  0
  2  6  1  0  0  0
  3  4  1  0  0  0
  3 23  1  0  0  0
  3 24  1  0  0  0
  4  5  1  0  0  0
  4 25  1  0  0  0
  4 26  1  0  0  0
  5 27  1  0  0  0
  5 28  1  0  0  0
  6  8  2  0  0  0
  6 12  1  0  0  0
  7 13  2  0  0  0
  7 17  1  0  0  0
  8  9  1  0  0  0
  8 29  1  0  0  0
  9 10  2  0  0  0
  9 30  1  0  0  0
 10 11  1  0  0  0
 10 18  1  0  0  0
 11 12  2  0  0  0
 11 31  1  0  0  0
 12 32  1  0  0  0
 13 14  1  0  0  0
 13 33  1  0  0  0
 14 15  2  0  0  0
 14 34  1  0  0  0
 15 16  1  0  0  0
 15 22  1  0  0  0
 16 17  2  0  0  0
 16 35  1  0  0  0
 17 36  1  0  0  0
 18 19  2  0  0  0
 18 20  2  0  0  0
 18 21  1  0  0  0
 21 37  1  0  0  0
 21 38  1  0  0  0
M  END
>  <Name>
6-8f

>  <Family>
C

>  <IC50_uM>
0.003000

>  <set>
0

$$$$
6-8g
  Cerius2 12120216093D 1   1.00000                          
 Structure written by MMmdl.
 38 40  0  0  0  0  0  0  0  0999 V2000
   26.3836   22.0686   16.4159 C   0  0  0  0  0  0
   25.4968   21.4960   17.2543 C   0  0  0  0  0  0
   26.1807   20.9455   18.4762 C   0  0  0  0  0  0
   27.6532   20.9632   18.0787 C   0  0  0  0  0  0
   27.7722   22.0270   16.9932 C   0  0  0  0  0  0
   24.0397   21.3867   17.1183 C   0  0  0  0  0  0
   26.1519   22.6976   15.1092 C   0  0  0  0  0  0
   23.3327   22.2637   16.2817 C   0  0  0  0  0  0
   21.9430   22.1711   16.1590 C   0  0  0  0  0  0
   21.2480   21.2028   16.8872 C   0  0  0  0  0  0
   21.9348   20.3223   17.7251 C   0  0  0  0  0  0
   23.3255   20.4210   17.8420 C   0  0  0  0  0  0
   26.4158   24.0613   14.9207 C   0  0  0  0  0  0
   26.2109   24.6652   13.6739 C   0  0  0  0  0  0
   25.7462   23.9049   12.5963 C   0  0  0  0  0  0
   25.4930   22.5439   12.7707 C   0  0  0  0  0  0
   25.6990   21.9450   14.0173 C   0  0  0  0  0  0
   19.4907   21.0724   16.7041 S   0  0  0  0  0  0
   18.9358   22.3814   16.4079 O   0  0  0  0  0  0
   18.9592   20.2769   17.7967 O   0  0  0  0  0  0
   19.3487   20.1584   15.3073 N   0  0  0  0  0  0
   25.4717   24.5856   11.0313 Cl  0  0  0  0  0  0
   26.5505   26.3559   13.5318 Cl  0  0  0  0  0  0
   25.8702   19.9287   18.7330 H   0  0  0  0  0  0
   25.9971   21.5982   19.3373 H   0  0  0  0  0  0
   27.9390   19.9842   17.6718 H   0  0  0  0  0  0
   28.3098   21.1656   18.9308 H   0  0  0  0  0  0
   28.0416   22.9973   17.4250 H   0  0  0  0  0  0
   28.5288   21.7419   16.2551 H   0  0  0  0  0  0
   23.8580   23.0348   15.7199 H   0  0  0  0  0  0
   21.4142   22.8596   15.5033 H   0  0  0  0  0  0
   21.4042   19.5604   18.2914 H   0  0  0  0  0  0
   23.8447   19.7213   18.4953 H   0  0  0  0  0  0
   26.7708   24.6677   15.7518 H   0  0  0  0  0  0
   25.1372   21.9360   11.9417 H   0  0  0  0  0  0
   25.5083   20.8778   14.1208 H   0  0  0  0  0  0
   18.8708   20.6834   14.5704 H   0  0  0  0  0  0
   18.8809   19.2679   15.4947 H   0  0  0  0  0  0
  1  2  2  0  0  0
  1  5  1  0  0  0
  1  7  1  0  0  0
  2  3  1  0  0  0
  2  6  1  0  0  0
  3  4  1  0  0  0
  3 24  1  0  0  0
  3 25  1  0  0  0
  4  5  1  0  0  0
  4 26  1  0  0  0
  4 27  1  0  0  0
  5 28  1  0  0  0
  5 29  1  0  0  0
  6  8  2  0  0  0
  6 12  1  0  0  0
  7 13  2  0  0  0
  7 17  1  0  0  0
  8  9  1  0  0  0
  8 30  1  0  0  0
  9 10  2  0  0  0
  9 31  1  0  0  0
 10 11  1  0  0  0
 10 18  1  0  0  0
 11 12  2  0  0  0
 11 32  1  0  0  0
 12 33  1  0  0  0
 13 14  1  0  0  0
 13 34  1  0  0  0
 14 15  2  0  0  0
 14 23  1  0  0  0
 15 16  1  0  0  0
 15 22  1  0  0  0
 16 17  2  0  0  0
 16 35  1  0  0  0
 17 36  1  0  0  0
 18 19  2  0  0  0
 18 20  2  0  0  0
 18 21  1  0  0  0
 21 37  1  0  0  0
 21 38  1  0  0  0
M  END
>  <Name>
6-8g

>  <Family>
C

>  <IC50_uM>
0.002000

>  <set>
0

$$$$
6-8h
  Cerius2 12120216093D 1   1.00000                          
 Structure written by MMmdl.
 42 44  0  0  0  0  0  0  0  0999 V2000
   26.3807   22.0708   16.4161 C   0  0  0  0  0  0
   25.4945   21.4955   17.2535 C   0  0  0  0  0  0
   26.1795   20.9425   18.4739 C   0  0  0  0  0  0
   27.6509   20.9588   18.0733 C   0  0  0  0  0  0
   27.7691   22.0290   16.9942 C   0  0  0  0  0  0
   24.0374   21.3849   17.1191 C   0  0  0  0  0  0
   26.1528   22.7010   15.1090 C   0  0  0  0  0  0
   23.3294   22.2618   16.2830 C   0  0  0  0  0  0
   21.9395   22.1697   16.1624 C   0  0  0  0  0  0
   21.2455   21.2011   16.8911 C   0  0  0  0  0  0
   21.9331   20.3207   17.7286 C   0  0  0  0  0  0
   23.3240   20.4194   17.8440 C   0  0  0  0  0  0
   26.4157   24.0623   14.9200 C   0  0  0  0  0  0
   26.2187   24.6602   13.6703 C   0  0  0  0  0  0
   25.7646   23.9100   12.5842 C   0  0  0  0  0  0
   25.5122   22.5510   12.7587 C   0  0  0  0  0  0
   25.7097   21.9526   14.0106 C   0  0  0  0  0  0
   19.4882   21.0707   16.7090 S   0  0  0  0  0  0
   18.9332   22.3798   16.4128 O   0  0  0  0  0  0
   18.9580   20.2752   17.8022 O   0  0  0  0  0  0
   19.3448   20.1571   15.3123 N   0  0  0  0  0  0
   25.6150   24.6134   11.4212 O   0  0  0  0  0  0
   25.9322   26.0038   11.4682 C   0  0  0  0  0  0
   25.8679   19.9256   18.7296 H   0  0  0  0  0  0
   25.9982   21.5941   19.3361 H   0  0  0  0  0  0
   27.9332   19.9818   17.6591 H   0  0  0  0  0  0
   28.3102   21.1540   18.9251 H   0  0  0  0  0  0
   28.0357   22.9976   17.4315 H   0  0  0  0  0  0
   28.5272   21.7495   16.2555 H   0  0  0  0  0  0
   23.8548   23.0318   15.7195 H   0  0  0  0  0  0
   21.4098   22.8577   15.5072 H   0  0  0  0  0  0
   21.4031   19.5585   18.2951 H   0  0  0  0  0  0
   23.8439   19.7202   18.4972 H   0  0  0  0  0  0
   26.7653   24.6821   15.7437 H   0  0  0  0  0  0
   26.4231   25.7231   13.5514 H   0  0  0  0  0  0
   25.1644   21.9196   11.9458 H   0  0  0  0  0  0
   25.5205   20.8846   14.1108 H   0  0  0  0  0  0
   18.8660   20.6820   14.5759 H   0  0  0  0  0  0
   18.8762   19.2668   15.5003 H   0  0  0  0  0  0
   25.7653   26.4164   10.4687 H   0  0  0  0  0  0
   26.9860   26.1583   11.7223 H   0  0  0  0  0  0
   25.2729   26.5344   12.1631 H   0  0  0  0  0  0
  1  2  2  0  0  0
  1  5  1  0  0  0
  1  7  1  0  0  0
  2  3  1  0  0  0
  2  6  1  0  0  0
  3  4  1  0  0  0
  3 24  1  0  0  0
  3 25  1  0  0  0
  4  5  1  0  0  0
  4 26  1  0  0  0
  4 27  1  0  0  0
  5 28  1  0  0  0
  5 29  1  0  0  0
  6  8  2  0  0  0
  6 12  1  0  0  0
  7 13  2  0  0  0
  7 17  1  0  0  0
  8  9  1  0  0  0
  8 30  1  0  0  0
  9 10  2  0  0  0
  9 31  1  0  0  0
 10 11  1  0  0  0
 10 18  1  0  0  0
 11 12  2  0  0  0
 11 32  1  0  0  0
 12 33  1  0  0  0
 13 14  1  0  0  0
 13 34  1  0  0  0
 14 15  2  0  0  0
 14 35  1  0  0  0
 15 16  1  0  0  0
 15 22  1  0  0  0
 16 17  2  0  0  0
 16 36  1  0  0  0
 17 37  1  0  0  0
 18 19  2  0  0  0
 18 20  2  0  0  0
 18 21  1  0  0  0
 21 38  1  0  0  0
 21 39  1  0  0  0
 22 23  1  0  0  0
 23 40  1  0  0  0
 23 41  1  0  0  0
 23 42  1  0  0  0
M  END
>  <Name>
6-8h

>  <Family>
C

>  <IC50_uM>
0.002000

>  <set>
1

$$$$
6-8i
  Cerius2 12120216093D 1   1.00000                          
 Structure written by MMmdl.
 42 44  0  0  0  0  0  0  0  0999 V2000
   26.3826   22.0708   16.4161 C   0  0  0  0  0  0
   25.4950   21.4965   17.2525 C   0  0  0  0  0  0
   26.1773   20.9417   18.4734 C   0  0  0  0  0  0
   27.6498   20.9583   18.0762 C   0  0  0  0  0  0
   27.7703   22.0273   16.9958 C   0  0  0  0  0  0
   24.0381   21.3881   17.1159 C   0  0  0  0  0  0
   26.1544   22.7028   15.1104 C   0  0  0  0  0  0
   23.3321   22.2652   16.2781 C   0  0  0  0  0  0
   21.9417   22.1754   16.1553 C   0  0  0  0  0  0
   21.2464   21.2090   16.8840 C   0  0  0  0  0  0
   21.9330   20.3272   17.7222 C   0  0  0  0  0  0
   23.3234   20.4234   17.8400 C   0  0  0  0  0  0
   26.4177   24.0629   14.9243 C   0  0  0  0  0  0
   26.2144   24.6505   13.6767 C   0  0  0  0  0  0
   25.7569   23.9115   12.5820 C   0  0  0  0  0  0
   25.5057   22.5522   12.7581 C   0  0  0  0  0  0
   25.7078   21.9551   14.0110 C   0  0  0  0  0  0
   19.4887   21.0624   16.7173 S   0  0  0  0  0  0
   18.9291   22.3716   16.4314 O   0  0  0  0  0  0
   18.9644   20.2594   17.8080 O   0  0  0  0  0  0
   19.3428   20.1437   15.3240 N   0  0  0  0  0  0
   25.5998   24.6102   11.4153 O   0  0  0  0  0  0
   25.9146   26.0009   11.4523 C   0  0  0  0  0  0
   26.4686   25.9616   13.5369 F   0  0  0  0  0  0
   25.8651   19.9246   18.7271 H   0  0  0  0  0  0
   25.9944   21.5921   19.3361 H   0  0  0  0  0  0
   27.9337   19.9810   17.6641 H   0  0  0  0  0  0
   28.3070   21.1552   18.9290 H   0  0  0  0  0  0
   28.0379   22.9959   17.4326 H   0  0  0  0  0  0
   28.5288   21.7460   16.2582 H   0  0  0  0  0  0
   23.8593   23.0343   15.7151 H   0  0  0  0  0  0
   21.4177   22.8651   15.4977 H   0  0  0  0  0  0
   21.3974   19.5678   18.2881 H   0  0  0  0  0  0
   23.8416   19.7236   18.4940 H   0  0  0  0  0  0
   26.7692   24.6875   15.7409 H   0  0  0  0  0  0
   25.1557   21.9193   11.9472 H   0  0  0  0  0  0
   25.5180   20.8868   14.1116 H   0  0  0  0  0  0
   18.8526   20.6616   14.5901 H   0  0  0  0  0  0
   18.8855   19.2492   15.5189 H   0  0  0  0  0  0
   25.7431   26.4074   10.4509 H   0  0  0  0  0  0
   26.9690   26.1595   11.7010 H   0  0  0  0  0  0
   25.2568   26.5345   12.1464 H   0  0  0  0  0  0
  1  2  2  0  0  0
  1  5  1  0  0  0
  1  7  1  0  0  0
  2  3  1  0  0  0
  2  6  1  0  0  0
  3  4  1  0  0  0
  3 25  1  0  0  0
  3 26  1  0  0  0
  4  5  1  0  0  0
  4 27  1  0  0  0
  4 28  1  0  0  0
  5 29  1  0  0  0
  5 30  1  0  0  0
  6  8  2  0  0  0
  6 12  1  0  0  0
  7 13  2  0  0  0
  7 17  1  0  0  0
  8  9  1  0  0  0
  8 31  1  0  0  0
  9 10  2  0  0  0
  9 32  1  0  0  0
 10 11  1  0  0  0
 10 18  1  0  0  0
 11 12  2  0  0  0
 11 33  1  0  0  0
 12 34  1  0  0  0
 13 14  1  0  0  0
 13 35  1  0  0  0
 14 15  2  0  0  0
 14 24  1  0  0  0
 15 16  1  0  0  0
 15 22  1  0  0  0
 16 17  2  0  0  0
 16 36  1  0  0  0
 17 37  1  0  0  0
 18 19  2  0  0  0
 18 20  2  0  0  0
 18 21  1  0  0  0
 21 38  1  0  0  0
 21 39  1  0  0  0
 22 23  1  0  0  0
 23 40  1  0  0  0
 23 41  1  0  0  0
 23 42  1  0  0  0
M  END
>  <Name>
6-8i

>  <Family>
C

>  <IC50_uM>
0.016000

>  <set>
1

$$$$
6-8j
  Cerius2 12120216093D 1   1.00000                          
 Structure written by MMmdl.
 42 44  0  0  0  0  0  0  0  0999 V2000
   26.3832   22.0693   16.4162 C   0  0  0  0  0  0
   25.4952   21.4968   17.2536 C   0  0  0  0  0  0
   26.1774   20.9431   18.4750 C   0  0  0  0  0  0
   27.6496   20.9568   18.0769 C   0  0  0  0  0  0
   27.7713   22.0239   16.9949 C   0  0  0  0  0  0
   24.0382   21.3886   17.1170 C   0  0  0  0  0  0
   26.1541   22.7002   15.1099 C   0  0  0  0  0  0
   23.3321   22.2654   16.2790 C   0  0  0  0  0  0
   21.9419   22.1750   16.1560 C   0  0  0  0  0  0
   21.2464   21.2085   16.8850 C   0  0  0  0  0  0
   21.9332   20.3271   17.7231 C   0  0  0  0  0  0
   23.3236   20.4239   17.8410 C   0  0  0  0  0  0
   26.4177   24.0609   14.9218 C   0  0  0  0  0  0
   26.2141   24.6591   13.6725 C   0  0  0  0  0  0
   25.7510   23.9108   12.5788 C   0  0  0  0  0  0
   25.5016   22.5494   12.7628 C   0  0  0  0  0  0
   25.7058   21.9522   14.0142 C   0  0  0  0  0  0
   19.4890   21.0623   16.7143 S   0  0  0  0  0  0
   18.9288   22.3705   16.4247 O   0  0  0  0  0  0
   18.9629   20.2615   17.8057 O   0  0  0  0  0  0
   19.3467   20.1425   15.3215 N   0  0  0  0  0  0
   25.5807   24.5811   11.3947 O   0  0  0  0  0  0
   25.0863   23.8337   10.2857 C   0  0  0  0  0  0
   26.5511   26.3515   13.5214 Cl  0  0  0  0  0  0
   25.8638   19.9270   18.7309 H   0  0  0  0  0  0
   25.9960   21.5954   19.3366 H   0  0  0  0  0  0
   27.9316   19.9783   17.6662 H   0  0  0  0  0  0
   28.3076   21.1537   18.9292 H   0  0  0  0  0  0
   28.0415   22.9924   17.4303 H   0  0  0  0  0  0
   28.5284   21.7400   16.2569 H   0  0  0  0  0  0
   23.8590   23.0346   15.7160 H   0  0  0  0  0  0
   21.4173   22.8644   15.4983 H   0  0  0  0  0  0
   21.3985   19.5671   18.2889 H   0  0  0  0  0  0
   23.8420   19.7243   18.4950 H   0  0  0  0  0  0
   26.7708   24.6700   15.7512 H   0  0  0  0  0  0
   25.1502   21.9123   11.9557 H   0  0  0  0  0  0
   25.5160   20.8842   14.1157 H   0  0  0  0  0  0
   18.8592   20.6601   14.5856 H   0  0  0  0  0  0
   18.8883   19.2485   15.5155 H   0  0  0  0  0  0
   24.9983   24.5183    9.4366 H   0  0  0  0  0  0
   24.0895   23.4315   10.4944 H   0  0  0  0  0  0
   25.7858   23.0403   10.0029 H   0  0  0  0  0  0
  1  2  2  0  0  0
  1  5  1  0  0  0
  1  7  1  0  0  0
  2  3  1  0  0  0
  2  6  1  0  0  0
  3  4  1  0  0  0
  3 25  1  0  0  0
  3 26  1  0  0  0
  4  5  1  0  0  0
  4 27  1  0  0  0
  4 28  1  0  0  0
  5 29  1  0  0  0
  5 30  1  0  0  0
  6  8  2  0  0  0
  6 12  1  0  0  0
  7 13  2  0  0  0
  7 17  1  0  0  0
  8  9  1  0  0  0
  8 31  1  0  0  0
  9 10  2  0  0  0
  9 32  1  0  0  0
 10 11  1  0  0  0
 10 18  1  0  0  0
 11 12  2  0  0  0
 11 33  1  0  0  0
 12 34  1  0  0  0
 13 14  1  0  0  0
 13 35  1  0  0  0
 14 15  2  0  0  0
 14 24  1  0  0  0
 15 16  1  0  0  0
 15 22  1  0  0  0
 16 17  2  0  0  0
 16 36  1  0  0  0
 17 37  1  0  0  0
 18 19  2  0  0  0
 18 20  2  0  0  0
 18 21  1  0  0  0
 21 38  1  0  0  0
 21 39  1  0  0  0
 22 23  1  0  0  0
 23 40  1  0  0  0
 23 41  1  0  0  0
 23 42  1  0  0  0
M  END
>  <Name>
6-8j

>  <Family>
C

>  <IC50_uM>
0.009000

>  <set>
0

$$$$
6-8k
  Cerius2 12120216093D 1   1.00000                          
 Structure written by MMmdl.
 42 44  0  0  0  0  0  0  0  0999 V2000
   26.3856   22.0693   16.4176 C   0  0  0  0  0  0
   25.4994   21.4969   17.2567 C   0  0  0  0  0  0
   26.1840   20.9425   18.4762 C   0  0  0  0  0  0
   27.6557   20.9586   18.0756 C   0  0  0  0  0  0
   27.7748   22.0254   16.9927 C   0  0  0  0  0  0
   24.0424   21.3893   17.1195 C   0  0  0  0  0  0
   26.1480   22.6983   15.1120 C   0  0  0  0  0  0
   23.3375   22.2661   16.2806 C   0  0  0  0  0  0
   21.9480   22.1729   16.1543 C   0  0  0  0  0  0
   21.2518   21.2044   16.8812 C   0  0  0  0  0  0
   21.9369   20.3241   17.7206 C   0  0  0  0  0  0
   23.3273   20.4229   17.8410 C   0  0  0  0  0  0
   26.4175   24.0595   14.9195 C   0  0  0  0  0  0
   26.1995   24.6603   13.6754 C   0  0  0  0  0  0
   25.6960   23.9115   12.6058 C   0  0  0  0  0  0
   25.4700   22.5420   12.7800 C   0  0  0  0  0  0
   25.6903   21.9429   14.0236 C   0  0  0  0  0  0
   19.4944   21.0757   16.6980 S   0  0  0  0  0  0
   18.9407   22.3856   16.4030 O   0  0  0  0  0  0
   18.9625   20.2796   17.7897 O   0  0  0  0  0  0
   19.3520   20.1637   15.3003 N   0  0  0  0  0  0
   25.5060   24.4969   11.3764 O   0  0  0  0  0  0
   26.7201   24.4550   10.6170 C   0  0  0  0  0  0
   26.5819   26.3376   13.5003 Cl  0  0  0  0  0  0
   24.9348   21.5420   11.4754 Cl  0  0  0  0  0  0
   25.8721   19.9255   18.7306 H   0  0  0  0  0  0
   26.0032   21.5932   19.3394 H   0  0  0  0  0  0
   27.9387   19.9801   17.6654 H   0  0  0  0  0  0
   28.3147   21.1571   18.9269 H   0  0  0  0  0  0
   28.0451   22.9944   17.4267 H   0  0  0  0  0  0
   28.5302   21.7416   16.2528 H   0  0  0  0  0  0
   23.8639   23.0380   15.7210 H   0  0  0  0  0  0
   21.4204   22.8615   15.4978 H   0  0  0  0  0  0
   21.4050   19.5624   18.2864 H   0  0  0  0  0  0
   23.8453   19.7235   18.4956 H   0  0  0  0  0  0
   26.7920   24.6646   15.7430 H   0  0  0  0  0  0
   25.5149   20.8747   14.1374 H   0  0  0  0  0  0
   18.8789   20.6912   14.5622 H   0  0  0  0  0  0
   18.8798   19.2749   15.4856 H   0  0  0  0  0  0
   26.5225   24.9248    9.6489 H   0  0  0  0  0  0
   27.0425   23.4245   10.4344 H   0  0  0  0  0  0
   27.5198   25.0177   11.1099 H   0  0  0  0  0  0
  1  2  2  0  0  0
  1  5  1  0  0  0
  1  7  1  0  0  0
  2  3  1  0  0  0
  2  6  1  0  0  0
  3  4  1  0  0  0
  3 26  1  0  0  0
  3 27  1  0  0  0
  4  5  1  0  0  0
  4 28  1  0  0  0
  4 29  1  0  0  0
  5 30  1  0  0  0
  5 31  1  0  0  0
  6  8  2  0  0  0
  6 12  1  0  0  0
  7 13  2  0  0  0
  7 17  1  0  0  0
  8  9  1  0  0  0
  8 32  1  0  0  0
  9 10  2  0  0  0
  9 33  1  0  0  0
 10 11  1  0  0  0
 10 18  1  0  0  0
 11 12  2  0  0  0
 11 34  1  0  0  0
 12 35  1  0  0  0
 13 14  1  0  0  0
 13 36  1  0  0  0
 14 15  2  0  0  0
 14 24  1  0  0  0
 15 16  1  0  0  0
 15 22  1  0  0  0
 16 17  2  0  0  0
 16 25  1  0  0  0
 17 37  1  0  0  0
 18 19  2  0  0  0
 18 20  2  0  0  0
 18 21  1  0  0  0
 21 38  1  0  0  0
 21 39  1  0  0  0
 22 23  1  0  0  0
 23 40  1  0  0  0
 23 41  1  0  0  0
 23 42  1  0  0  0
M  END
>  <Name>
6-8k

>  <Family>
C

>  <IC50_uM>
0.009000

>  <set>
0

$$$$
6-8l
  Cerius2 12120216093D 1   1.00000                          
 Structure written by MMmdl.
 41 44  0  0  0  0  0  0  0  0999 V2000
   26.3837   22.0753   16.4163 C   0  0  0  0  0  0
   25.4971   21.4969   17.2511 C   0  0  0  0  0  0
   26.1819   20.9411   18.4703 C   0  0  0  0  0  0
   27.6542   20.9622   18.0726 C   0  0  0  0  0  0
   27.7718   22.0338   16.9947 C   0  0  0  0  0  0
   24.0401   21.3864   17.1146 C   0  0  0  0  0  0
   26.1540   22.7109   15.1119 C   0  0  0  0  0  0
   23.3323   22.2639   16.2789 C   0  0  0  0  0  0
   21.9422   22.1724   16.1578 C   0  0  0  0  0  0
   21.2474   21.2047   16.8866 C   0  0  0  0  0  0
   21.9351   20.3231   17.7229 C   0  0  0  0  0  0
   23.3260   20.4206   17.8383 C   0  0  0  0  0  0
   26.4191   24.0785   14.9371 C   0  0  0  0  0  0
   26.2060   24.6328   13.6908 C   0  0  0  0  0  0
   25.7553   23.8849   12.6299 C   0  0  0  0  0  0
   25.4951   22.5391   12.7547 C   0  0  0  0  0  0
   25.7018   21.9509   14.0083 C   0  0  0  0  0  0
   19.4897   21.0739   16.7080 S   0  0  0  0  0  0
   18.9345   22.3834   16.4141 O   0  0  0  0  0  0
   18.9598   20.2779   17.8010 O   0  0  0  0  0  0
   19.3453   20.1601   15.3116 N   0  0  0  0  0  0
   25.6140   24.6213   11.4962 O   0  0  0  0  0  0
   26.4048   25.9371   13.3587 O   0  0  0  0  0  0
   26.0260   25.9283   11.9617 C   0  0  0  0  0  0
   25.8726   19.9226   18.7222 H   0  0  0  0  0  0
   25.9978   21.5892   19.3348 H   0  0  0  0  0  0
   27.9403   19.9864   17.6584 H   0  0  0  0  0  0
   28.3113   21.1587   18.9258 H   0  0  0  0  0  0
   28.0377   23.0021   17.4335 H   0  0  0  0  0  0
   28.5303   21.7559   16.2558 H   0  0  0  0  0  0
   23.8576   23.0348   15.7165 H   0  0  0  0  0  0
   21.4136   22.8615   15.5027 H   0  0  0  0  0  0
   21.4041   19.5614   18.2897 H   0  0  0  0  0  0
   23.8452   19.7203   18.4907 H   0  0  0  0  0  0
   26.7705   24.7003   15.7548 H   0  0  0  0  0  0
   25.1460   21.9499   11.9130 H   0  0  0  0  0  0
   25.5150   20.8830   14.1177 H   0  0  0  0  0  0
   18.8677   20.6856   14.5749 H   0  0  0  0  0  0
   18.8761   19.2702   15.4996 H   0  0  0  0  0  0
   25.1964   26.6298   11.8182 H   0  0  0  0  0  0
   26.8821   26.2604   11.3636 H   0  0  0  0  0  0
  1  2  2  0  0  0
  1  5  1  0  0  0
  1  7  1  0  0  0
  2  3  1  0  0  0
  2  6  1  0  0  0
  3  4  1  0  0  0
  3 25  1  0  0  0
  3 26  1  0  0  0
  4  5  1  0  0  0
  4 27  1  0  0  0
  4 28  1  0  0  0
  5 29  1  0  0  0
  5 30  1  0  0  0
  6  8  2  0  0  0
  6 12  1  0  0  0
  7 13  2  0  0  0
  7 17  1  0  0  0
  8  9  1  0  0  0
  8 31  1  0  0  0
  9 10  2  0  0  0
  9 32  1  0  0  0
 10 11  1  0  0  0
 10 18  1  0  0  0
 11 12  2  0  0  0
 11 33  1  0  0  0
 12 34  1  0  0  0
 13 14  1  0  0  0
 13 35  1  0  0  0
 14 15  2  0  0  0
 14 23  1  0  0  0
 15 16  1  0  0  0
 15 22  1  0  0  0
 16 17  2  0  0  0
 16 36  1  0  0  0
 17 37  1  0  0  0
 18 19  2  0  0  0
 18 20  2  0  0  0
 18 21  1  0  0  0
 21 38  1  0  0  0
 21 39  1  0  0  0
 22 24  1  0  0  0
 23 24  1  0  0  0
 24 40  1  0  0  0
 24 41  1  0  0  0
M  END
>  <Name>
6-8l

>  <Family>
C

>  <IC50_uM>
0.002000

>  <set>
2

$$$$
6-8m
  Cerius2 12120216093D 1   1.00000                          
 Structure written by MMmdl.
 46 48  0  0  0  0  0  0  0  0999 V2000
   26.3820   22.0706   16.4165 C   0  0  0  0  0  0
   25.4946   21.4971   17.2542 C   0  0  0  0  0  0
   26.1798   20.9423   18.4740 C   0  0  0  0  0  0
   27.6508   20.9538   18.0716 C   0  0  0  0  0  0
   27.7709   22.0248   16.9934 C   0  0  0  0  0  0
   24.0372   21.3873   17.1188 C   0  0  0  0  0  0
   26.1533   22.7008   15.1097 C   0  0  0  0  0  0
   23.3287   22.2633   16.2823 C   0  0  0  0  0  0
   21.9387   22.1698   16.1609 C   0  0  0  0  0  0
   21.2449   21.2014   16.8899 C   0  0  0  0  0  0
   21.9332   20.3216   17.7275 C   0  0  0  0  0  0
   23.3239   20.4215   17.8434 C   0  0  0  0  0  0
   26.4177   24.0605   14.9191 C   0  0  0  0  0  0
   26.2167   24.6613   13.6678 C   0  0  0  0  0  0
   25.7515   23.9205   12.5594 C   0  0  0  0  0  0
   25.5089   22.5536   12.7642 C   0  0  0  0  0  0
   25.7092   21.9532   14.0148 C   0  0  0  0  0  0
   19.4876   21.0689   16.7091 S   0  0  0  0  0  0
   18.9311   22.3774   16.4128 O   0  0  0  0  0  0
   18.9583   20.2738   17.8028 O   0  0  0  0  0  0
   19.3449   20.1543   15.3131 N   0  0  0  0  0  0
   26.6210   26.3433   13.5255 Cl  0  0  0  0  0  0
   25.5222   24.5134   11.3112 N   0  0  0  0  0  0
   26.6730   24.7964   10.4539 C   0  0  0  0  0  0
   24.3032   24.0712   10.6294 C   0  0  0  0  0  0
   25.8659   19.9268   18.7314 H   0  0  0  0  0  0
   26.0020   21.5953   19.3359 H   0  0  0  0  0  0
   27.9293   19.9762   17.6560 H   0  0  0  0  0  0
   28.3121   21.1459   18.9224 H   0  0  0  0  0  0
   28.0403   22.9922   17.4319 H   0  0  0  0  0  0
   28.5279   21.7441   16.2540 H   0  0  0  0  0  0
   23.8530   23.0339   15.7189 H   0  0  0  0  0  0
   21.4088   22.8572   15.5049 H   0  0  0  0  0  0
   21.4036   19.5590   18.2939 H   0  0  0  0  0  0
   23.8437   19.7223   18.4966 H   0  0  0  0  0  0
   26.7769   24.6682   15.7470 H   0  0  0  0  0  0
   25.1403   21.9279   11.9537 H   0  0  0  0  0  0
   25.5149   20.8861   14.1146 H   0  0  0  0  0  0
   18.8687   20.6792   14.5750 H   0  0  0  0  0  0
   18.8754   19.2645   15.5008 H   0  0  0  0  0  0
   26.3881   25.5045    9.6683 H   0  0  0  0  0  0
   27.0443   23.8873    9.9689 H   0  0  0  0  0  0
   27.4861   25.2567   11.0260 H   0  0  0  0  0  0
   24.0888   24.7250    9.7772 H   0  0  0  0  0  0
   23.4273   24.0957   11.2854 H   0  0  0  0  0  0
   24.4235   23.0490   10.2530 H   0  0  0  0  0  0
  1  2  2  0  0  0
  1  5  1  0  0  0
  1  7  1  0  0  0
  2  3  1  0  0  0
  2  6  1  0  0  0
  3  4  1  0  0  0
  3 26  1  0  0  0
  3 27  1  0  0  0
  4  5  1  0  0  0
  4 28  1  0  0  0
  4 29  1  0  0  0
  5 30  1  0  0  0
  5 31  1  0  0  0
  6  8  2  0  0  0
  6 12  1  0  0  0
  7 13  2  0  0  0
  7 17  1  0  0  0
  8  9  1  0  0  0
  8 32  1  0  0  0
  9 10  2  0  0  0
  9 33  1  0  0  0
 10 11  1  0  0  0
 10 18  1  0  0  0
 11 12  2  0  0  0
 11 34  1  0  0  0
 12 35  1  0  0  0
 13 14  1  0  0  0
 13 36  1  0  0  0
 14 15  2  0  0  0
 14 22  1  0  0  0
 15 16  1  0  0  0
 15 23  1  0  0  0
 16 17  2  0  0  0
 16 37  1  0  0  0
 17 38  1  0  0  0
 18 19  2  0  0  0
 18 20  2  0  0  0
 18 21  1  0  0  0
 21 39  1  0  0  0
 21 40  1  0  0  0
 23 24  1  0  0  0
 23 25  1  0  0  0
 24 41  1  0  0  0
 24 42  1  0  0  0
 24 43  1  0  0  0
 25 44  1  0  0  0
 25 45  1  0  0  0
 25 46  1  0  0  0
M  END
>  <Name>
6-8m

>  <Family>
C

>  <IC50_uM>
0.002000

>  <set>
2

$$$$
6-8o
  Cerius2 12120216093D 1   1.00000                          
 Structure written by MMmdl.
 41 43  0  0  0  0  0  0  0  0999 V2000
   26.3808   22.0711   16.4154 C   0  0  0  0  0  0
   25.4933   21.4963   17.2520 C   0  0  0  0  0  0
   26.1775   20.9450   18.4739 C   0  0  0  0  0  0
   27.6491   20.9594   18.0743 C   0  0  0  0  0  0
   27.7686   22.0296   16.9955 C   0  0  0  0  0  0
   24.0361   21.3839   17.1159 C   0  0  0  0  0  0
   26.1553   22.7000   15.1072 C   0  0  0  0  0  0
   23.3265   22.2606   16.2811 C   0  0  0  0  0  0
   21.9362   22.1678   16.1622 C   0  0  0  0  0  0
   21.2433   21.1994   16.8923 C   0  0  0  0  0  0
   21.9326   20.3187   17.7277 C   0  0  0  0  0  0
   23.3237   20.4175   17.8407 C   0  0  0  0  0  0
   26.4174   24.0631   14.9193 C   0  0  0  0  0  0
   26.2247   24.6656   13.6705 C   0  0  0  0  0  0
   25.7803   23.9135   12.5746 C   0  0  0  0  0  0
   25.5198   22.5492   12.7603 C   0  0  0  0  0  0
   25.7130   21.9493   14.0101 C   0  0  0  0  0  0
   19.4853   21.0702   16.7163 S   0  0  0  0  0  0
   18.9302   22.3799   16.4229 O   0  0  0  0  0  0
   18.9581   20.2747   17.8108 O   0  0  0  0  0  0
   19.3368   20.1575   15.3195 N   0  0  0  0  0  0
   25.5519   24.5657   11.2348 C   0  0  0  0  0  0
   25.7373   23.7203   10.1750 F   0  0  0  0  0  0
   26.3801   25.6278   10.9939 F   0  0  0  0  0  0
   24.2825   25.0542   11.0934 F   0  0  0  0  0  0
   25.8659   19.9289   18.7320 H   0  0  0  0  0  0
   25.9963   21.5987   19.3347 H   0  0  0  0  0  0
   27.9301   19.9823   17.6598 H   0  0  0  0  0  0
   28.3084   21.1535   18.9263 H   0  0  0  0  0  0
   28.0345   22.9982   17.4335 H   0  0  0  0  0  0
   28.5278   21.7501   16.2580 H   0  0  0  0  0  0
   23.8504   23.0314   15.7176 H   0  0  0  0  0  0
   21.4054   22.8562   15.5082 H   0  0  0  0  0  0
   21.4038   19.5565   18.2957 H   0  0  0  0  0  0
   23.8442   19.7175   18.4927 H   0  0  0  0  0  0
   26.7622   24.6815   15.7469 H   0  0  0  0  0  0
   26.4262   25.7310   13.5599 H   0  0  0  0  0  0
   25.1680   21.9386   11.9289 H   0  0  0  0  0  0
   25.5198   20.8822   14.1116 H   0  0  0  0  0  0
   18.8589   20.6845   14.5840 H   0  0  0  0  0  0
   18.8659   19.2685   15.5077 H   0  0  0  0  0  0
  1  2  2  0  0  0
  1  5  1  0  0  0
  1  7  1  0  0  0
  2  3  1  0  0  0
  2  6  1  0  0  0
  3  4  1  0  0  0
  3 26  1  0  0  0
  3 27  1  0  0  0
  4  5  1  0  0  0
  4 28  1  0  0  0
  4 29  1  0  0  0
  5 30  1  0  0  0
  5 31  1  0  0  0
  6  8  2  0  0  0
  6 12  1  0  0  0
  7 13  2  0  0  0
  7 17  1  0  0  0
  8  9  1  0  0  0
  8 32  1  0  0  0
  9 10  2  0  0  0
  9 33  1  0  0  0
 10 11  1  0  0  0
 10 18  1  0  0  0
 11 12  2  0  0  0
 11 34  1  0  0  0
 12 35  1  0  0  0
 13 14  1  0  0  0
 13 36  1  0  0  0
 14 15  2  0  0  0
 14 37  1  0  0  0
 15 16  1  0  0  0
 15 22  1  0  0  0
 16 17  2  0  0  0
 16 38  1  0  0  0
 17 39  1  0  0  0
 18 19  2  0  0  0
 18 20  2  0  0  0
 18 21  1  0  0  0
 21 40  1  0  0  0
 21 41  1  0  0  0
 22 23  1  0  0  0
 22 24  1  0  0  0
 22 25  1  0  0  0
M  END
>  <Name>
6-8o

>  <Family>
C

>  <IC50_uM>
0.150000

>  <set>
2

$$$$
6-8p
  Cerius2 12120216093D 1   1.00000                          
 Structure written by MMmdl.
 41 43  0  0  0  0  0  0  0  0999 V2000
   26.3822   22.0712   16.4158 C   0  0  0  0  0  0
   25.4953   21.4966   17.2530 C   0  0  0  0  0  0
   26.1796   20.9437   18.4739 C   0  0  0  0  0  0
   27.6513   20.9589   18.0741 C   0  0  0  0  0  0
   27.7704   22.0283   16.9943 C   0  0  0  0  0  0
   24.0382   21.3862   17.1174 C   0  0  0  0  0  0
   26.1534   22.7019   15.1095 C   0  0  0  0  0  0
   23.3300   22.2630   16.2816 C   0  0  0  0  0  0
   21.9400   22.1699   16.1605 C   0  0  0  0  0  0
   21.2462   21.2012   16.8892 C   0  0  0  0  0  0
   21.9343   20.3211   17.7264 C   0  0  0  0  0  0
   23.3251   20.4200   17.8416 C   0  0  0  0  0  0
   26.4168   24.0633   14.9226 C   0  0  0  0  0  0
   26.2147   24.6547   13.6755 C   0  0  0  0  0  0
   25.7588   23.9190   12.5850 C   0  0  0  0  0  0
   25.5066   22.5534   12.7625 C   0  0  0  0  0  0
   25.7064   21.9525   14.0115 C   0  0  0  0  0  0
   19.4887   21.0715   16.7089 S   0  0  0  0  0  0
   18.9334   22.3807   16.4136 O   0  0  0  0  0  0
   18.9594   20.2760   17.8024 O   0  0  0  0  0  0
   19.3437   20.1586   15.3119 N   0  0  0  0  0  0
   25.5614   24.6040   11.2692 C   0  0  0  0  0  0
   25.0935   23.7825   10.2792 F   0  0  0  0  0  0
   26.7124   25.1468   10.7674 F   0  0  0  0  0  0
   24.6657   25.6361   11.3281 F   0  0  0  0  0  0
   26.4700   25.9641   13.5368 F   0  0  0  0  0  0
   25.8678   19.9273   18.7305 H   0  0  0  0  0  0
   25.9985   21.5961   19.3357 H   0  0  0  0  0  0
   27.9333   19.9815   17.6605 H   0  0  0  0  0  0
   28.3103   21.1542   18.9259 H   0  0  0  0  0  0
   28.0381   22.9968   17.4313 H   0  0  0  0  0  0
   28.5284   21.7476   16.2559 H   0  0  0  0  0  0
   23.8546   23.0343   15.7193 H   0  0  0  0  0  0
   21.4099   22.8581   15.5055 H   0  0  0  0  0  0
   21.4045   19.5587   18.2934 H   0  0  0  0  0  0
   23.8451   19.7203   18.4943 H   0  0  0  0  0  0
   26.7684   24.6864   15.7408 H   0  0  0  0  0  0
   25.1565   21.9429   11.9309 H   0  0  0  0  0  0
   25.5162   20.8843   14.1117 H   0  0  0  0  0  0
   18.8668   20.6854   14.5755 H   0  0  0  0  0  0
   18.8731   19.2695   15.4993 H   0  0  0  0  0  0
  1  2  2  0  0  0
  1  5  1  0  0  0
  1  7  1  0  0  0
  2  3  1  0  0  0
  2  6  1  0  0  0
  3  4  1  0  0  0
  3 27  1  0  0  0
  3 28  1  0  0  0
  4  5  1  0  0  0
  4 29  1  0  0  0
  4 30  1  0  0  0
  5 31  1  0  0  0
  5 32  1  0  0  0
  6  8  2  0  0  0
  6 12  1  0  0  0
  7 13  2  0  0  0
  7 17  1  0  0  0
  8  9  1  0  0  0
  8 33  1  0  0  0
  9 10  2  0  0  0
  9 34  1  0  0  0
 10 11  1  0  0  0
 10 18  1  0  0  0
 11 12  2  0  0  0
 11 35  1  0  0  0
 12 36  1  0  0  0
 13 14  1  0  0  0
 13 37  1  0  0  0
 14 15  2  0  0  0
 14 26  1  0  0  0
 15 16  1  0  0  0
 15 22  1  0  0  0
 16 17  2  0  0  0
 16 38  1  0  0  0
 17 39  1  0  0  0
 18 19  2  0  0  0
 18 20  2  0  0  0
 18 21  1  0  0  0
 21 40  1  0  0  0
 21 41  1  0  0  0
 22 23  1  0  0  0
 22 24  1  0  0  0
 22 25  1  0  0  0
M  END
>  <Name>
6-8p

>  <Family>
C

>  <IC50_uM>
0.170000

>  <set>
2

$$$$
7-16a
  Cerius2 12120216093D 1   1.00000                          
 Structure written by MMmdl.
 38 40  0  0  0  0  0  0  0  0999 V2000
   26.5409   22.0625   16.4080 C   0  0  0  0  0  0
   25.6600   21.4396   17.3299 C   0  0  0  0  0  0
   24.2042   21.3743   17.1061 C   0  0  0  0  0  0
   26.0632   22.6542   15.1459 C   0  0  0  0  0  0
   23.4194   20.4046   17.7499 C   0  0  0  0  0  0
   22.0329   20.3613   17.5672 C   0  0  0  0  0  0
   21.4174   21.2999   16.7355 C   0  0  0  0  0  0
   22.1808   22.2517   16.0607 C   0  0  0  0  0  0
   23.5664   22.2878   16.2480 C   0  0  0  0  0  0
   26.2864   24.0135   14.8618 C   0  0  0  0  0  0
   25.8024   24.5834   13.6799 C   0  0  0  0  0  0
   25.0976   23.7959   12.7776 C   0  0  0  0  0  0
   24.8761   22.4479   13.0291 C   0  0  0  0  0  0
   25.3625   21.8767   14.2069 C   0  0  0  0  0  0
   26.1961   20.8741   18.5026 C   0  0  0  0  0  0
   27.5637   20.9243   18.7699 C   0  0  0  0  0  0
   28.4252   21.5427   17.8722 C   0  0  0  0  0  0
   27.9180   22.1086   16.7025 C   0  0  0  0  0  0
   24.6322   24.3424   11.6458 F   0  0  0  0  0  0
   19.6513   21.2553   16.5233 S   0  0  0  0  0  0
   19.2293   22.5668   16.0407 O   0  0  0  0  0  0
   19.0631   20.7499   17.7609 O   0  0  0  0  0  0
   19.3966   20.0526   15.2446 C   0  0  0  0  0  0
   23.8856   19.6749   18.4117 H   0  0  0  0  0  0
   21.4500   19.5993   18.0789 H   0  0  0  0  0  0
   21.7166   22.9760   15.3953 H   0  0  0  0  0  0
   24.1495   23.0472   15.7298 H   0  0  0  0  0  0
   26.8272   24.6404   15.5695 H   0  0  0  0  0  0
   25.9646   25.6366   13.4716 H   0  0  0  0  0  0
   24.3185   21.8461   12.3160 H   0  0  0  0  0  0
   25.1844   20.8194   14.3969 H   0  0  0  0  0  0
   25.5364   20.3910   19.2232 H   0  0  0  0  0  0
   27.9551   20.4788   19.6843 H   0  0  0  0  0  0
   29.4919   21.5838   18.0782 H   0  0  0  0  0  0
   28.6095   22.5869   16.0082 H   0  0  0  0  0  0
   18.3202   19.9332   15.0980 H   0  0  0  0  0  0
   19.8315   19.1020   15.5574 H   0  0  0  0  0  0
   19.8595   20.3994   14.3193 H   0  0  0  0  0  0
  1  2  2  0  0  0
  1  4  1  0  0  0
  1 18  1  0  0  0
  2  3  1  0  0  0
  2 15  1  0  0  0
  3  5  2  0  0  0
  3  9  1  0  0  0
  4 10  2  0  0  0
  4 14  1  0  0  0
  5  6  1  0  0  0
  5 24  1  0  0  0
  6  7  2  0  0  0
  6 25  1  0  0  0
  7  8  1  0  0  0
  7 20  1  0  0  0
  8  9  2  0  0  0
  8 26  1  0  0  0
  9 27  1  0  0  0
 10 11  1  0  0  0
 10 28  1  0  0  0
 11 12  2  0  0  0
 11 29  1  0  0  0
 12 13  1  0  0  0
 12 19  1  0  0  0
 13 14  2  0  0  0
 13 30  1  0  0  0
 14 31  1  0  0  0
 15 16  2  0  0  0
 15 32  1  0  0  0
 16 17  1  0  0  0
 16 33  1  0  0  0
 17 18  2  0  0  0
 17 34  1  0  0  0
 18 35  1  0  0  0
 20 21  2  0  0  0
 20 22  2  0  0  0
 20 23  1  0  0  0
 23 36  1  0  0  0
 23 37  1  0  0  0
 23 38  1  0  0  0
M  END
>  <Name>
7-16a

>  <Family>
D.1

>  <IC50_uM>
0.260000

>  <set>
1

$$$$
7-16b
  Cerius2 12120216093D 1   1.00000                          
 Structure written by MMmdl.
 38 40  0  0  0  0  0  0  0  0999 V2000
   26.5021   22.0427   16.4661 C   0  0  0  0  0  0
   25.6186   21.4390   17.3980 C   0  0  0  0  0  0
   24.1662   21.3869   17.1724 C   0  0  0  0  0  0
   26.0303   22.6441   15.2064 C   0  0  0  0  0  0
   23.5554   22.2817   16.2780 C   0  0  0  0  0  0
   22.1807   22.2340   16.0477 C   0  0  0  0  0  0
   21.4030   21.2799   16.7080 C   0  0  0  0  0  0
   21.9878   20.3831   17.6036 C   0  0  0  0  0  0
   23.3659   20.4389   17.8342 C   0  0  0  0  0  0
   26.2584   24.0052   14.9396 C   0  0  0  0  0  0
   25.7990   24.5812   13.7549 C   0  0  0  0  0  0
   25.1168   23.8039   12.8225 C   0  0  0  0  0  0
   24.8885   22.4538   13.0616 C   0  0  0  0  0  0
   25.3446   21.8761   14.2482 C   0  0  0  0  0  0
   26.1424   20.9005   18.5897 C   0  0  0  0  0  0
   27.5092   20.9595   18.8679 C   0  0  0  0  0  0
   28.3757   21.5473   17.9533 C   0  0  0  0  0  0
   27.8772   22.0820   16.7641 C   0  0  0  0  0  0
   24.6717   24.3419   11.6770 F   0  0  0  0  0  0
   19.6545   21.2280   16.3954 S   0  0  0  0  0  0
   19.2740   22.5256   15.8460 O   0  0  0  0  0  0
   18.9877   20.7579   17.6065 O   0  0  0  0  0  0
   19.4744   19.9846   15.1412 C   0  0  0  0  0  0
   26.0826   26.2549   13.4589 Cl  0  0  0  0  0  0
   24.1574   23.0232   15.7548 H   0  0  0  0  0  0
   21.7310   22.9428   15.3551 H   0  0  0  0  0  0
   21.3924   19.6374   18.1258 H   0  0  0  0  0  0
   23.8167   19.7277   18.5267 H   0  0  0  0  0  0
   26.7892   24.6164   15.6679 H   0  0  0  0  0  0
   24.3589   21.8559   12.3258 H   0  0  0  0  0  0
   25.1585   20.8175   14.4255 H   0  0  0  0  0  0
   25.4775   20.4402   19.3198 H   0  0  0  0  0  0
   27.8941   20.5498   19.7988 H   0  0  0  0  0  0
   29.4420   21.5926   18.1655 H   0  0  0  0  0  0
   28.5751   22.5345   16.0606 H   0  0  0  0  0  0
   18.4063   19.8509   14.9530 H   0  0  0  0  0  0
   19.9075   19.0500   15.5030 H   0  0  0  0  0  0
   19.9703   20.3168   14.2269 H   0  0  0  0  0  0
  1  2  2  0  0  0
  1  4  1  0  0  0
  1 18  1  0  0  0
  2  3  1  0  0  0
  2 15  1  0  0  0
  3  5  2  0  0  0
  3  9  1  0  0  0
  4 10  2  0  0  0
  4 14  1  0  0  0
  5  6  1  0  0  0
  5 25  1  0  0  0
  6  7  2  0  0  0
  6 26  1  0  0  0
  7  8  1  0  0  0
  7 20  1  0  0  0
  8  9  2  0  0  0
  8 27  1  0  0  0
  9 28  1  0  0  0
 10 11  1  0  0  0
 10 29  1  0  0  0
 11 12  2  0  0  0
 11 24  1  0  0  0
 12 13  1  0  0  0
 12 19  1  0  0  0
 13 14  2  0  0  0
 13 30  1  0  0  0
 14 31  1  0  0  0
 15 16  2  0  0  0
 15 32  1  0  0  0
 16 17  1  0  0  0
 16 33  1  0  0  0
 17 18  2  0  0  0
 17 34  1  0  0  0
 18 35  1  0  0  0
 20 21  2  0  0  0
 20 22  2  0  0  0
 20 23  1  0  0  0
 23 36  1  0  0  0
 23 37  1  0  0  0
 23 38  1  0  0  0
M  END
>  <Name>
7-16b

>  <Family>
D.1

>  <IC50_uM>
0.360000

>  <set>
1

$$$$
7-16c
  Cerius2 12120216093D 1   1.00000                          
 Structure written by MMmdl.
 38 40  0  0  0  0  0  0  0  0999 V2000
   26.5032   22.0582   16.4712 C   0  0  0  0  0  0
   25.6086   21.4446   17.3849 C   0  0  0  0  0  0
   24.1564   21.3763   17.1495 C   0  0  0  0  0  0
   26.0506   22.6524   15.2026 C   0  0  0  0  0  0
   23.5285   22.2841   16.2808 C   0  0  0  0  0  0
   22.1483   22.2334   16.0671 C   0  0  0  0  0  0
   21.3818   21.2633   16.7177 C   0  0  0  0  0  0
   21.9831   20.3523   17.5886 C   0  0  0  0  0  0
   23.3653   20.4129   17.8019 C   0  0  0  0  0  0
   26.2742   24.0113   14.9298 C   0  0  0  0  0  0
   25.8368   24.5817   13.7312 C   0  0  0  0  0  0
   25.1732   23.7958   12.7930 C   0  0  0  0  0  0
   24.9500   22.4440   13.0398 C   0  0  0  0  0  0
   25.3904   21.8752   14.2385 C   0  0  0  0  0  0
   26.1254   20.8949   18.5757 C   0  0  0  0  0  0
   27.4890   20.9489   18.8676 C   0  0  0  0  0  0
   28.3641   21.5505   17.9714 C   0  0  0  0  0  0
   27.8764   22.0996   16.7860 C   0  0  0  0  0  0
   24.6215   24.4998   11.3239 Cl  0  0  0  0  0  0
   19.6240   21.2291   16.4514 S   0  0  0  0  0  0
   19.2352   22.5417   15.9443 O   0  0  0  0  0  0
   18.9879   20.7404   17.6703 O   0  0  0  0  0  0
   19.3972   20.0224   15.1721 C   0  0  0  0  0  0
   24.1161   23.0439   15.7668 H   0  0  0  0  0  0
   21.6852   22.9528   15.3955 H   0  0  0  0  0  0
   21.3966   19.5961   18.1054 H   0  0  0  0  0  0
   23.8273   19.6972   18.4802 H   0  0  0  0  0  0
   26.7857   24.6392   15.6583 H   0  0  0  0  0  0
   26.0158   25.6376   13.5434 H   0  0  0  0  0  0
   24.4335   21.8240   12.3116 H   0  0  0  0  0  0
   25.2104   20.8163   14.4190 H   0  0  0  0  0  0
   25.4530   20.4253   19.2936 H   0  0  0  0  0  0
   27.8632   20.5204   19.7966 H   0  0  0  0  0  0
   29.4282   21.5966   18.1933 H   0  0  0  0  0  0
   28.5797   22.5640   16.0934 H   0  0  0  0  0  0
   18.3243   19.9160   14.9972 H   0  0  0  0  0  0
   19.8163   19.0686   15.5004 H   0  0  0  0  0  0
   19.8852   20.3710   14.2609 H   0  0  0  0  0  0
  1  2  2  0  0  0
  1  4  1  0  0  0
  1 18  1  0  0  0
  2  3  1  0  0  0
  2 15  1  0  0  0
  3  5  2  0  0  0
  3  9  1  0  0  0
  4 10  2  0  0  0
  4 14  1  0  0  0
  5  6  1  0  0  0
  5 24  1  0  0  0
  6  7  2  0  0  0
  6 25  1  0  0  0
  7  8  1  0  0  0
  7 20  1  0  0  0
  8  9  2  0  0  0
  8 26  1  0  0  0
  9 27  1  0  0  0
 10 11  1  0  0  0
 10 28  1  0  0  0
 11 12  2  0  0  0
 11 29  1  0  0  0
 12 13  1  0  0  0
 12 19  1  0  0  0
 13 14  2  0  0  0
 13 30  1  0  0  0
 14 31  1  0  0  0
 15 16  2  0  0  0
 15 32  1  0  0  0
 16 17  1  0  0  0
 16 33  1  0  0  0
 17 18  2  0  0  0
 17 34  1  0  0  0
 18 35  1  0  0  0
 20 21  2  0  0  0
 20 22  2  0  0  0
 20 23  1  0  0  0
 23 36  1  0  0  0
 23 37  1  0  0  0
 23 38  1  0  0  0
M  END
>  <Name>
7-16c

>  <Family>
D.1

>  <IC50_uM>
0.140000

>  <set>
0

$$$$
7-16d
  Cerius2 12120216093D 1   1.00000                          
 Structure written by MMmdl.
 42 44  0  0  0  0  0  0  0  0999 V2000
   26.5033   22.0585   16.4748 C   0  0  0  0  0  0
   25.6172   21.4360   17.3918 C   0  0  0  0  0  0
   24.1603   21.3897   17.1713 C   0  0  0  0  0  0
   26.0391   22.6533   15.2099 C   0  0  0  0  0  0
   23.5441   22.2840   16.2789 C   0  0  0  0  0  0
   22.1671   22.2322   16.0456 C   0  0  0  0  0  0
   21.3920   21.2770   16.7060 C   0  0  0  0  0  0
   21.9788   20.3917   17.6121 C   0  0  0  0  0  0
   23.3577   20.4506   17.8408 C   0  0  0  0  0  0
   26.2547   24.0094   14.9322 C   0  0  0  0  0  0
   25.8034   24.5720   13.7375 C   0  0  0  0  0  0
   25.1347   23.8015   12.7837 C   0  0  0  0  0  0
   24.9209   22.4476   13.0543 C   0  0  0  0  0  0
   25.3691   21.8782   14.2516 C   0  0  0  0  0  0
   26.1470   20.8634   18.5654 C   0  0  0  0  0  0
   27.5142   20.9115   18.8409 C   0  0  0  0  0  0
   28.3793   21.5341   17.9494 C   0  0  0  0  0  0
   27.8786   22.1010   16.7773 C   0  0  0  0  0  0
   19.6393   21.2216   16.4095 S   0  0  0  0  0  0
   19.2408   22.5126   15.8572 O   0  0  0  0  0  0
   18.9875   20.7590   17.6311 O   0  0  0  0  0  0
   19.4626   19.9756   15.1594 C   0  0  0  0  0  0
   26.0357   25.8786   13.5442 F   0  0  0  0  0  0
   24.6451   24.2168   11.5753 O   0  0  0  0  0  0
   24.8539   25.5828   11.2245 C   0  0  0  0  0  0
   24.1395   23.0304   15.7547 H   0  0  0  0  0  0
   21.7163   22.9342   15.3474 H   0  0  0  0  0  0
   21.3831   19.6495   18.1388 H   0  0  0  0  0  0
   23.8082   19.7471   18.5408 H   0  0  0  0  0  0
   26.7681   24.6455   15.6496 H   0  0  0  0  0  0
   24.4012   21.8212   12.3308 H   0  0  0  0  0  0
   25.1877   20.8188   14.4321 H   0  0  0  0  0  0
   25.4838   20.3807   19.2837 H   0  0  0  0  0  0
   27.9022   20.4655   19.7552 H   0  0  0  0  0  0
   29.4460   21.5772   18.1616 H   0  0  0  0  0  0
   28.5745   22.5768   16.0864 H   0  0  0  0  0  0
   18.4006   19.8810   14.9218 H   0  0  0  0  0  0
   19.8433   19.0276   15.5446 H   0  0  0  0  0  0
   20.0146   20.2832   14.2691 H   0  0  0  0  0  0
   24.4322   25.7368   10.2267 H   0  0  0  0  0  0
   25.9212   25.8178   11.1727 H   0  0  0  0  0  0
   24.3261   26.2492   11.9145 H   0  0  0  0  0  0
  1  2  2  0  0  0
  1  4  1  0  0  0
  1 18  1  0  0  0
  2  3  1  0  0  0
  2 15  1  0  0  0
  3  5  2  0  0  0
  3  9  1  0  0  0
  4 10  2  0  0  0
  4 14  1  0  0  0
  5  6  1  0  0  0
  5 26  1  0  0  0
  6  7  2  0  0  0
  6 27  1  0  0  0
  7  8  1  0  0  0
  7 19  1  0  0  0
  8  9  2  0  0  0
  8 28  1  0  0  0
  9 29  1  0  0  0
 10 11  1  0  0  0
 10 30  1  0  0  0
 11 12  2  0  0  0
 11 23  1  0  0  0
 12 13  1  0  0  0
 12 24  1  0  0  0
 13 14  2  0  0  0
 13 31  1  0  0  0
 14 32  1  0  0  0
 15 16  2  0  0  0
 15 33  1  0  0  0
 16 17  1  0  0  0
 16 34  1  0  0  0
 17 18  2  0  0  0
 17 35  1  0  0  0
 18 36  1  0  0  0
 19 20  2  0  0  0
 19 21  2  0  0  0
 19 22  1  0  0  0
 22 37  1  0  0  0
 22 38  1  0  0  0
 22 39  1  0  0  0
 24 25  1  0  0  0
 25 40  1  0  0  0
 25 41  1  0  0  0
 25 42  1  0  0  0
M  END
>  <Name>
7-16d

>  <Family>
D.1

>  <IC50_uM>
>100

>  <set>
0

$$$$
7-16e
  Cerius2 12120216093D 1   1.00000                          
 Structure written by MMmdl.
 42 44  0  0  0  0  0  0  0  0999 V2000
   26.5061   22.0402   16.4641 C   0  0  0  0  0  0
   25.6081   21.4632   17.4002 C   0  0  0  0  0  0
   24.1529   21.4021   17.1696 C   0  0  0  0  0  0
   26.0513   22.6538   15.2030 C   0  0  0  0  0  0
   23.5289   22.2952   16.2815 C   0  0  0  0  0  0
   22.1515   22.2329   16.0485 C   0  0  0  0  0  0
   21.3848   21.2689   16.7060 C   0  0  0  0  0  0
   21.9802   20.3830   17.6062 C   0  0  0  0  0  0
   23.3576   20.4522   17.8336 C   0  0  0  0  0  0
   26.2754   24.0113   14.9383 C   0  0  0  0  0  0
   25.8275   24.5893   13.7460 C   0  0  0  0  0  0
   25.1522   23.8245   12.7809 C   0  0  0  0  0  0
   24.9368   22.4683   13.0367 C   0  0  0  0  0  0
   25.3826   21.8919   14.2335 C   0  0  0  0  0  0
   26.1275   20.9152   18.5906 C   0  0  0  0  0  0
   27.4969   20.9261   18.8571 C   0  0  0  0  0  0
   28.3761   21.4861   17.9387 C   0  0  0  0  0  0
   27.8855   22.0377   16.7548 C   0  0  0  0  0  0
   19.6300   21.1884   16.4302 S   0  0  0  0  0  0
   19.1964   22.4717   15.8869 O   0  0  0  0  0  0
   19.0074   20.7092   17.6600 O   0  0  0  0  0  0
   19.4582   19.9485   15.1744 C   0  0  0  0  0  0
   26.1318   26.2765   13.5016 Cl  0  0  0  0  0  0
   24.7509   24.4759   11.6426 O   0  0  0  0  0  0
   24.0536   23.7115   10.6616 C   0  0  0  0  0  0
   24.1194   23.0447   15.7554 H   0  0  0  0  0  0
   21.6959   22.9339   15.3524 H   0  0  0  0  0  0
   21.3887   19.6360   18.1313 H   0  0  0  0  0  0
   23.8119   19.7545   18.5364 H   0  0  0  0  0  0
   26.8009   24.6236   15.6692 H   0  0  0  0  0  0
   24.4228   21.8223   12.3298 H   0  0  0  0  0  0
   25.1926   20.8329   14.4084 H   0  0  0  0  0  0
   25.4561   20.4626   19.3206 H   0  0  0  0  0  0
   27.8748   20.4933   19.7815 H   0  0  0  0  0  0
   29.4456   21.4963   18.1417 H   0  0  0  0  0  0
   28.5912   22.4799   16.0519 H   0  0  0  0  0  0
   18.3953   19.8457   14.9451 H   0  0  0  0  0  0
   19.8510   19.0021   15.5513 H   0  0  0  0  0  0
   20.0015   20.2682   14.2832 H   0  0  0  0  0  0
   23.8093   24.3807    9.8312 H   0  0  0  0  0  0
   23.1128   23.3205   11.0626 H   0  0  0  0  0  0
   24.6839   22.9079   10.2670 H   0  0  0  0  0  0
  1  2  2  0  0  0
  1  4  1  0  0  0
  1 18  1  0  0  0
  2  3  1  0  0  0
  2 15  1  0  0  0
  3  5  2  0  0  0
  3  9  1  0  0  0
  4 10  2  0  0  0
  4 14  1  0  0  0
  5  6  1  0  0  0
  5 26  1  0  0  0
  6  7  2  0  0  0
  6 27  1  0  0  0
  7  8  1  0  0  0
  7 19  1  0  0  0
  8  9  2  0  0  0
  8 28  1  0  0  0
  9 29  1  0  0  0
 10 11  1  0  0  0
 10 30  1  0  0  0
 11 12  2  0  0  0
 11 23  1  0  0  0
 12 13  1  0  0  0
 12 24  1  0  0  0
 13 14  2  0  0  0
 13 31  1  0  0  0
 14 32  1  0  0  0
 15 16  2  0  0  0
 15 33  1  0  0  0
 16 17  1  0  0  0
 16 34  1  0  0  0
 17 18  2  0  0  0
 17 35  1  0  0  0
 18 36  1  0  0  0
 19 20  2  0  0  0
 19 21  2  0  0  0
 19 22  1  0  0  0
 22 37  1  0  0  0
 22 38  1  0  0  0
 22 39  1  0  0  0
 24 25  1  0  0  0
 25 40  1  0  0  0
 25 41  1  0  0  0
 25 42  1  0  0  0
M  END
>  <Name>
7-16e

>  <Family>
D.1

>  <IC50_uM>
11.400000

>  <set>
0

$$$$
7-17a
  Cerius2 12120216093D 1   1.00000                          
 Structure written by MMmdl.
 37 39  0  0  0  0  0  0  0  0999 V2000
   26.4991   22.0613   16.4722 C   0  0  0  0  0  0
   25.6035   21.4466   17.3857 C   0  0  0  0  0  0
   24.1479   21.3844   17.1558 C   0  0  0  0  0  0
   26.0545   22.6584   15.1987 C   0  0  0  0  0  0
   23.5153   22.2853   16.2822 C   0  0  0  0  0  0
   22.1355   22.2267   16.0656 C   0  0  0  0  0  0
   21.3729   21.2595   16.7251 C   0  0  0  0  0  0
   21.9774   20.3621   17.6065 C   0  0  0  0  0  0
   23.3583   20.4277   17.8184 C   0  0  0  0  0  0
   26.2780   24.0209   14.9291 C   0  0  0  0  0  0
   25.8588   24.5901   13.7242 C   0  0  0  0  0  0
   25.2170   23.7992   12.7801 C   0  0  0  0  0  0
   24.9886   22.4497   13.0164 C   0  0  0  0  0  0
   25.4087   21.8805   14.2212 C   0  0  0  0  0  0
   26.1220   20.8829   18.5698 C   0  0  0  0  0  0
   27.4865   20.9246   18.8576 C   0  0  0  0  0  0
   28.3623   21.5312   17.9667 C   0  0  0  0  0  0
   27.8735   22.0934   16.7870 C   0  0  0  0  0  0
   24.8152   24.3448   11.6245 F   0  0  0  0  0  0
   19.6223   21.2113   16.4602 S   0  0  0  0  0  0
   19.2014   22.4734   15.8783 O   0  0  0  0  0  0
   18.9656   20.6892   17.6458 O   0  0  0  0  0  0
   19.4749   20.0378   15.2742 N   0  0  0  0  0  0
   24.0995   23.0439   15.7620 H   0  0  0  0  0  0
   21.6669   22.9326   15.3830 H   0  0  0  0  0  0
   21.3921   19.6100   18.1303 H   0  0  0  0  0  0
   23.8205   19.7181   18.5045 H   0  0  0  0  0  0
   26.7765   24.6507   15.6655 H   0  0  0  0  0  0
   26.0308   25.6436   13.5233 H   0  0  0  0  0  0
   24.4870   21.8443   12.2670 H   0  0  0  0  0  0
   25.2285   20.8203   14.3954 H   0  0  0  0  0  0
   25.4509   20.4102   19.2874 H   0  0  0  0  0  0
   27.8619   20.4849   19.7799 H   0  0  0  0  0  0
   29.4278   21.5668   18.1856 H   0  0  0  0  0  0
   28.5794   22.5571   16.0976 H   0  0  0  0  0  0
   19.0800   20.4281   14.4147 H   0  0  0  0  0  0
   18.9269   19.2417   15.6100 H   0  0  0  0  0  0
  1  2  2  0  0  0
  1  4  1  0  0  0
  1 18  1  0  0  0
  2  3  1  0  0  0
  2 15  1  0  0  0
  3  5  2  0  0  0
  3  9  1  0  0  0
  4 10  2  0  0  0
  4 14  1  0  0  0
  5  6  1  0  0  0
  5 24  1  0  0  0
  6  7  2  0  0  0
  6 25  1  0  0  0
  7  8  1  0  0  0
  7 20  1  0  0  0
  8  9  2  0  0  0
  8 26  1  0  0  0
  9 27  1  0  0  0
 10 11  1  0  0  0
 10 28  1  0  0  0
 11 12  2  0  0  0
 11 29  1  0  0  0
 12 13  1  0  0  0
 12 19  1  0  0  0
 13 14  2  0  0  0
 13 30  1  0  0  0
 14 31  1  0  0  0
 15 16  2  0  0  0
 15 32  1  0  0  0
 16 17  1  0  0  0
 16 33  1  0  0  0
 17 18  2  0  0  0
 17 34  1  0  0  0
 18 35  1  0  0  0
 20 21  2  0  0  0
 20 22  2  0  0  0
 20 23  1  0  0  0
 23 36  1  0  0  0
 23 37  1  0  0  0
M  END
>  <Name>
7-17a

>  <Family>
D.1

>  <IC50_uM>
0.061000

>  <set>
2

$$$$
7-17b
  Cerius2 12120216093D 1   1.00000                          
 Structure written by MMmdl.
 37 39  0  0  0  0  0  0  0  0999 V2000
   26.5038   22.0486   16.4688 C   0  0  0  0  0  0
   25.6123   21.4528   17.3956 C   0  0  0  0  0  0
   24.1611   21.3934   17.1606 C   0  0  0  0  0  0
   26.0395   22.6488   15.2082 C   0  0  0  0  0  0
   23.5406   22.2922   16.2773 C   0  0  0  0  0  0
   22.1636   22.2329   16.0475 C   0  0  0  0  0  0
   21.3943   21.2678   16.7030 C   0  0  0  0  0  0
   21.9899   20.3718   17.5926 C   0  0  0  0  0  0
   23.3682   20.4376   17.8181 C   0  0  0  0  0  0
   26.2629   24.0107   14.9425 C   0  0  0  0  0  0
   25.8119   24.5805   13.7510 C   0  0  0  0  0  0
   25.1403   23.7968   12.8160 C   0  0  0  0  0  0
   24.9147   22.4463   13.0574 C   0  0  0  0  0  0
   25.3647   21.8737   14.2492 C   0  0  0  0  0  0
   26.1307   20.9033   18.5838 C   0  0  0  0  0  0
   27.4983   20.9385   18.8586 C   0  0  0  0  0  0
   28.3730   21.5203   17.9483 C   0  0  0  0  0  0
   27.8804   22.0709   16.7645 C   0  0  0  0  0  0
   24.7014   24.3310   11.6657 F   0  0  0  0  0  0
   19.6453   21.2210   16.4249 S   0  0  0  0  0  0
   19.2267   22.4885   15.8533 O   0  0  0  0  0  0
   18.9804   20.6860   17.5998 O   0  0  0  0  0  0
   19.5093   20.0604   15.2251 N   0  0  0  0  0  0
   26.0920   26.2535   13.4492 Cl  0  0  0  0  0  0
   24.1325   23.0462   15.7595 H   0  0  0  0  0  0
   21.7019   22.9362   15.3575 H   0  0  0  0  0  0
   21.3991   19.6214   18.1126 H   0  0  0  0  0  0
   23.8262   19.7319   18.5106 H   0  0  0  0  0  0
   26.7844   24.6259   15.6734 H   0  0  0  0  0  0
   24.3902   21.8442   12.3210 H   0  0  0  0  0  0
   25.1827   20.8147   14.4309 H   0  0  0  0  0  0
   25.4599   20.4438   19.3097 H   0  0  0  0  0  0
   27.8784   20.5114   19.7850 H   0  0  0  0  0  0
   29.4406   21.5481   18.1578 H   0  0  0  0  0  0
   28.5815   22.5233   16.0632 H   0  0  0  0  0  0
   19.1133   20.4576   14.3691 H   0  0  0  0  0  0
   18.9653   19.2568   15.5500 H   0  0  0  0  0  0
  1  2  2  0  0  0
  1  4  1  0  0  0
  1 18  1  0  0  0
  2  3  1  0  0  0
  2 15  1  0  0  0
  3  5  2  0  0  0
  3  9  1  0  0  0
  4 10  2  0  0  0
  4 14  1  0  0  0
  5  6  1  0  0  0
  5 25  1  0  0  0
  6  7  2  0  0  0
  6 26  1  0  0  0
  7  8  1  0  0  0
  7 20  1  0  0  0
  8  9  2  0  0  0
  8 27  1  0  0  0
  9 28  1  0  0  0
 10 11  1  0  0  0
 10 29  1  0  0  0
 11 12  2  0  0  0
 11 24  1  0  0  0
 12 13  1  0  0  0
 12 19  1  0  0  0
 13 14  2  0  0  0
 13 30  1  0  0  0
 14 31  1  0  0  0
 15 16  2  0  0  0
 15 32  1  0  0  0
 16 17  1  0  0  0
 16 33  1  0  0  0
 17 18  2  0  0  0
 17 34  1  0  0  0
 18 35  1  0  0  0
 20 21  2  0  0  0
 20 22  2  0  0  0
 20 23  1  0  0  0
 23 36  1  0  0  0
 23 37  1  0  0  0
M  END
>  <Name>
7-17b

>  <Family>
D.1

>  <IC50_uM>
0.017000

>  <set>
2

$$$$
7-17c
  Cerius2 12120216093D 1   1.00000                          
 Structure written by MMmdl.
 37 39  0  0  0  0  0  0  0  0999 V2000
   26.4999   22.0602   16.4725 C   0  0  0  0  0  0
   25.6040   21.4480   17.3853 C   0  0  0  0  0  0
   24.1503   21.3855   17.1525 C   0  0  0  0  0  0
   26.0539   22.6560   15.2002 C   0  0  0  0  0  0
   23.5188   22.2867   16.2783 C   0  0  0  0  0  0
   22.1384   22.2295   16.0640 C   0  0  0  0  0  0
   21.3766   21.2621   16.7245 C   0  0  0  0  0  0
   21.9816   20.3625   17.6033 C   0  0  0  0  0  0
   23.3617   20.4282   17.8149 C   0  0  0  0  0  0
   26.2782   24.0166   14.9289 C   0  0  0  0  0  0
   25.8526   24.5879   13.7257 C   0  0  0  0  0  0
   25.2031   23.8016   12.7776 C   0  0  0  0  0  0
   24.9775   22.4493   13.0218 C   0  0  0  0  0  0
   25.4029   21.8799   14.2264 C   0  0  0  0  0  0
   26.1195   20.8839   18.5700 C   0  0  0  0  0  0
   27.4837   20.9241   18.8592 C   0  0  0  0  0  0
   28.3610   21.5296   17.9684 C   0  0  0  0  0  0
   27.8737   22.0919   16.7880 C   0  0  0  0  0  0
   24.6816   24.5040   11.2949 Cl  0  0  0  0  0  0
   19.6265   21.2122   16.4589 S   0  0  0  0  0  0
   19.2057   22.4771   15.8827 O   0  0  0  0  0  0
   18.9705   20.6825   17.6411 O   0  0  0  0  0  0
   19.4773   20.0445   15.2676 N   0  0  0  0  0  0
   24.1028   23.0447   15.7573 H   0  0  0  0  0  0
   21.6679   22.9356   15.3830 H   0  0  0  0  0  0
   21.3966   19.6091   18.1254 H   0  0  0  0  0  0
   23.8250   19.7193   18.5013 H   0  0  0  0  0  0
   26.7838   24.6450   15.6618 H   0  0  0  0  0  0
   26.0333   25.6441   13.5400 H   0  0  0  0  0  0
   24.4737   21.8293   12.2838 H   0  0  0  0  0  0
   25.2227   20.8196   14.4011 H   0  0  0  0  0  0
   25.4465   20.4098   19.2850 H   0  0  0  0  0  0
   27.8580   20.4836   19.7814 H   0  0  0  0  0  0
   29.4262   21.5640   18.1894 H   0  0  0  0  0  0
   28.5805   22.5556   16.0993 H   0  0  0  0  0  0
   19.0663   20.4362   14.4167 H   0  0  0  0  0  0
   18.9413   19.2409   15.6053 H   0  0  0  0  0  0
  1  2  2  0  0  0
  1  4  1  0  0  0
  1 18  1  0  0  0
  2  3  1  0  0  0
  2 15  1  0  0  0
  3  5  2  0  0  0
  3  9  1  0  0  0
  4 10  2  0  0  0
  4 14  1  0  0  0
  5  6  1  0  0  0
  5 24  1  0  0  0
  6  7  2  0  0  0
  6 25  1  0  0  0
  7  8  1  0  0  0
  7 20  1  0  0  0
  8  9  2  0  0  0
  8 26  1  0  0  0
  9 27  1  0  0  0
 10 11  1  0  0  0
 10 28  1  0  0  0
 11 12  2  0  0  0
 11 29  1  0  0  0
 12 13  1  0  0  0
 12 19  1  0  0  0
 13 14  2  0  0  0
 13 30  1  0  0  0
 14 31  1  0  0  0
 15 16  2  0  0  0
 15 32  1  0  0  0
 16 17  1  0  0  0
 16 33  1  0  0  0
 17 18  2  0  0  0
 17 34  1  0  0  0
 18 35  1  0  0  0
 20 21  2  0  0  0
 20 22  2  0  0  0
 20 23  1  0  0  0
 23 36  1  0  0  0
 23 37  1  0  0  0
M  END
>  <Name>
7-17c

>  <Family>
D.1

>  <IC50_uM>
0.006000

>  <set>
0

$$$$
7-17d
  Cerius2 12120216093D 1   1.00000                          
 Structure written by MMmdl.
 41 43  0  0  0  0  0  0  0  0999 V2000
   26.5042   22.0532   16.4719 C   0  0  0  0  0  0
   25.6133   21.4489   17.3937 C   0  0  0  0  0  0
   24.1616   21.3893   17.1589 C   0  0  0  0  0  0
   26.0400   22.6506   15.2107 C   0  0  0  0  0  0
   23.5419   22.2915   16.2781 C   0  0  0  0  0  0
   22.1643   22.2357   16.0495 C   0  0  0  0  0  0
   21.3938   21.2699   16.7024 C   0  0  0  0  0  0
   21.9888   20.3711   17.5899 C   0  0  0  0  0  0
   23.3676   20.4335   17.8146 C   0  0  0  0  0  0
   26.2581   24.0069   14.9362 C   0  0  0  0  0  0
   25.8051   24.5722   13.7434 C   0  0  0  0  0  0
   25.1291   23.8047   12.7920 C   0  0  0  0  0  0
   24.9191   22.4490   13.0583 C   0  0  0  0  0  0
   25.3691   21.8767   14.2531 C   0  0  0  0  0  0
   26.1324   20.8918   18.5782 C   0  0  0  0  0  0
   27.4996   20.9296   18.8550 C   0  0  0  0  0  0
   28.3728   21.5257   17.9524 C   0  0  0  0  0  0
   27.8799   22.0818   16.7715 C   0  0  0  0  0  0
   19.6445   21.2264   16.4259 S   0  0  0  0  0  0
   19.2266   22.4963   15.8589 O   0  0  0  0  0  0
   18.9804   20.6889   17.6004 O   0  0  0  0  0  0
   19.5049   20.0705   15.2218 N   0  0  0  0  0  0
   26.0458   25.8770   13.5479 F   0  0  0  0  0  0
   24.6313   24.2236   11.5878 O   0  0  0  0  0  0
   24.7681   25.6070   11.2727 C   0  0  0  0  0  0
   24.1348   23.0458   15.7617 H   0  0  0  0  0  0
   21.7035   22.9420   15.3620 H   0  0  0  0  0  0
   21.3964   19.6202   18.1079 H   0  0  0  0  0  0
   23.8242   19.7251   18.5053 H   0  0  0  0  0  0
   26.7778   24.6391   15.6524 H   0  0  0  0  0  0
   24.3975   21.8252   12.3342 H   0  0  0  0  0  0
   25.1868   20.8177   14.4342 H   0  0  0  0  0  0
   25.4626   20.4229   19.2991 H   0  0  0  0  0  0
   27.8802   20.4940   19.7770 H   0  0  0  0  0  0
   29.4399   21.5584   18.1654 H   0  0  0  0  0  0
   28.5805   22.5426   16.0750 H   0  0  0  0  0  0
   19.1098   20.4721   14.3677 H   0  0  0  0  0  0
   18.9596   19.2667   15.5435 H   0  0  0  0  0  0
   24.2964   25.7731   10.2993 H   0  0  0  0  0  0
   25.8224   25.8867   11.1818 H   0  0  0  0  0  0
   24.2460   26.2318   12.0045 H   0  0  0  0  0  0
  1  2  2  0  0  0
  1  4  1  0  0  0
  1 18  1  0  0  0
  2  3  1  0  0  0
  2 15  1  0  0  0
  3  5  2  0  0  0
  3  9  1  0  0  0
  4 10  2  0  0  0
  4 14  1  0  0  0
  5  6  1  0  0  0
  5 26  1  0  0  0
  6  7  2  0  0  0
  6 27  1  0  0  0
  7  8  1  0  0  0
  7 19  1  0  0  0
  8  9  2  0  0  0
  8 28  1  0  0  0
  9 29  1  0  0  0
 10 11  1  0  0  0
 10 30  1  0  0  0
 11 12  2  0  0  0
 11 23  1  0  0  0
 12 13  1  0  0  0
 12 24  1  0  0  0
 13 14  2  0  0  0
 13 31  1  0  0  0
 14 32  1  0  0  0
 15 16  2  0  0  0
 15 33  1  0  0  0
 16 17  1  0  0  0
 16 34  1  0  0  0
 17 18  2  0  0  0
 17 35  1  0  0  0
 18 36  1  0  0  0
 19 20  2  0  0  0
 19 21  2  0  0  0
 19 22  1  0  0  0
 22 37  1  0  0  0
 22 38  1  0  0  0
 24 25  1  0  0  0
 25 39  1  0  0  0
 25 40  1  0  0  0
 25 41  1  0  0  0
M  END
>  <Name>
7-17d

>  <Family>
D.1

>  <IC50_uM>
0.033000

>  <set>
0

$$$$
7-17e
  Cerius2 12120216093D 1   1.00000                          
 Structure written by MMmdl.
 41 43  0  0  0  0  0  0  0  0999 V2000
   26.5041   22.0531   16.4722 C   0  0  0  0  0  0
   25.6113   21.4527   17.3943 C   0  0  0  0  0  0
   24.1607   21.3895   17.1551 C   0  0  0  0  0  0
   26.0422   22.6516   15.2106 C   0  0  0  0  0  0
   23.5388   22.2932   16.2776 C   0  0  0  0  0  0
   22.1608   22.2357   16.0495 C   0  0  0  0  0  0
   21.3923   21.2666   16.6995 C   0  0  0  0  0  0
   21.9901   20.3652   17.5828 C   0  0  0  0  0  0
   23.3690   20.4288   17.8063 C   0  0  0  0  0  0
   26.2594   24.0084   14.9389 C   0  0  0  0  0  0
   25.8101   24.5737   13.7411 C   0  0  0  0  0  0
   25.1394   23.7968   12.7825 C   0  0  0  0  0  0
   24.9269   22.4421   13.0507 C   0  0  0  0  0  0
   25.3754   21.8774   14.2514 C   0  0  0  0  0  0
   26.1284   20.8972   18.5807 C   0  0  0  0  0  0
   27.4955   20.9309   18.8575 C   0  0  0  0  0  0
   28.3711   21.5206   17.9531 C   0  0  0  0  0  0
   27.8799   22.0764   16.7713 C   0  0  0  0  0  0
   19.6403   21.2251   16.4376 S   0  0  0  0  0  0
   19.2152   22.4955   15.8766 O   0  0  0  0  0  0
   18.9875   20.6867   17.6179 O   0  0  0  0  0  0
   19.4907   20.0734   15.2312 N   0  0  0  0  0  0
   26.1085   26.2596   13.4803 Cl  0  0  0  0  0  0
   24.7378   24.4355   11.6369 O   0  0  0  0  0  0
   24.0691   23.6514   10.6514 C   0  0  0  0  0  0
   24.1298   23.0510   15.7642 H   0  0  0  0  0  0
   21.6994   22.9447   15.3655 H   0  0  0  0  0  0
   21.3992   19.6117   18.0987 H   0  0  0  0  0  0
   23.8275   19.7188   18.4941 H   0  0  0  0  0  0
   26.7762   24.6283   15.6694 H   0  0  0  0  0  0
   24.4136   21.7884   12.3508 H   0  0  0  0  0  0
   25.1942   20.8185   14.4359 H   0  0  0  0  0  0
   25.4567   20.4316   19.3019 H   0  0  0  0  0  0
   27.8747   20.4962   19.7807 H   0  0  0  0  0  0
   29.4385   21.5489   18.1652 H   0  0  0  0  0  0
   28.5819   22.5334   16.0737 H   0  0  0  0  0  0
   19.0911   20.4784   14.3807 H   0  0  0  0  0  0
   18.9452   19.2702   15.5541 H   0  0  0  0  0  0
   23.1256   23.2536   11.0395 H   0  0  0  0  0  0
   24.7166   22.8510   10.2785 H   0  0  0  0  0  0
   23.8325   24.3081    9.8087 H   0  0  0  0  0  0
  1  2  2  0  0  0
  1  4  1  0  0  0
  1 18  1  0  0  0
  2  3  1  0  0  0
  2 15  1  0  0  0
  3  5  2  0  0  0
  3  9  1  0  0  0
  4 10  2  0  0  0
  4 14  1  0  0  0
  5  6  1  0  0  0
  5 26  1  0  0  0
  6  7  2  0  0  0
  6 27  1  0  0  0
  7  8  1  0  0  0
  7 19  1  0  0  0
  8  9  2  0  0  0
  8 28  1  0  0  0
  9 29  1  0  0  0
 10 11  1  0  0  0
 10 30  1  0  0  0
 11 12  2  0  0  0
 11 23  1  0  0  0
 12 13  1  0  0  0
 12 24  1  0  0  0
 13 14  2  0  0  0
 13 31  1  0  0  0
 14 32  1  0  0  0
 15 16  2  0  0  0
 15 33  1  0  0  0
 16 17  1  0  0  0
 16 34  1  0  0  0
 17 18  2  0  0  0
 17 35  1  0  0  0
 18 36  1  0  0  0
 19 20  2  0  0  0
 19 21  2  0  0  0
 19 22  1  0  0  0
 22 37  1  0  0  0
 22 38  1  0  0  0
 24 25  1  0  0  0
 25 39  1  0  0  0
 25 40  1  0  0  0
 25 41  1  0  0  0
M  END
>  <Name>
7-17e

>  <Family>
D.1

>  <IC50_uM>
0.019000

>  <set>
0

$$$$
7-20a
  Cerius2 12120216093D 1   1.00000                          
 Structure written by MMmdl.
 38 40  0  0  0  0  0  0  0  0999 V2000
   26.5023   22.0545   16.4678 C   0  0  0  0  0  0
   25.6054   21.4459   17.3870 C   0  0  0  0  0  0
   24.1546   21.3785   17.1483 C   0  0  0  0  0  0
   26.0506   22.6512   15.2005 C   0  0  0  0  0  0
   23.5270   22.2857   16.2792 C   0  0  0  0  0  0
   22.1462   22.2333   16.0662 C   0  0  0  0  0  0
   21.3829   21.2613   16.7179 C   0  0  0  0  0  0
   21.9864   20.3537   17.5904 C   0  0  0  0  0  0
   23.3665   20.4159   17.8023 C   0  0  0  0  0  0
   26.2759   24.0130   14.9357 C   0  0  0  0  0  0
   25.8495   24.5862   13.7361 C   0  0  0  0  0  0
   25.1998   23.7994   12.7944 C   0  0  0  0  0  0
   24.9668   22.4501   13.0279 C   0  0  0  0  0  0
   25.3943   21.8765   14.2280 C   0  0  0  0  0  0
   26.1138   20.8977   18.5815 C   0  0  0  0  0  0
   27.4729   20.9566   18.8618 C   0  0  0  0  0  0
   28.3472   21.5555   17.9700 C   0  0  0  0  0  0
   27.8755   22.0993   16.7808 C   0  0  0  0  0  0
   19.6247   21.2209   16.4601 S   0  0  0  0  0  0
   19.2251   22.5299   15.9557 O   0  0  0  0  0  0
   18.9960   20.7227   17.6802 O   0  0  0  0  0  0
   19.4033   20.0114   15.1825 C   0  0  0  0  0  0
   24.7906   24.3503   11.6438 F   0  0  0  0  0  0
   27.9361   20.4347   20.0072 F   0  0  0  0  0  0
   29.6572   21.6150   18.2506 F   0  0  0  0  0  0
   24.1128   23.0473   15.7643 H   0  0  0  0  0  0
   21.6792   22.9544   15.3971 H   0  0  0  0  0  0
   21.3995   19.5998   18.1119 H   0  0  0  0  0  0
   23.8283   19.7031   18.4844 H   0  0  0  0  0  0
   26.7825   24.6371   15.6710 H   0  0  0  0  0  0
   26.0235   25.6407   13.5380 H   0  0  0  0  0  0
   24.4574   21.8493   12.2800 H   0  0  0  0  0  0
   25.2104   20.8175   14.4015 H   0  0  0  0  0  0
   25.4480   20.4277   19.3024 H   0  0  0  0  0  0
   28.5854   22.5599   16.0972 H   0  0  0  0  0  0
   18.3303   19.8989   15.0102 H   0  0  0  0  0  0
   19.8263   19.0613   15.5127 H   0  0  0  0  0  0
   19.8898   20.3605   14.2696 H   0  0  0  0  0  0
  1  2  2  0  0  0
  1  4  1  0  0  0
  1 18  1  0  0  0
  2  3  1  0  0  0
  2 15  1  0  0  0
  3  5  2  0  0  0
  3  9  1  0  0  0
  4 10  2  0  0  0
  4 14  1  0  0  0
  5  6  1  0  0  0
  5 26  1  0  0  0
  6  7  2  0  0  0
  6 27  1  0  0  0
  7  8  1  0  0  0
  7 19  1  0  0  0
  8  9  2  0  0  0
  8 28  1  0  0  0
  9 29  1  0  0  0
 10 11  1  0  0  0
 10 30  1  0  0  0
 11 12  2  0  0  0
 11 31  1  0  0  0
 12 13  1  0  0  0
 12 23  1  0  0  0
 13 14  2  0  0  0
 13 32  1  0  0  0
 14 33  1  0  0  0
 15 16  2  0  0  0
 15 34  1  0  0  0
 16 17  1  0  0  0
 16 24  1  0  0  0
 17 18  2  0  0  0
 17 25  1  0  0  0
 18 35  1  0  0  0
 19 20  2  0  0  0
 19 21  2  0  0  0
 19 22  1  0  0  0
 22 36  1  0  0  0
 22 37  1  0  0  0
 22 38  1  0  0  0
M  END
>  <Name>
7-20a

>  <Family>
D.1

>  <IC50_uM>
0.014000

>  <set>
0

$$$$
7-20b
  Cerius2 12120216093D 1   1.00000                          
 Structure written by MMmdl.
 38 40  0  0  0  0  0  0  0  0999 V2000
   26.5122   22.0500   16.4685 C   0  0  0  0  0  0
   25.6186   21.4435   17.3951 C   0  0  0  0  0  0
   24.1651   21.3948   17.1650 C   0  0  0  0  0  0
   26.0441   22.6462   15.2071 C   0  0  0  0  0  0
   23.5480   22.2880   16.2742 C   0  0  0  0  0  0
   22.1692   22.2355   16.0440 C   0  0  0  0  0  0
   21.3958   21.2773   16.7032 C   0  0  0  0  0  0
   21.9863   20.3907   17.6056 C   0  0  0  0  0  0
   23.3651   20.4538   17.8334 C   0  0  0  0  0  0
   26.2723   24.0054   14.9316 C   0  0  0  0  0  0
   25.7941   24.5773   13.7518 C   0  0  0  0  0  0
   25.0919   23.7974   12.8362 C   0  0  0  0  0  0
   24.8677   22.4472   13.0817 C   0  0  0  0  0  0
   25.3464   21.8740   14.2620 C   0  0  0  0  0  0
   26.1348   20.8839   18.5802 C   0  0  0  0  0  0
   27.4978   20.9317   18.8459 C   0  0  0  0  0  0
   28.3679   21.5283   17.9465 C   0  0  0  0  0  0
   27.8888   22.0843   16.7655 C   0  0  0  0  0  0
   19.6439   21.2175   16.4018 S   0  0  0  0  0  0
   19.2493   22.5105   15.8534 O   0  0  0  0  0  0
   18.9895   20.7505   17.6212 O   0  0  0  0  0  0
   19.4621   19.9705   15.1519 C   0  0  0  0  0  0
   24.6177   24.3355   11.7016 F   0  0  0  0  0  0
   27.9681   20.4034   19.9857 F   0  0  0  0  0  0
   29.6812   21.5755   18.2152 F   0  0  0  0  0  0
   26.0732   26.2486   13.4441 Cl  0  0  0  0  0  0
   24.1416   23.0350   15.7484 H   0  0  0  0  0  0
   21.7140   22.9401   15.3504 H   0  0  0  0  0  0
   21.3941   19.6455   18.1320 H   0  0  0  0  0  0
   23.8164   19.7510   18.5332 H   0  0  0  0  0  0
   26.8116   24.6199   15.6502 H   0  0  0  0  0  0
   24.3189   21.8491   12.3606 H   0  0  0  0  0  0
   25.1616   20.8161   14.4476 H   0  0  0  0  0  0
   25.4733   20.4176   19.3062 H   0  0  0  0  0  0
   28.5958   22.5431   16.0779 H   0  0  0  0  0  0
   18.3960   19.8423   14.9520 H   0  0  0  0  0  0
   19.8853   19.0325   15.5171 H   0  0  0  0  0  0
   19.9716   20.2955   14.2409 H   0  0  0  0  0  0
  1  2  2  0  0  0
  1  4  1  0  0  0
  1 18  1  0  0  0
  2  3  1  0  0  0
  2 15  1  0  0  0
  3  5  2  0  0  0
  3  9  1  0  0  0
  4 10  2  0  0  0
  4 14  1  0  0  0
  5  6  1  0  0  0
  5 27  1  0  0  0
  6  7  2  0  0  0
  6 28  1  0  0  0
  7  8  1  0  0  0
  7 19  1  0  0  0
  8  9  2  0  0  0
  8 29  1  0  0  0
  9 30  1  0  0  0
 10 11  1  0  0  0
 10 31  1  0  0  0
 11 12  2  0  0  0
 11 26  1  0  0  0
 12 13  1  0  0  0
 12 23  1  0  0  0
 13 14  2  0  0  0
 13 32  1  0  0  0
 14 33  1  0  0  0
 15 16  2  0  0  0
 15 34  1  0  0  0
 16 17  1  0  0  0
 16 24  1  0  0  0
 17 18  2  0  0  0
 17 25  1  0  0  0
 18 35  1  0  0  0
 19 20  2  0  0  0
 19 21  2  0  0  0
 19 22  1  0  0  0
 22 36  1  0  0  0
 22 37  1  0  0  0
 22 38  1  0  0  0
M  END
>  <Name>
7-20b

>  <Family>
D.1

>  <IC50_uM>
0.010000

>  <set>
0

$$$$
7-20c
  Cerius2 12120216093D 1   1.00000                          
 Structure written by MMmdl.
 41 43  0  0  0  0  0  0  0  0999 V2000
   26.5031   22.0639   16.4729 C   0  0  0  0  0  0
   25.6042   21.4419   17.3845 C   0  0  0  0  0  0
   24.1494   21.3782   17.1501 C   0  0  0  0  0  0
   26.0572   22.6562   15.1987 C   0  0  0  0  0  0
   23.5174   22.2846   16.2817 C   0  0  0  0  0  0
   22.1364   22.2335   16.0698 C   0  0  0  0  0  0
   21.3713   21.2769   16.7397 C   0  0  0  0  0  0
   21.9774   20.3614   17.6015 C   0  0  0  0  0  0
   23.3595   20.4183   17.8066 C   0  0  0  0  0  0
   26.2779   24.0192   14.9257 C   0  0  0  0  0  0
   25.8591   24.5952   13.7169 C   0  0  0  0  0  0
   25.1980   23.7914   12.7868 C   0  0  0  0  0  0
   24.9764   22.4409   13.0291 C   0  0  0  0  0  0
   25.4083   21.8743   14.2291 C   0  0  0  0  0  0
   26.1164   20.8757   18.5699 C   0  0  0  0  0  0
   27.4761   20.9299   18.8508 C   0  0  0  0  0  0
   28.3495   21.5424   17.9675 C   0  0  0  0  0  0
   27.8764   22.1062   16.7889 C   0  0  0  0  0  0
   19.6155   21.2110   16.4644 S   0  0  0  0  0  0
   19.1956   22.4935   15.9083 O   0  0  0  0  0  0
   18.9882   20.7507   17.6994 O   0  0  0  0  0  0
   19.4321   19.9613   15.2200 C   0  0  0  0  0  0
   24.7642   24.3215   11.6340 F   0  0  0  0  0  0
   27.9391   20.3884   19.9867 F   0  0  0  0  0  0
   29.6603   21.5927   18.2458 F   0  0  0  0  0  0
   26.0595   26.0571   13.4553 C   0  0  0  0  0  0
   24.1012   23.0442   15.7630 H   0  0  0  0  0  0
   21.6729   22.9455   15.3901 H   0  0  0  0  0  0
   21.3916   19.6066   18.1215 H   0  0  0  0  0  0
   23.8210   19.7006   18.4843 H   0  0  0  0  0  0
   26.7754   24.6410   15.6707 H   0  0  0  0  0  0
   24.4653   21.8339   12.2872 H   0  0  0  0  0  0
   25.2300   20.8145   14.4074 H   0  0  0  0  0  0
   25.4533   20.3973   19.2872 H   0  0  0  0  0  0
   28.5870   22.5732   16.1106 H   0  0  0  0  0  0
   18.3686   19.8633   14.9921 H   0  0  0  0  0  0
   19.8175   19.0153   15.6053 H   0  0  0  0  0  0
   19.9776   20.2672   14.3252 H   0  0  0  0  0  0
   26.2848   26.2361   12.3987 H   0  0  0  0  0  0
   26.9007   26.4497   14.0361 H   0  0  0  0  0  0
   25.1566   26.6130   13.7264 H   0  0  0  0  0  0
  1  2  2  0  0  0
  1  4  1  0  0  0
  1 18  1  0  0  0
  2  3  1  0  0  0
  2 15  1  0  0  0
  3  5  2  0  0  0
  3  9  1  0  0  0
  4 10  2  0  0  0
  4 14  1  0  0  0
  5  6  1  0  0  0
  5 27  1  0  0  0
  6  7  2  0  0  0
  6 28  1  0  0  0
  7  8  1  0  0  0
  7 19  1  0  0  0
  8  9  2  0  0  0
  8 29  1  0  0  0
  9 30  1  0  0  0
 10 11  1  0  0  0
 10 31  1  0  0  0
 11 12  2  0  0  0
 11 26  1  0  0  0
 12 13  1  0  0  0
 12 23  1  0  0  0
 13 14  2  0  0  0
 13 32  1  0  0  0
 14 33  1  0  0  0
 15 16  2  0  0  0
 15 34  1  0  0  0
 16 17  1  0  0  0
 16 24  1  0  0  0
 17 18  2  0  0  0
 17 25  1  0  0  0
 18 35  1  0  0  0
 19 20  2  0  0  0
 19 21  2  0  0  0
 19 22  1  0  0  0
 22 36  1  0  0  0
 22 37  1  0  0  0
 22 38  1  0  0  0
 26 39  1  0  0  0
 26 40  1  0  0  0
 26 41  1  0  0  0
M  END
>  <Name>
7-20c

>  <Family>
D.1

>  <IC50_uM>
0.005000

>  <set>
0

$$$$
7-20d
  Cerius2 12120216093D 1   1.00000                          
 Structure written by MMmdl.
 42 44  0  0  0  0  0  0  0  0999 V2000
   26.5050   22.0615   16.4753 C   0  0  0  0  0  0
   25.6150   21.4387   17.3946 C   0  0  0  0  0  0
   24.1605   21.3901   17.1694 C   0  0  0  0  0  0
   26.0404   22.6565   15.2112 C   0  0  0  0  0  0
   23.5442   22.2873   16.2809 C   0  0  0  0  0  0
   22.1674   22.2351   16.0489 C   0  0  0  0  0  0
   21.3935   21.2771   16.7069 C   0  0  0  0  0  0
   21.9808   20.3895   17.6102 C   0  0  0  0  0  0
   23.3596   20.4482   17.8371 C   0  0  0  0  0  0
   26.2531   24.0126   14.9303 C   0  0  0  0  0  0
   25.7998   24.5713   13.7336 C   0  0  0  0  0  0
   25.1325   23.7958   12.7829 C   0  0  0  0  0  0
   24.9242   22.4420   13.0566 C   0  0  0  0  0  0
   25.3735   21.8776   14.2548 C   0  0  0  0  0  0
   26.1375   20.8611   18.5685 C   0  0  0  0  0  0
   27.5018   20.9068   18.8306 C   0  0  0  0  0  0
   28.3671   21.5205   17.9388 C   0  0  0  0  0  0
   27.8819   22.0960   16.7708 C   0  0  0  0  0  0
   19.6416   21.2202   16.4095 S   0  0  0  0  0  0
   19.2438   22.5125   15.8612 O   0  0  0  0  0  0
   18.9884   20.7519   17.6285 O   0  0  0  0  0  0
   19.4659   19.9768   15.1563 C   0  0  0  0  0  0
   27.9773   20.3548   19.9563 F   0  0  0  0  0  0
   29.6824   21.5593   18.1977 F   0  0  0  0  0  0
   26.0285   25.8777   13.5359 F   0  0  0  0  0  0
   24.6393   24.2041   11.5734 O   0  0  0  0  0  0
   24.8144   25.5752   11.2265 C   0  0  0  0  0  0
   24.1392   23.0358   15.7587 H   0  0  0  0  0  0
   21.7155   22.9395   15.3536 H   0  0  0  0  0  0
   21.3857   19.6462   18.1362 H   0  0  0  0  0  0
   23.8097   19.7417   18.5343 H   0  0  0  0  0  0
   26.7666   24.6525   15.6443 H   0  0  0  0  0  0
   24.4077   21.8124   12.3343 H   0  0  0  0  0  0
   25.1969   20.8179   14.4365 H   0  0  0  0  0  0
   25.4809   20.3803   19.2898 H   0  0  0  0  0  0
   28.5851   22.5630   16.0849 H   0  0  0  0  0  0
   18.4026   19.8719   14.9303 H   0  0  0  0  0  0
   19.8609   19.0321   15.5338 H   0  0  0  0  0  0
   20.0057   20.2949   14.2621 H   0  0  0  0  0  0
   24.3756   25.7242   10.2350 H   0  0  0  0  0  0
   25.8758   25.8331   11.1601 H   0  0  0  0  0  0
   24.2831   26.2281   11.9263 H   0  0  0  0  0  0
  1  2  2  0  0  0
  1  4  1  0  0  0
  1 18  1  0  0  0
  2  3  1  0  0  0
  2 15  1  0  0  0
  3  5  2  0  0  0
  3  9  1  0  0  0
  4 10  2  0  0  0
  4 14  1  0  0  0
  5  6  1  0  0  0
  5 28  1  0  0  0
  6  7  2  0  0  0
  6 29  1  0  0  0
  7  8  1  0  0  0
  7 19  1  0  0  0
  8  9  2  0  0  0
  8 30  1  0  0  0
  9 31  1  0  0  0
 10 11  1  0  0  0
 10 32  1  0  0  0
 11 12  2  0  0  0
 11 25  1  0  0  0
 12 13  1  0  0  0
 12 26  1  0  0  0
 13 14  2  0  0  0
 13 33  1  0  0  0
 14 34  1  0  0  0
 15 16  2  0  0  0
 15 35  1  0  0  0
 16 17  1  0  0  0
 16 23  1  0  0  0
 17 18  2  0  0  0
 17 24  1  0  0  0
 18 36  1  0  0  0
 19 20  2  0  0  0
 19 21  2  0  0  0
 19 22  1  0  0  0
 22 37  1  0  0  0
 22 38  1  0  0  0
 22 39  1  0  0  0
 26 27  1  0  0  0
 27 40  1  0  0  0
 27 41  1  0  0  0
 27 42  1  0  0  0
M  END
>  <Name>
7-20d

>  <Family>
D.1

>  <IC50_uM>
0.021000

>  <set>
1

$$$$
7-20e
  Cerius2 12120216093D 1   1.00000                          
 Structure written by MMmdl.
 42 44  0  0  0  0  0  0  0  0999 V2000
   26.5096   22.0367   16.4628 C   0  0  0  0  0  0
   25.6133   21.4590   17.4063 C   0  0  0  0  0  0
   24.1574   21.4092   17.1808 C   0  0  0  0  0  0
   26.0447   22.6514   15.2061 C   0  0  0  0  0  0
   23.5421   22.2951   16.2795 C   0  0  0  0  0  0
   22.1664   22.2332   16.0372 C   0  0  0  0  0  0
   21.3934   21.2780   16.6993 C   0  0  0  0  0  0
   21.9792   20.4039   17.6174 C   0  0  0  0  0  0
   23.3551   20.4717   17.8533 C   0  0  0  0  0  0
   26.2696   24.0088   14.9391 C   0  0  0  0  0  0
   25.8048   24.5891   13.7542 C   0  0  0  0  0  0
   25.1131   23.8266   12.7997 C   0  0  0  0  0  0
   24.8998   22.4702   13.0569 C   0  0  0  0  0  0
   25.3614   21.8912   14.2461 C   0  0  0  0  0  0
   26.1322   20.9069   18.5943 C   0  0  0  0  0  0
   27.4997   20.9206   18.8405 C   0  0  0  0  0  0
   28.3725   21.4788   17.9206 C   0  0  0  0  0  0
   27.8912   22.0326   16.7405 C   0  0  0  0  0  0
   19.6432   21.1843   16.4010 S   0  0  0  0  0  0
   19.2101   22.4574   15.8331 O   0  0  0  0  0  0
   19.0079   20.7196   17.6299 O   0  0  0  0  0  0
   19.4955   19.9270   15.1583 C   0  0  0  0  0  0
   27.9726   20.3868   19.9762 F   0  0  0  0  0  0
   29.6906   21.4899   18.1667 F   0  0  0  0  0  0
   26.1068   26.2760   13.5071 Cl  0  0  0  0  0  0
   24.6948   24.4795   11.6685 O   0  0  0  0  0  0
   23.9569   23.7224   10.7118 C   0  0  0  0  0  0
   24.1383   23.0354   15.7462 H   0  0  0  0  0  0
   21.7188   22.9252   15.3272 H   0  0  0  0  0  0
   21.3813   19.6651   18.1470 H   0  0  0  0  0  0
   23.8024   19.7795   18.5661 H   0  0  0  0  0  0
   26.8054   24.6204   15.6629 H   0  0  0  0  0  0
   24.3742   21.8258   12.3574 H   0  0  0  0  0  0
   25.1696   20.8325   14.4218 H   0  0  0  0  0  0
   25.4713   20.4561   19.3311 H   0  0  0  0  0  0
   28.5993   22.4700   16.0408 H   0  0  0  0  0  0
   18.4380   19.8227   14.9061 H   0  0  0  0  0  0
   19.8766   18.9848   15.5568 H   0  0  0  0  0  0
   20.0595   20.2323   14.2753 H   0  0  0  0  0  0
   23.0267   23.3399   11.1450 H   0  0  0  0  0  0
   24.5662   22.9138   10.2956 H   0  0  0  0  0  0
   23.6904   24.3950    9.8907 H   0  0  0  0  0  0
  1  2  2  0  0  0
  1  4  1  0  0  0
  1 18  1  0  0  0
  2  3  1  0  0  0
  2 15  1  0  0  0
  3  5  2  0  0  0
  3  9  1  0  0  0
  4 10  2  0  0  0
  4 14  1  0  0  0
  5  6  1  0  0  0
  5 28  1  0  0  0
  6  7  2  0  0  0
  6 29  1  0  0  0
  7  8  1  0  0  0
  7 19  1  0  0  0
  8  9  2  0  0  0
  8 30  1  0  0  0
  9 31  1  0  0  0
 10 11  1  0  0  0
 10 32  1  0  0  0
 11 12  2  0  0  0
 11 25  1  0  0  0
 12 13  1  0  0  0
 12 26  1  0  0  0
 13 14  2  0  0  0
 13 33  1  0  0  0
 14 34  1  0  0  0
 15 16  2  0  0  0
 15 35  1  0  0  0
 16 17  1  0  0  0
 16 23  1  0  0  0
 17 18  2  0  0  0
 17 24  1  0  0  0
 18 36  1  0  0  0
 19 20  2  0  0  0
 19 21  2  0  0  0
 19 22  1  0  0  0
 22 37  1  0  0  0
 22 38  1  0  0  0
 22 39  1  0  0  0
 26 27  1  0  0  0
 27 40  1  0  0  0
 27 41  1  0  0  0
 27 42  1  0  0  0
M  END
>  <Name>
7-20e

>  <Family>
D.1

>  <IC50_uM>
0.019000

>  <set>
0

$$$$
7-20f
  Cerius2 12120216093D 1   1.00000                          
 Structure written by MMmdl.
 42 44  0  0  0  0  0  0  0  0999 V2000
   26.5070   22.0572   16.4725 C   0  0  0  0  0  0
   25.6143   21.4428   17.3955 C   0  0  0  0  0  0
   24.1587   21.3973   17.1706 C   0  0  0  0  0  0
   26.0445   22.6527   15.2059 C   0  0  0  0  0  0
   23.5407   22.2877   16.2762 C   0  0  0  0  0  0
   22.1638   22.2318   16.0451 C   0  0  0  0  0  0
   21.3921   21.2761   16.7091 C   0  0  0  0  0  0
   21.9812   20.3951   17.6173 C   0  0  0  0  0  0
   23.3590   20.4585   17.8445 C   0  0  0  0  0  0
   26.2596   24.0128   14.9325 C   0  0  0  0  0  0
   25.8092   24.5824   13.7375 C   0  0  0  0  0  0
   25.1546   23.7960   12.7823 C   0  0  0  0  0  0
   24.9116   22.4459   13.0592 C   0  0  0  0  0  0
   25.3662   21.8775   14.2521 C   0  0  0  0  0  0
   26.1339   20.8667   18.5717 C   0  0  0  0  0  0
   27.4981   20.9055   18.8334 C   0  0  0  0  0  0
   28.3661   21.5122   17.9398 C   0  0  0  0  0  0
   27.8840   22.0854   16.7688 C   0  0  0  0  0  0
   19.6405   21.2087   16.4097 S   0  0  0  0  0  0
   19.2357   22.4948   15.8511 O   0  0  0  0  0  0
   18.9886   20.7443   17.6300 O   0  0  0  0  0  0
   19.4786   19.9575   15.1631 C   0  0  0  0  0  0
   26.0658   26.2737   13.4923 Cl  0  0  0  0  0  0
   24.6856   24.3583   11.6188 O   0  0  0  0  0  0
   25.6790   24.2676   10.5908 C   0  0  0  0  0  0
   24.0346   21.4424   11.9585 Cl  0  0  0  0  0  0
   29.6814   21.5450   18.1990 F   0  0  0  0  0  0
   27.9719   20.3530   19.9592 F   0  0  0  0  0  0
   24.1339   23.0344   15.7489 H   0  0  0  0  0  0
   21.7095   22.9307   15.3457 H   0  0  0  0  0  0
   21.3871   19.6531   18.1463 H   0  0  0  0  0  0
   23.8100   19.7582   18.5469 H   0  0  0  0  0  0
   26.7676   24.6364   15.6669 H   0  0  0  0  0  0
   25.1807   20.8223   14.4479 H   0  0  0  0  0  0
   25.4744   20.3908   19.2936 H   0  0  0  0  0  0
   28.5916   22.5455   16.0827 H   0  0  0  0  0  0
   18.4183   19.8528   14.9241 H   0  0  0  0  0  0
   19.8672   19.0152   15.5535 H   0  0  0  0  0  0
   20.0308   20.2669   14.2735 H   0  0  0  0  0  0
   26.0314   23.2396   10.4527 H   0  0  0  0  0  0
   26.5252   24.9287   10.8043 H   0  0  0  0  0  0
   25.2189   24.5960    9.6541 H   0  0  0  0  0  0
  1  2  2  0  0  0
  1  4  1  0  0  0
  1 18  1  0  0  0
  2  3  1  0  0  0
  2 15  1  0  0  0
  3  5  2  0  0  0
  3  9  1  0  0  0
  4 10  2  0  0  0
  4 14  1  0  0  0
  5  6  1  0  0  0
  5 29  1  0  0  0
  6  7  2  0  0  0
  6 30  1  0  0  0
  7  8  1  0  0  0
  7 19  1  0  0  0
  8  9  2  0  0  0
  8 31  1  0  0  0
  9 32  1  0  0  0
 10 11  1  0  0  0
 10 33  1  0  0  0
 11 12  2  0  0  0
 11 23  1  0  0  0
 12 13  1  0  0  0
 12 24  1  0  0  0
 13 14  2  0  0  0
 13 26  1  0  0  0
 14 34  1  0  0  0
 15 16  2  0  0  0
 15 35  1  0  0  0
 16 17  1  0  0  0
 16 28  1  0  0  0
 17 18  2  0  0  0
 17 27  1  0  0  0
 18 36  1  0  0  0
 19 20  2  0  0  0
 19 21  2  0  0  0
 19 22  1  0  0  0
 22 37  1  0  0  0
 22 38  1  0  0  0
 22 39  1  0  0  0
 24 25  1  0  0  0
 25 40  1  0  0  0
 25 41  1  0  0  0
 25 42  1  0  0  0
M  END
>  <Name>
7-20f

>  <Family>
D.1

>  <IC50_uM>
>100

>  <set>
0

$$$$
7-20g
  Cerius2 12120216093D 1   1.00000                          
 Structure written by MMmdl.
 45 47  0  0  0  0  0  0  0  0999 V2000
   26.5071   22.0608   16.4702 C   0  0  0  0  0  0
   25.6027   21.4443   17.3823 C   0  0  0  0  0  0
   24.1438   21.3790   17.1506 C   0  0  0  0  0  0
   26.0705   22.6560   15.1936 C   0  0  0  0  0  0
   23.5022   22.2850   16.2874 C   0  0  0  0  0  0
   22.1208   22.2291   16.0779 C   0  0  0  0  0  0
   21.3597   21.2694   16.7480 C   0  0  0  0  0  0
   21.9698   20.3608   17.6131 C   0  0  0  0  0  0
   23.3536   20.4201   17.8111 C   0  0  0  0  0  0
   26.2992   24.0131   14.9173 C   0  0  0  0  0  0
   25.8696   24.5991   13.7130 C   0  0  0  0  0  0
   25.1967   23.8118   12.7618 C   0  0  0  0  0  0
   24.9833   22.4559   13.0217 C   0  0  0  0  0  0
   25.4155   21.8858   14.2254 C   0  0  0  0  0  0
   26.1168   20.8831   18.5706 C   0  0  0  0  0  0
   27.4763   20.9342   18.8532 C   0  0  0  0  0  0
   28.3521   21.5399   17.9689 C   0  0  0  0  0  0
   27.8815   22.0979   16.7871 C   0  0  0  0  0  0
   19.6052   21.2018   16.4630 S   0  0  0  0  0  0
   19.1918   22.4701   15.8680 O   0  0  0  0  0  0
   18.9765   20.7795   17.7094 O   0  0  0  0  0  0
   19.4151   19.9236   15.2491 C   0  0  0  0  0  0
   27.9348   20.3941   19.9919 F   0  0  0  0  0  0
   29.6622   21.5910   18.2486 F   0  0  0  0  0  0
   26.0998   26.0703   13.4860 C   0  0  0  0  0  0
   24.7950   24.4626   11.6249 O   0  0  0  0  0  0
   24.0464   23.7105   10.6725 C   0  0  0  0  0  0
   24.0786   23.0497   15.7674 H   0  0  0  0  0  0
   21.6531   22.9372   15.3973 H   0  0  0  0  0  0
   21.3883   19.6074   18.1403 H   0  0  0  0  0  0
   23.8151   19.7030   18.4900 H   0  0  0  0  0  0
   26.8044   24.6305   15.6607 H   0  0  0  0  0  0
   24.4753   21.8060   12.3138 H   0  0  0  0  0  0
   25.2278   20.8276   14.4028 H   0  0  0  0  0  0
   25.4538   20.4116   19.2929 H   0  0  0  0  0  0
   28.5950   22.5575   16.1071 H   0  0  0  0  0  0
   18.3550   19.8508   14.9971 H   0  0  0  0  0  0
   19.7578   18.9756   15.6688 H   0  0  0  0  0  0
   19.9916   20.1860   14.3601 H   0  0  0  0  0  0
   26.5768   26.2403   12.5152 H   0  0  0  0  0  0
   26.7576   26.4980   14.2509 H   0  0  0  0  0  0
   25.1463   26.6070   13.5231 H   0  0  0  0  0  0
   23.7882   24.3807    9.8466 H   0  0  0  0  0  0
   23.1117   23.3433   11.1091 H   0  0  0  0  0  0
   24.6437   22.8894   10.2614 H   0  0  0  0  0  0
  1  2  2  0  0  0
  1  4  1  0  0  0
  1 18  1  0  0  0
  2  3  1  0  0  0
  2 15  1  0  0  0
  3  5  2  0  0  0
  3  9  1  0  0  0
  4 10  2  0  0  0
  4 14  1  0  0  0
  5  6  1  0  0  0
  5 28  1  0  0  0
  6  7  2  0  0  0
  6 29  1  0  0  0
  7  8  1  0  0  0
  7 19  1  0  0  0
  8  9  2  0  0  0
  8 30  1  0  0  0
  9 31  1  0  0  0
 10 11  1  0  0  0
 10 32  1  0  0  0
 11 12  2  0  0  0
 11 25  1  0  0  0
 12 13  1  0  0  0
 12 26  1  0  0  0
 13 14  2  0  0  0
 13 33  1  0  0  0
 14 34  1  0  0  0
 15 16  2  0  0  0
 15 35  1  0  0  0
 16 17  1  0  0  0
 16 23  1  0  0  0
 17 18  2  0  0  0
 17 24  1  0  0  0
 18 36  1  0  0  0
 19 20  2  0  0  0
 19 21  2  0  0  0
 19 22  1  0  0  0
 22 37  1  0  0  0
 22 38  1  0  0  0
 22 39  1  0  0  0
 25 40  1  0  0  0
 25 41  1  0  0  0
 25 42  1  0  0  0
 26 27  1  0  0  0
 27 43  1  0  0  0
 27 44  1  0  0  0
 27 45  1  0  0  0
M  END
>  <Name>
7-20g

>  <Family>
D.1

>  <IC50_uM>
0.013000

>  <set>
1

$$$$
7-20h
  Cerius2 12120216093D 1   1.00000                          
 Structure written by MMmdl.
 46 48  0  0  0  0  0  0  0  0999 V2000
   26.5059   22.0537   16.4728 C   0  0  0  0  0  0
   25.6050   21.4677   17.4029 C   0  0  0  0  0  0
   24.1593   21.3943   17.1453 C   0  0  0  0  0  0
   26.0470   22.6552   15.2075 C   0  0  0  0  0  0
   23.5324   22.2956   16.2683 C   0  0  0  0  0  0
   22.1543   22.2273   16.0400 C   0  0  0  0  0  0
   21.3937   21.2511   16.6886 C   0  0  0  0  0  0
   22.0024   20.3405   17.5535 C   0  0  0  0  0  0
   23.3777   20.4166   17.7802 C   0  0  0  0  0  0
   26.2700   24.0140   14.9327 C   0  0  0  0  0  0
   25.8235   24.5824   13.7340 C   0  0  0  0  0  0
   25.1798   23.7873   12.7682 C   0  0  0  0  0  0
   24.9645   22.4331   13.0322 C   0  0  0  0  0  0
   25.3878   21.8765   14.2437 C   0  0  0  0  0  0
   26.1083   20.9093   18.5972 C   0  0  0  0  0  0
   27.4716   20.9322   18.8628 C   0  0  0  0  0  0
   28.3507   21.5082   17.9572 C   0  0  0  0  0  0
   27.8799   22.0592   16.7702 C   0  0  0  0  0  0
   19.6300   21.2314   16.4797 S   0  0  0  0  0  0
   19.2358   22.5526   15.9980 O   0  0  0  0  0  0
   19.0296   20.7373   17.7151 O   0  0  0  0  0  0
   19.3432   20.0369   15.2011 C   0  0  0  0  0  0
   27.9368   20.3858   19.9965 F   0  0  0  0  0  0
   29.6636   21.5384   18.2250 F   0  0  0  0  0  0
   24.7988   24.4293   11.6163 O   0  0  0  0  0  0
   25.1011   25.8205   11.5177 C   0  0  0  0  0  0
   26.0173   25.9074   13.4223 O   0  0  0  0  0  0
   26.6756   26.6689   14.4386 C   0  0  0  0  0  0
   24.1190   23.0596   15.7580 H   0  0  0  0  0  0
   21.6886   22.9476   15.3688 H   0  0  0  0  0  0
   21.4211   19.5772   18.0659 H   0  0  0  0  0  0
   23.8419   19.7050   18.4656 H   0  0  0  0  0  0
   26.8043   24.6173   15.6630 H   0  0  0  0  0  0
   24.4652   21.7781   12.3213 H   0  0  0  0  0  0
   25.1973   20.8213   14.4283 H   0  0  0  0  0  0
   25.4425   20.4431   19.3173 H   0  0  0  0  0  0
   28.5949   22.4955   16.0763 H   0  0  0  0  0  0
   18.2622   19.9318   15.0857 H   0  0  0  0  0  0
   19.7702   19.0776   15.4997 H   0  0  0  0  0  0
   19.7866   20.3904   14.2675 H   0  0  0  0  0  0
   24.8286   26.1519   10.5100 H   0  0  0  0  0  0
   26.1735   26.0030   11.6477 H   0  0  0  0  0  0
   24.5091   26.4020   12.2332 H   0  0  0  0  0  0
   26.4479   27.7234   14.2503 H   0  0  0  0  0  0
   27.7611   26.5353   14.3728 H   0  0  0  0  0  0
   26.3082   26.4204   15.4425 H   0  0  0  0  0  0
  1  2  2  0  0  0
  1  4  1  0  0  0
  1 18  1  0  0  0
  2  3  1  0  0  0
  2 15  1  0  0  0
  3  5  2  0  0  0
  3  9  1  0  0  0
  4 10  2  0  0  0
  4 14  1  0  0  0
  5  6  1  0  0  0
  5 29  1  0  0  0
  6  7  2  0  0  0
  6 30  1  0  0  0
  7  8  1  0  0  0
  7 19  1  0  0  0
  8  9  2  0  0  0
  8 31  1  0  0  0
  9 32  1  0  0  0
 10 11  1  0  0  0
 10 33  1  0  0  0
 11 12  2  0  0  0
 11 27  1  0  0  0
 12 13  1  0  0  0
 12 25  1  0  0  0
 13 14  2  0  0  0
 13 34  1  0  0  0
 14 35  1  0  0  0
 15 16  2  0  0  0
 15 36  1  0  0  0
 16 17  1  0  0  0
 16 23  1  0  0  0
 17 18  2  0  0  0
 17 24  1  0  0  0
 18 37  1  0  0  0
 19 20  2  0  0  0
 19 21  2  0  0  0
 19 22  1  0  0  0
 22 38  1  0  0  0
 22 39  1  0  0  0
 22 40  1  0  0  0
 25 26  1  0  0  0
 26 41  1  0  0  0
 26 42  1  0  0  0
 26 43  1  0  0  0
 27 28  1  0  0  0
 28 44  1  0  0  0
 28 45  1  0  0  0
 28 46  1  0  0  0
M  END
>  <Name>
7-20h

>  <Family>
D.1

>  <IC50_uM>
0.340000

>  <set>
2

$$$$
7-20i
  Cerius2 12120216093D 1   1.00000                          
 Structure written by MMmdl.
 44 47  0  0  0  0  0  0  0  0999 V2000
   26.5039   22.0615   16.4732 C   0  0  0  0  0  0
   25.6052   21.4430   17.3880 C   0  0  0  0  0  0
   24.1496   21.3907   17.1569 C   0  0  0  0  0  0
   26.0540   22.6589   15.2026 C   0  0  0  0  0  0
   23.5266   22.2878   16.2725 C   0  0  0  0  0  0
   22.1458   22.2408   16.0453 C   0  0  0  0  0  0
   21.3712   21.2935   16.7142 C   0  0  0  0  0  0
   21.9716   20.3909   17.5986 C   0  0  0  0  0  0
   23.3513   20.4452   17.8208 C   0  0  0  0  0  0
   26.2746   24.0204   14.9342 C   0  0  0  0  0  0
   25.8536   24.5858   13.7289 C   0  0  0  0  0  0
   25.1829   23.8050   12.7845 C   0  0  0  0  0  0
   24.9727   22.4503   13.0269 C   0  0  0  0  0  0
   25.4082   21.8809   14.2267 C   0  0  0  0  0  0
   26.1196   20.8693   18.5686 C   0  0  0  0  0  0
   27.4815   20.9125   18.8419 C   0  0  0  0  0  0
   28.3543   21.5240   17.9572 C   0  0  0  0  0  0
   27.8796   22.0942   16.7823 C   0  0  0  0  0  0
   19.6122   21.1816   16.4757 S   0  0  0  0  0  0
   19.1674   22.4986   16.0322 O   0  0  0  0  0  0
   19.0547   20.6202   17.7039 O   0  0  0  0  0  0
   19.3194   20.0192   15.1737 C   0  0  0  0  0  0
   27.9470   20.3610   19.9720 F   0  0  0  0  0  0
   29.6667   21.5656   18.2287 F   0  0  0  0  0  0
   24.7132   24.3007   11.5966 O   0  0  0  0  0  0
   26.1259   25.9178   13.5468 O   0  0  0  0  0  0
   24.6789   25.7374   11.5981 C   0  0  0  0  0  0
   25.9647   26.3074   12.1732 C   0  0  0  0  0  0
   24.1186   23.0384   15.7498 H   0  0  0  0  0  0
   21.7113   22.9554   15.3526 H   0  0  0  0  0  0
   21.3749   19.6451   18.1205 H   0  0  0  0  0  0
   23.8026   19.7354   18.5129 H   0  0  0  0  0  0
   26.7803   24.6456   15.6687 H   0  0  0  0  0  0
   24.4621   21.8329   12.2917 H   0  0  0  0  0  0
   25.2335   20.8193   14.3994 H   0  0  0  0  0  0
   25.4577   20.3929   19.2880 H   0  0  0  0  0  0
   28.5909   22.5598   16.1036 H   0  0  0  0  0  0
   18.2389   19.8944   15.0698 H   0  0  0  0  0  0
   19.7716   19.0608   15.4351 H   0  0  0  0  0  0
   19.7259   20.4081   14.2383 H   0  0  0  0  0  0
   23.8034   26.0611   12.1737 H   0  0  0  0  0  0
   24.5487   26.0657   10.5622 H   0  0  0  0  0  0
   26.8424   25.9663   11.6115 H   0  0  0  0  0  0
   25.9433   27.4012   12.1431 H   0  0  0  0  0  0
  1  2  2  0  0  0
  1  4  1  0  0  0
  1 18  1  0  0  0
  2  3  1  0  0  0
  2 15  1  0  0  0
  3  5  2  0  0  0
  3  9  1  0  0  0
  4 10  2  0  0  0
  4 14  1  0  0  0
  5  6  1  0  0  0
  5 29  1  0  0  0
  6  7  2  0  0  0
  6 30  1  0  0  0
  7  8  1  0  0  0
  7 19  1  0  0  0
  8  9  2  0  0  0
  8 31  1  0  0  0
  9 32  1  0  0  0
 10 11  1  0  0  0
 10 33  1  0  0  0
 11 12  2  0  0  0
 11 26  1  0  0  0
 12 13  1  0  0  0
 12 25  1  0  0  0
 13 14  2  0  0  0
 13 34  1  0  0  0
 14 35  1  0  0  0
 15 16  2  0  0  0
 15 36  1  0  0  0
 16 17  1  0  0  0
 16 23  1  0  0  0
 17 18  2  0  0  0
 17 24  1  0  0  0
 18 37  1  0  0  0
 19 20  2  0  0  0
 19 21  2  0  0  0
 19 22  1  0  0  0
 22 38  1  0  0  0
 22 39  1  0  0  0
 22 40  1  0  0  0
 25 27  1  0  0  0
 26 28  1  0  0  0
 27 28  1  0  0  0
 27 41  1  0  0  0
 27 42  1  0  0  0
 28 43  1  0  0  0
 28 44  1  0  0  0
M  END
>  <Name>
7-20i

>  <Family>
D.1

>  <IC50_uM>
0.340000

>  <set>
2

$$$$
7-20j
  Cerius2 12120216093D 1   1.00000                          
 Structure written by MMmdl.
 41 44  0  0  0  0  0  0  0  0999 V2000
   26.5000   22.0804   16.4778 C   0  0  0  0  0  0
   25.6088   21.4226   17.3758 C   0  0  0  0  0  0
   24.1493   21.3675   17.1579 C   0  0  0  0  0  0
   26.0573   22.6762   15.1985 C   0  0  0  0  0  0
   23.5199   22.2790   16.2913 C   0  0  0  0  0  0
   22.1393   22.2370   16.0784 C   0  0  0  0  0  0
   21.3687   21.2870   16.7471 C   0  0  0  0  0  0
   21.9672   20.3754   17.6185 C   0  0  0  0  0  0
   23.3513   20.4200   17.8233 C   0  0  0  0  0  0
   26.2725   24.0418   14.9316 C   0  0  0  0  0  0
   25.8429   24.5521   13.7227 C   0  0  0  0  0  0
   25.2225   23.7667   12.7807 C   0  0  0  0  0  0
   24.9992   22.4246   12.9920 C   0  0  0  0  0  0
   25.4247   21.8809   14.2100 C   0  0  0  0  0  0
   26.1306   20.8333   18.5471 C   0  0  0  0  0  0
   27.4855   20.9130   18.8387 C   0  0  0  0  0  0
   28.3482   21.5741   17.9805 C   0  0  0  0  0  0
   27.8692   22.1506   16.8095 C   0  0  0  0  0  0
   19.6140   21.2216   16.4504 S   0  0  0  0  0  0
   19.2054   22.4943   15.8639 O   0  0  0  0  0  0
   18.9682   20.7822   17.6842 O   0  0  0  0  0  0
   19.4413   19.9495   15.2297 C   0  0  0  0  0  0
   27.9559   20.3492   19.9622 F   0  0  0  0  0  0
   29.6531   21.6585   18.2730 F   0  0  0  0  0  0
   24.8789   24.4637   11.6655 O   0  0  0  0  0  0
   25.9709   25.8443   13.3169 O   0  0  0  0  0  0
   25.3214   25.7944   12.0246 C   0  0  0  0  0  0
   24.1085   23.0344   15.7732 H   0  0  0  0  0  0
   21.6827   22.9507   15.3955 H   0  0  0  0  0  0
   21.3746   19.6300   18.1447 H   0  0  0  0  0  0
   23.8044   19.7013   18.5060 H   0  0  0  0  0  0
   26.7590   24.6880   15.6566 H   0  0  0  0  0  0
   24.5150   21.8076   12.2420 H   0  0  0  0  0  0
   25.2600   20.8195   14.3905 H   0  0  0  0  0  0
   25.4773   20.3227   19.2496 H   0  0  0  0  0  0
   28.5755   22.6478   16.1497 H   0  0  0  0  0  0
   18.3776   19.8295   15.0124 H   0  0  0  0  0  0
   19.8461   19.0178   15.6294 H   0  0  0  0  0  0
   19.9748   20.2536   14.3274 H   0  0  0  0  0  0
   24.4495   26.4581   12.0438 H   0  0  0  0  0  0
   26.0246   26.1489   11.2630 H   0  0  0  0  0  0
  1  2  2  0  0  0
  1  4  1  0  0  0
  1 18  1  0  0  0
  2  3  1  0  0  0
  2 15  1  0  0  0
  3  5  2  0  0  0
  3  9  1  0  0  0
  4 10  2  0  0  0
  4 14  1  0  0  0
  5  6  1  0  0  0
  5 28  1  0  0  0
  6  7  2  0  0  0
  6 29  1  0  0  0
  7  8  1  0  0  0
  7 19  1  0  0  0
  8  9  2  0  0  0
  8 30  1  0  0  0
  9 31  1  0  0  0
 10 11  1  0  0  0
 10 32  1  0  0  0
 11 12  2  0  0  0
 11 26  1  0  0  0
 12 13  1  0  0  0
 12 25  1  0  0  0
 13 14  2  0  0  0
 13 33  1  0  0  0
 14 34  1  0  0  0
 15 16  2  0  0  0
 15 35  1  0  0  0
 16 17  1  0  0  0
 16 23  1  0  0  0
 17 18  2  0  0  0
 17 24  1  0  0  0
 18 36  1  0  0  0
 19 20  2  0  0  0
 19 21  2  0  0  0
 19 22  1  0  0  0
 22 37  1  0  0  0
 22 38  1  0  0  0
 22 39  1  0  0  0
 25 27  1  0  0  0
 26 27  1  0  0  0
 27 40  1  0  0  0
 27 41  1  0  0  0
M  END
>  <Name>
7-20j

>  <Family>
D.1

>  <IC50_uM>
0.012000

>  <set>
1

$$$$
7-20k
  Cerius2 12120216093D 1   1.00000                          
 Structure written by MMmdl.
 41 43  0  0  0  0  0  0  0  0999 V2000
   26.5067   22.0395   16.4626 C   0  0  0  0  0  0
   25.6094   21.4595   17.4026 C   0  0  0  0  0  0
   24.1552   21.3995   17.1728 C   0  0  0  0  0  0
   26.0458   22.6516   15.2041 C   0  0  0  0  0  0
   23.5344   22.2949   16.2851 C   0  0  0  0  0  0
   22.1574   22.2353   16.0510 C   0  0  0  0  0  0
   21.3891   21.2716   16.7070 C   0  0  0  0  0  0
   21.9809   20.3856   17.6093 C   0  0  0  0  0  0
   23.3582   20.4522   17.8376 C   0  0  0  0  0  0
   26.2668   24.0115   14.9401 C   0  0  0  0  0  0
   25.8228   24.5926   13.7484 C   0  0  0  0  0  0
   25.1598   23.8219   12.7879 C   0  0  0  0  0  0
   24.9294   22.4667   13.0465 C   0  0  0  0  0  0
   25.3749   21.8867   14.2382 C   0  0  0  0  0  0
   26.1263   20.9131   18.5945 C   0  0  0  0  0  0
   27.4927   20.9348   18.8473 C   0  0  0  0  0  0
   28.3666   21.4944   17.9294 C   0  0  0  0  0  0
   27.8872   22.0429   16.7463 C   0  0  0  0  0  0
   19.6366   21.1913   16.4168 S   0  0  0  0  0  0
   19.2111   22.4757   15.8696 O   0  0  0  0  0  0
   19.0009   20.7136   17.6408 O   0  0  0  0  0  0
   19.4771   19.9495   15.1606 C   0  0  0  0  0  0
   27.9623   20.4070   19.9868 F   0  0  0  0  0  0
   29.6837   21.5122   18.1804 F   0  0  0  0  0  0
   24.6494   24.4524   11.5255 C   0  0  0  0  0  0
   24.1267   23.0433   15.7592 H   0  0  0  0  0  0
   21.7035   22.9362   15.3539 H   0  0  0  0  0  0
   21.3877   19.6387   18.1325 H   0  0  0  0  0  0
   23.8108   19.7522   18.5393 H   0  0  0  0  0  0
   26.7851   24.6338   15.6688 H   0  0  0  0  0  0
   26.0000   25.6540   13.5783 H   0  0  0  0  0  0
   24.3988   21.8498   12.3222 H   0  0  0  0  0  0
   25.1819   20.8288   14.4142 H   0  0  0  0  0  0
   25.4651   20.4604   19.3298 H   0  0  0  0  0  0
   28.5950   22.4825   16.0468 H   0  0  0  0  0  0
   18.4163   19.8391   14.9259 H   0  0  0  0  0  0
   19.8733   19.0056   15.5399 H   0  0  0  0  0  0
   20.0229   20.2713   14.2717 H   0  0  0  0  0  0
   24.6494   23.7316   10.7010 H   0  0  0  0  0  0
   25.2846   25.2916   11.2234 H   0  0  0  0  0  0
   23.6288   24.8171   11.6769 H   0  0  0  0  0  0
  1  2  2  0  0  0
  1  4  1  0  0  0
  1 18  1  0  0  0
  2  3  1  0  0  0
  2 15  1  0  0  0
  3  5  2  0  0  0
  3  9  1  0  0  0
  4 10  2  0  0  0
  4 14  1  0  0  0
  5  6  1  0  0  0
  5 26  1  0  0  0
  6  7  2  0  0  0
  6 27  1  0  0  0
  7  8  1  0  0  0
  7 19  1  0  0  0
  8  9  2  0  0  0
  8 28  1  0  0  0
  9 29  1  0  0  0
 10 11  1  0  0  0
 10 30  1  0  0  0
 11 12  2  0  0  0
 11 31  1  0  0  0
 12 13  1  0  0  0
 12 25  1  0  0  0
 13 14  2  0  0  0
 13 32  1  0  0  0
 14 33  1  0  0  0
 15 16  2  0  0  0
 15 34  1  0  0  0
 16 17  1  0  0  0
 16 23  1  0  0  0
 17 18  2  0  0  0
 17 24  1  0  0  0
 18 35  1  0  0  0
 19 20  2  0  0  0
 19 21  2  0  0  0
 19 22  1  0  0  0
 22 36  1  0  0  0
 22 37  1  0  0  0
 22 38  1  0  0  0
 25 39  1  0  0  0
 25 40  1  0  0  0
 25 41  1  0  0  0
M  END
>  <Name>
7-20k

>  <Family>
D.1

>  <IC50_uM>
0.007000

>  <set>
0

$$$$
7-20l
  Cerius2 12120216093D 1   1.00000                          
 Structure written by MMmdl.
 41 43  0  0  0  0  0  0  0  0999 V2000
   26.5080   22.0378   16.4619 C   0  0  0  0  0  0
   25.6100   21.4614   17.4050 C   0  0  0  0  0  0
   24.1544   21.4046   17.1782 C   0  0  0  0  0  0
   26.0475   22.6522   15.2026 C   0  0  0  0  0  0
   23.5343   22.2946   16.2844 C   0  0  0  0  0  0
   22.1581   22.2317   16.0469 C   0  0  0  0  0  0
   21.3889   21.2711   16.7059 C   0  0  0  0  0  0
   21.9792   20.3914   17.6152 C   0  0  0  0  0  0
   23.3560   20.4606   17.8466 C   0  0  0  0  0  0
   26.2733   24.0110   14.9355 C   0  0  0  0  0  0
   25.8200   24.5951   13.7480 C   0  0  0  0  0  0
   25.1376   23.8323   12.7897 C   0  0  0  0  0  0
   24.9221   22.4718   13.0489 C   0  0  0  0  0  0
   25.3719   21.8908   14.2384 C   0  0  0  0  0  0
   26.1273   20.9132   18.5961 C   0  0  0  0  0  0
   27.4942   20.9272   18.8455 C   0  0  0  0  0  0
   28.3688   21.4817   17.9254 C   0  0  0  0  0  0
   27.8894   22.0331   16.7434 C   0  0  0  0  0  0
   19.6375   21.1864   16.4109 S   0  0  0  0  0  0
   19.2118   22.4668   15.8543 O   0  0  0  0  0  0
   18.9985   20.7149   17.6354 O   0  0  0  0  0  0
   19.4849   19.9372   15.1613 C   0  0  0  0  0  0
   27.9643   20.3971   19.9839 F   0  0  0  0  0  0
   29.6866   21.4915   18.1730 F   0  0  0  0  0  0
   24.6380   24.4277   11.5034 C   0  0  0  0  0  0
   26.1278   26.2793   13.5079 Cl  0  0  0  0  0  0
   24.1267   23.0399   15.7543 H   0  0  0  0  0  0
   21.7055   22.9276   15.3440 H   0  0  0  0  0  0
   21.3856   19.6473   18.1419 H   0  0  0  0  0  0
   23.8069   19.7649   18.5538 H   0  0  0  0  0  0
   26.8049   24.6217   15.6635 H   0  0  0  0  0  0
   24.3970   21.8479   12.3263 H   0  0  0  0  0  0
   25.1793   20.8320   14.4115 H   0  0  0  0  0  0
   25.4653   20.4639   19.3330 H   0  0  0  0  0  0
   28.5994   22.4690   16.0442 H   0  0  0  0  0  0
   18.4257   19.8290   14.9183 H   0  0  0  0  0  0
   19.8750   18.9947   15.5503 H   0  0  0  0  0  0
   20.0392   20.2510   14.2748 H   0  0  0  0  0  0
   24.1197   23.6821   10.8909 H   0  0  0  0  0  0
   25.4742   24.8144   10.9122 H   0  0  0  0  0  0
   23.9270   25.2349   11.7068 H   0  0  0  0  0  0
  1  2  2  0  0  0
  1  4  1  0  0  0
  1 18  1  0  0  0
  2  3  1  0  0  0
  2 15  1  0  0  0
  3  5  2  0  0  0
  3  9  1  0  0  0
  4 10  2  0  0  0
  4 14  1  0  0  0
  5  6  1  0  0  0
  5 27  1  0  0  0
  6  7  2  0  0  0
  6 28  1  0  0  0
  7  8  1  0  0  0
  7 19  1  0  0  0
  8  9  2  0  0  0
  8 29  1  0  0  0
  9 30  1  0  0  0
 10 11  1  0  0  0
 10 31  1  0  0  0
 11 12  2  0  0  0
 11 26  1  0  0  0
 12 13  1  0  0  0
 12 25  1  0  0  0
 13 14  2  0  0  0
 13 32  1  0  0  0
 14 33  1  0  0  0
 15 16  2  0  0  0
 15 34  1  0  0  0
 16 17  1  0  0  0
 16 23  1  0  0  0
 17 18  2  0  0  0
 17 24  1  0  0  0
 18 35  1  0  0  0
 19 20  2  0  0  0
 19 21  2  0  0  0
 19 22  1  0  0  0
 22 36  1  0  0  0
 22 37  1  0  0  0
 22 38  1  0  0  0
 25 39  1  0  0  0
 25 40  1  0  0  0
 25 41  1  0  0  0
M  END
>  <Name>
7-20l

>  <Family>
D.1

>  <IC50_uM>
0.013000

>  <set>
0

$$$$
7-20m
  Cerius2 12120216093D 1   1.00000                          
 Structure written by MMmdl.
 44 46  0  0  0  0  0  0  0  0999 V2000
   26.5020   22.0606   16.4736 C   0  0  0  0  0  0
   25.6082   21.4421   17.3915 C   0  0  0  0  0  0
   24.1542   21.3848   17.1612 C   0  0  0  0  0  0
   26.0457   22.6534   15.2050 C   0  0  0  0  0  0
   23.5295   22.2867   16.2835 C   0  0  0  0  0  0
   22.1508   22.2333   16.0614 C   0  0  0  0  0  0
   21.3836   21.2684   16.7181 C   0  0  0  0  0  0
   21.9803   20.3731   17.6073 C   0  0  0  0  0  0
   23.3601   20.4342   17.8248 C   0  0  0  0  0  0
   26.2654   24.0116   14.9262 C   0  0  0  0  0  0
   25.8369   24.5936   13.7196 C   0  0  0  0  0  0
   25.1746   23.7969   12.7660 C   0  0  0  0  0  0
   24.9611   22.4385   13.0398 C   0  0  0  0  0  0
   25.3924   21.8745   14.2425 C   0  0  0  0  0  0
   26.1258   20.8715   18.5715 C   0  0  0  0  0  0
   27.4884   20.9186   18.8402 C   0  0  0  0  0  0
   28.3577   21.5285   17.9502 C   0  0  0  0  0  0
   27.8779   22.0967   16.7765 C   0  0  0  0  0  0
   19.6291   21.2140   16.4366 S   0  0  0  0  0  0
   19.2272   22.5126   15.9053 O   0  0  0  0  0  0
   18.9870   20.7328   17.6559 O   0  0  0  0  0  0
   19.4397   19.9842   15.1732 C   0  0  0  0  0  0
   27.9589   20.3713   19.9702 F   0  0  0  0  0  0
   29.6713   21.5705   18.2165 F   0  0  0  0  0  0
   24.6915   24.3706   11.4612 C   0  0  0  0  0  0
   26.0903   26.0576   13.4789 C   0  0  0  0  0  0
   24.1186   23.0414   15.7632 H   0  0  0  0  0  0
   21.6909   22.9428   15.3764 H   0  0  0  0  0  0
   21.3909   19.6241   18.1312 H   0  0  0  0  0  0
   23.8171   19.7252   18.5148 H   0  0  0  0  0  0
   26.7734   24.6289   15.6681 H   0  0  0  0  0  0
   24.4537   21.8023   12.3149 H   0  0  0  0  0  0
   25.2127   20.8155   14.4237 H   0  0  0  0  0  0
   25.4660   20.3931   19.2917 H   0  0  0  0  0  0
   28.5838   22.5616   16.0919 H   0  0  0  0  0  0
   18.3742   19.8817   14.9571 H   0  0  0  0  0  0
   19.8370   19.0353   15.5388 H   0  0  0  0  0  0
   19.9701   20.3081   14.2759 H   0  0  0  0  0  0
   24.2039   23.6092   10.8431 H   0  0  0  0  0  0
   25.5330   24.7709   10.8872 H   0  0  0  0  0  0
   23.9609   25.1653   11.6428 H   0  0  0  0  0  0
   26.6924   26.1963   12.5754 H   0  0  0  0  0  0
   26.6380   26.5136   14.3107 H   0  0  0  0  0  0
   25.1424   26.5945   13.3734 H   0  0  0  0  0  0
  1  2  2  0  0  0
  1  4  1  0  0  0
  1 18  1  0  0  0
  2  3  1  0  0  0
  2 15  1  0  0  0
  3  5  2  0  0  0
  3  9  1  0  0  0
  4 10  2  0  0  0
  4 14  1  0  0  0
  5  6  1  0  0  0
  5 27  1  0  0  0
  6  7  2  0  0  0
  6 28  1  0  0  0
  7  8  1  0  0  0
  7 19  1  0  0  0
  8  9  2  0  0  0
  8 29  1  0  0  0
  9 30  1  0  0  0
 10 11  1  0  0  0
 10 31  1  0  0  0
 11 12  2  0  0  0
 11 26  1  0  0  0
 12 13  1  0  0  0
 12 25  1  0  0  0
 13 14  2  0  0  0
 13 32  1  0  0  0
 14 33  1  0  0  0
 15 16  2  0  0  0
 15 34  1  0  0  0
 16 17  1  0  0  0
 16 23  1  0  0  0
 17 18  2  0  0  0
 17 24  1  0  0  0
 18 35  1  0  0  0
 19 20  2  0  0  0
 19 21  2  0  0  0
 19 22  1  0  0  0
 22 36  1  0  0  0
 22 37  1  0  0  0
 22 38  1  0  0  0
 25 39  1  0  0  0
 25 40  1  0  0  0
 25 41  1  0  0  0
 26 42  1  0  0  0
 26 43  1  0  0  0
 26 44  1  0  0  0
M  END
>  <Name>
7-20m

>  <Family>
D.1

>  <IC50_uM>
0.023000

>  <set>
0

$$$$
7-20n
  Cerius2 12120216093D 1   1.00000                          
 Structure written by MMmdl.
 41 43  0  0  0  0  0  0  0  0999 V2000
   26.5040   22.0587   16.4718 C   0  0  0  0  0  0
   25.6078   21.4428   17.3911 C   0  0  0  0  0  0
   24.1505   21.3911   17.1656 C   0  0  0  0  0  0
   26.0514   22.6529   15.2008 C   0  0  0  0  0  0
   23.5232   22.2858   16.2814 C   0  0  0  0  0  0
   22.1444   22.2297   16.0587 C   0  0  0  0  0  0
   21.3752   21.2816   16.7360 C   0  0  0  0  0  0
   21.9751   20.3834   17.6203 C   0  0  0  0  0  0
   23.3554   20.4446   17.8350 C   0  0  0  0  0  0
   26.2778   24.0125   14.9241 C   0  0  0  0  0  0
   25.8459   24.6009   13.7217 C   0  0  0  0  0  0
   25.1832   23.7993   12.7816 C   0  0  0  0  0  0
   24.9589   22.4457   13.0383 C   0  0  0  0  0  0
   25.3916   21.8769   14.2378 C   0  0  0  0  0  0
   26.1273   20.8700   18.5702 C   0  0  0  0  0  0
   27.4904   20.9133   18.8376 C   0  0  0  0  0  0
   28.3603   21.5218   17.9478 C   0  0  0  0  0  0
   27.8806   22.0910   16.7746 C   0  0  0  0  0  0
   19.6247   21.2003   16.4340 S   0  0  0  0  0  0
   19.2123   22.4552   15.8127 O   0  0  0  0  0  0
   18.9778   20.7962   17.6785 O   0  0  0  0  0  0
   19.4625   19.8952   15.2451 C   0  0  0  0  0  0
   27.9611   20.3635   19.9665 F   0  0  0  0  0  0
   29.6741   21.5606   18.2131 F   0  0  0  0  0  0
   24.6230   24.4421   11.2788 Cl  0  0  0  0  0  0
   26.1047   26.0618   13.4819 C   0  0  0  0  0  0
   24.1104   23.0357   15.7522 H   0  0  0  0  0  0
   21.6863   22.9274   15.3611 H   0  0  0  0  0  0
   21.3863   19.6356   18.1470 H   0  0  0  0  0  0
   23.8122   19.7356   18.5255 H   0  0  0  0  0  0
   26.7908   24.6261   15.6663 H   0  0  0  0  0  0
   24.4456   21.8225   12.3091 H   0  0  0  0  0  0
   25.2061   20.8186   14.4168 H   0  0  0  0  0  0
   25.4680   20.3935   19.2924 H   0  0  0  0  0  0
   28.5885   22.5527   16.0899 H   0  0  0  0  0  0
   18.4020   19.7811   15.0099 H   0  0  0  0  0  0
   19.8480   18.9694   15.6763 H   0  0  0  0  0  0
   20.0164   20.1650   14.3441 H   0  0  0  0  0  0
   26.7435   26.1963   12.6033 H   0  0  0  0  0  0
   26.6151   26.5238   14.3335 H   0  0  0  0  0  0
   25.1618   26.5982   13.3363 H   0  0  0  0  0  0
  1  2  2  0  0  0
  1  4  1  0  0  0
  1 18  1  0  0  0
  2  3  1  0  0  0
  2 15  1  0  0  0
  3  5  2  0  0  0
  3  9  1  0  0  0
  4 10  2  0  0  0
  4 14  1  0  0  0
  5  6  1  0  0  0
  5 27  1  0  0  0
  6  7  2  0  0  0
  6 28  1  0  0  0
  7  8  1  0  0  0
  7 19  1  0  0  0
  8  9  2  0  0  0
  8 29  1  0  0  0
  9 30  1  0  0  0
 10 11  1  0  0  0
 10 31  1  0  0  0
 11 12  2  0  0  0
 11 26  1  0  0  0
 12 13  1  0  0  0
 12 25  1  0  0  0
 13 14  2  0  0  0
 13 32  1  0  0  0
 14 33  1  0  0  0
 15 16  2  0  0  0
 15 34  1  0  0  0
 16 17  1  0  0  0
 16 23  1  0  0  0
 17 18  2  0  0  0
 17 24  1  0  0  0
 18 35  1  0  0  0
 19 20  2  0  0  0
 19 21  2  0  0  0
 19 22  1  0  0  0
 22 36  1  0  0  0
 22 37  1  0  0  0
 22 38  1  0  0  0
 26 39  1  0  0  0
 26 40  1  0  0  0
 26 41  1  0  0  0
M  END
>  <Name>
7-20n

>  <Family>
D.1

>  <IC50_uM>
0.006000

>  <set>
0

$$$$
7-20o
  Cerius2 12120216093D 1   1.00000                          
 Structure written by MMmdl.
 46 48  0  0  0  0  0  0  0  0999 V2000
   26.5128   22.0320   16.4607 C   0  0  0  0  0  0
   25.6086   21.4702   17.4064 C   0  0  0  0  0  0
   24.1563   21.4067   17.1670 C   0  0  0  0  0  0
   26.0520   22.6444   15.2015 C   0  0  0  0  0  0
   23.5330   22.3006   16.2795 C   0  0  0  0  0  0
   22.1565   22.2358   16.0450 C   0  0  0  0  0  0
   21.3914   21.2700   16.7014 C   0  0  0  0  0  0
   21.9868   20.3828   17.6003 C   0  0  0  0  0  0
   23.3639   20.4522   17.8273 C   0  0  0  0  0  0
   26.2914   23.9963   14.9291 C   0  0  0  0  0  0
   25.8210   24.5960   13.7493 C   0  0  0  0  0  0
   25.0861   23.8650   12.7867 C   0  0  0  0  0  0
   24.8950   22.4977   13.0631 C   0  0  0  0  0  0
   25.3632   21.8982   14.2421 C   0  0  0  0  0  0
   26.1159   20.9325   18.6062 C   0  0  0  0  0  0
   27.4816   20.9393   18.8595 C   0  0  0  0  0  0
   28.3634   21.4748   17.9345 C   0  0  0  0  0  0
   27.8928   22.0167   16.7441 C   0  0  0  0  0  0
   19.6376   21.1822   16.4241 S   0  0  0  0  0  0
   19.1992   22.4646   15.8810 O   0  0  0  0  0  0
   19.0172   20.6991   17.6531 O   0  0  0  0  0  0
   19.4746   19.9445   15.1647 C   0  0  0  0  0  0
   27.9437   20.4174   20.0050 F   0  0  0  0  0  0
   29.6804   21.4753   18.1861 F   0  0  0  0  0  0
   26.2751   26.2556   13.5159 Cl  0  0  0  0  0  0
   24.5562   24.4170   11.6231 N   0  0  0  0  0  0
   25.4059   24.6956   10.4673 C   0  0  0  0  0  0
   23.1133   24.3741   11.3868 C   0  0  0  0  0  0
   24.1227   23.0510   15.7541 H   0  0  0  0  0  0
   21.7000   22.9363   15.3492 H   0  0  0  0  0  0
   21.3953   19.6348   18.1240 H   0  0  0  0  0  0
   23.8193   19.7518   18.5271 H   0  0  0  0  0  0
   26.8560   24.5933   15.6435 H   0  0  0  0  0  0
   24.3376   21.8663   12.3726 H   0  0  0  0  0  0
   25.1613   20.8404   14.4081 H   0  0  0  0  0  0
   25.4467   20.4962   19.3439 H   0  0  0  0  0  0
   28.6085   22.4368   16.0415 H   0  0  0  0  0  0
   18.4133   19.8392   14.9293 H   0  0  0  0  0  0
   19.8657   18.9973   15.5411 H   0  0  0  0  0  0
   20.0225   20.2654   14.2767 H   0  0  0  0  0  0
   24.9256   25.4305    9.8115 H   0  0  0  0  0  0
   25.5801   23.7857    9.8838 H   0  0  0  0  0  0
   26.3689   25.1193   10.7732 H   0  0  0  0  0  0
   22.9039   24.1080   10.3443 H   0  0  0  0  0  0
   22.6676   25.3563   11.5710 H   0  0  0  0  0  0
   22.6117   23.6234   12.0078 H   0  0  0  0  0  0
  1  2  2  0  0  0
  1  4  1  0  0  0
  1 18  1  0  0  0
  2  3  1  0  0  0
  2 15  1  0  0  0
  3  5  2  0  0  0
  3  9  1  0  0  0
  4 10  2  0  0  0
  4 14  1  0  0  0
  5  6  1  0  0  0
  5 29  1  0  0  0
  6  7  2  0  0  0
  6 30  1  0  0  0
  7  8  1  0  0  0
  7 19  1  0  0  0
  8  9  2  0  0  0
  8 31  1  0  0  0
  9 32  1  0  0  0
 10 11  1  0  0  0
 10 33  1  0  0  0
 11 12  2  0  0  0
 11 25  1  0  0  0
 12 13  1  0  0  0
 12 26  1  0  0  0
 13 14  2  0  0  0
 13 34  1  0  0  0
 14 35  1  0  0  0
 15 16  2  0  0  0
 15 36  1  0  0  0
 16 17  1  0  0  0
 16 23  1  0  0  0
 17 18  2  0  0  0
 17 24  1  0  0  0
 18 37  1  0  0  0
 19 20  2  0  0  0
 19 21  2  0  0  0
 19 22  1  0  0  0
 22 38  1  0  0  0
 22 39  1  0  0  0
 22 40  1  0  0  0
 26 27  1  0  0  0
 26 28  1  0  0  0
 27 41  1  0  0  0
 27 42  1  0  0  0
 27 43  1  0  0  0
 28 44  1  0  0  0
 28 45  1  0  0  0
 28 46  1  0  0  0
M  END
>  <Name>
7-20o

>  <Family>
D.1

>  <IC50_uM>
0.008000

>  <set>
2

$$$$
7-21a
  Cerius2 12120216093D 1   1.00000                          
 Structure written by MMmdl.
 37 39  0  0  0  0  0  0  0  0999 V2000
   26.5025   22.0633   16.4733 C   0  0  0  0  0  0
   25.6058   21.4447   17.3888 C   0  0  0  0  0  0
   24.1511   21.3849   17.1563 C   0  0  0  0  0  0
   26.0524   22.6580   15.2022 C   0  0  0  0  0  0
   23.5219   22.2861   16.2806 C   0  0  0  0  0  0
   22.1422   22.2286   16.0612 C   0  0  0  0  0  0
   21.3772   21.2623   16.7194 C   0  0  0  0  0  0
   21.9793   20.3646   17.6022 C   0  0  0  0  0  0
   23.3599   20.4294   17.8173 C   0  0  0  0  0  0
   26.2732   24.0194   14.9292 C   0  0  0  0  0  0
   25.8446   24.5853   13.7259 C   0  0  0  0  0  0
   25.1976   23.7915   12.7879 C   0  0  0  0  0  0
   24.9720   22.4425   13.0286 C   0  0  0  0  0  0
   25.4006   21.8769   14.2316 C   0  0  0  0  0  0
   26.1210   20.8754   18.5708 C   0  0  0  0  0  0
   27.4825   20.9237   18.8447 C   0  0  0  0  0  0
   28.3541   21.5329   17.9573 C   0  0  0  0  0  0
   27.8779   22.0990   16.7813 C   0  0  0  0  0  0
   19.6261   21.2169   16.4530 S   0  0  0  0  0  0
   19.2073   22.4813   15.8747 O   0  0  0  0  0  0
   18.9677   20.6916   17.6366 O   0  0  0  0  0  0
   19.4761   20.0478   15.2633 N   0  0  0  0  0  0
   27.9489   20.3787   19.9776 F   0  0  0  0  0  0
   29.6668   21.5762   18.2279 F   0  0  0  0  0  0
   24.7877   24.3338   11.6334 F   0  0  0  0  0  0
   24.1068   23.0444   15.7611 H   0  0  0  0  0  0
   21.6753   22.9350   15.3780 H   0  0  0  0  0  0
   21.3921   19.6132   18.1251 H   0  0  0  0  0  0
   23.8196   19.7195   18.5047 H   0  0  0  0  0  0
   26.7755   24.6519   15.6606 H   0  0  0  0  0  0
   26.0128   25.6389   13.5221 H   0  0  0  0  0  0
   24.4653   21.8349   12.2844 H   0  0  0  0  0  0
   25.2212   20.8172   14.4101 H   0  0  0  0  0  0
   25.4591   20.3977   19.2897 H   0  0  0  0  0  0
   28.5871   22.5616   16.0984 H   0  0  0  0  0  0
   19.0775   20.4415   14.4071 H   0  0  0  0  0  0
   18.9275   19.2507   15.5968 H   0  0  0  0  0  0
  1  2  2  0  0  0
  1  4  1  0  0  0
  1 18  1  0  0  0
  2  3  1  0  0  0
  2 15  1  0  0  0
  3  5  2  0  0  0
  3  9  1  0  0  0
  4 10  2  0  0  0
  4 14  1  0  0  0
  5  6  1  0  0  0
  5 26  1  0  0  0
  6  7  2  0  0  0
  6 27  1  0  0  0
  7  8  1  0  0  0
  7 19  1  0  0  0
  8  9  2  0  0  0
  8 28  1  0  0  0
  9 29  1  0  0  0
 10 11  1  0  0  0
 10 30  1  0  0  0
 11 12  2  0  0  0
 11 31  1  0  0  0
 12 13  1  0  0  0
 12 25  1  0  0  0
 13 14  2  0  0  0
 13 32  1  0  0  0
 14 33  1  0  0  0
 15 16  2  0  0  0
 15 34  1  0  0  0
 16 17  1  0  0  0
 16 23  1  0  0  0
 17 18  2  0  0  0
 17 24  1  0  0  0
 18 35  1  0  0  0
 19 20  2  0  0  0
 19 21  2  0  0  0
 19 22  1  0  0  0
 22 36  1  0  0  0
 22 37  1  0  0  0
M  END
>  <Name>
7-21a

>  <Family>
D.1

>  <IC50_uM>
0.004000

>  <set>
0

$$$$
7-21b
  Cerius2 12120216093D 1   1.00000                          
 Structure written by MMmdl.
 37 39  0  0  0  0  0  0  0  0999 V2000
   26.5064   22.0570   16.4722 C   0  0  0  0  0  0
   25.6124   21.4483   17.3952 C   0  0  0  0  0  0
   24.1594   21.3932   17.1619 C   0  0  0  0  0  0
   26.0425   22.6531   15.2092 C   0  0  0  0  0  0
   23.5388   22.2901   16.2764 C   0  0  0  0  0  0
   22.1609   22.2330   16.0492 C   0  0  0  0  0  0
   21.3907   21.2714   16.7084 C   0  0  0  0  0  0
   21.9860   20.3774   17.6000 C   0  0  0  0  0  0
   23.3648   20.4415   17.8235 C   0  0  0  0  0  0
   26.2635   24.0141   14.9366 C   0  0  0  0  0  0
   25.8084   24.5771   13.7433 C   0  0  0  0  0  0
   25.1385   23.7876   12.8117 C   0  0  0  0  0  0
   24.9182   22.4376   13.0584 C   0  0  0  0  0  0
   25.3696   21.8723   14.2529 C   0  0  0  0  0  0
   26.1296   20.8822   18.5767 C   0  0  0  0  0  0
   27.4939   20.9216   18.8387 C   0  0  0  0  0  0
   28.3645   21.5175   17.9400 C   0  0  0  0  0  0
   27.8840   22.0833   16.7654 C   0  0  0  0  0  0
   19.6439   21.2208   16.4205 S   0  0  0  0  0  0
   19.2287   22.4864   15.8435 O   0  0  0  0  0  0
   18.9729   20.6867   17.5930 O   0  0  0  0  0  0
   19.5132   20.0557   15.2234 N   0  0  0  0  0  0
   27.9656   20.3795   19.9705 F   0  0  0  0  0  0
   29.6796   21.5505   18.2003 F   0  0  0  0  0  0
   24.6951   24.3155   11.6600 F   0  0  0  0  0  0
   26.0810   26.2505   13.4350 Cl  0  0  0  0  0  0
   24.1289   23.0424   15.7542 H   0  0  0  0  0  0
   21.6984   22.9344   15.3580 H   0  0  0  0  0  0
   21.3946   19.6286   18.1220 H   0  0  0  0  0  0
   23.8208   19.7343   18.5159 H   0  0  0  0  0  0
   26.7829   24.6353   15.6638 H   0  0  0  0  0  0
   24.3963   21.8303   12.3246 H   0  0  0  0  0  0
   25.1893   20.8139   14.4383 H   0  0  0  0  0  0
   25.4688   20.4124   19.3015 H   0  0  0  0  0  0
   28.5901   22.5395   16.0754 H   0  0  0  0  0  0
   19.1266   20.4530   14.3634 H   0  0  0  0  0  0
   18.9612   19.2573   15.5466 H   0  0  0  0  0  0
  1  2  2  0  0  0
  1  4  1  0  0  0
  1 18  1  0  0  0
  2  3  1  0  0  0
  2 15  1  0  0  0
  3  5  2  0  0  0
  3  9  1  0  0  0
  4 10  2  0  0  0
  4 14  1  0  0  0
  5  6  1  0  0  0
  5 27  1  0  0  0
  6  7  2  0  0  0
  6 28  1  0  0  0
  7  8  1  0  0  0
  7 19  1  0  0  0
  8  9  2  0  0  0
  8 29  1  0  0  0
  9 30  1  0  0  0
 10 11  1  0  0  0
 10 31  1  0  0  0
 11 12  2  0  0  0
 11 26  1  0  0  0
 12 13  1  0  0  0
 12 25  1  0  0  0
 13 14  2  0  0  0
 13 32  1  0  0  0
 14 33  1  0  0  0
 15 16  2  0  0  0
 15 34  1  0  0  0
 16 17  1  0  0  0
 16 23  1  0  0  0
 17 18  2  0  0  0
 17 24  1  0  0  0
 18 35  1  0  0  0
 19 20  2  0  0  0
 19 21  2  0  0  0
 19 22  1  0  0  0
 22 36  1  0  0  0
 22 37  1  0  0  0
M  END
>  <Name>
7-21b

>  <Family>
D.1

>  <IC50_uM>
0.002000

>  <set>
0

$$$$
7-21c
  Cerius2 12120216093D 1   1.00000                          
 Structure written by MMmdl.
 40 42  0  0  0  0  0  0  0  0999 V2000
   26.5030   22.0588   16.4710 C   0  0  0  0  0  0
   25.6065   21.4427   17.3891 C   0  0  0  0  0  0
   24.1513   21.3851   17.1594 C   0  0  0  0  0  0
   26.0511   22.6537   15.2001 C   0  0  0  0  0  0
   23.5234   22.2860   16.2825 C   0  0  0  0  0  0
   22.1435   22.2325   16.0662 C   0  0  0  0  0  0
   21.3749   21.2786   16.7374 C   0  0  0  0  0  0
   21.9776   20.3741   17.6130 C   0  0  0  0  0  0
   23.3589   20.4330   17.8237 C   0  0  0  0  0  0
   26.2728   24.0163   14.9284 C   0  0  0  0  0  0
   25.8465   24.5961   13.7243 C   0  0  0  0  0  0
   25.1767   23.7963   12.7971 C   0  0  0  0  0  0
   24.9537   22.4456   13.0379 C   0  0  0  0  0  0
   25.3934   21.8751   14.2334 C   0  0  0  0  0  0
   26.1219   20.8765   18.5730 C   0  0  0  0  0  0
   27.4835   20.9244   18.8451 C   0  0  0  0  0  0
   28.3549   21.5303   17.9550 C   0  0  0  0  0  0
   27.8782   22.0954   16.7784 C   0  0  0  0  0  0
   19.6304   21.2075   16.4389 S   0  0  0  0  0  0
   19.1703   22.4909   15.9377 O   0  0  0  0  0  0
   18.9830   20.5863   17.5804 O   0  0  0  0  0  0
   19.5350   20.1288   15.1607 N   0  0  0  0  0  0
   27.9505   20.3820   19.9789 F   0  0  0  0  0  0
   29.6680   21.5719   18.2236 F   0  0  0  0  0  0
   24.7356   24.3304   11.6490 F   0  0  0  0  0  0
   26.0508   26.0576   13.4641 C   0  0  0  0  0  0
   24.1096   23.0409   15.7598 H   0  0  0  0  0  0
   21.6782   22.9390   15.3822 H   0  0  0  0  0  0
   21.3894   19.6244   18.1374 H   0  0  0  0  0  0
   23.8181   19.7211   18.5093 H   0  0  0  0  0  0
   26.7762   24.6356   15.6713 H   0  0  0  0  0  0
   24.4358   21.8416   12.2983 H   0  0  0  0  0  0
   25.2138   20.8155   14.4105 H   0  0  0  0  0  0
   25.4599   20.4030   19.2946 H   0  0  0  0  0  0
   28.5867   22.5587   16.0956 H   0  0  0  0  0  0
   19.1482   20.5770   14.3260 H   0  0  0  0  0  0
   19.0011   19.2951   15.4197 H   0  0  0  0  0  0
   26.2892   26.2345   12.4100 H   0  0  0  0  0  0
   26.8853   26.4502   14.0544 H   0  0  0  0  0  0
   25.1457   26.6151   13.7241 H   0  0  0  0  0  0
  1  2  2  0  0  0
  1  4  1  0  0  0
  1 18  1  0  0  0
  2  3  1  0  0  0
  2 15  1  0  0  0
  3  5  2  0  0  0
  3  9  1  0  0  0
  4 10  2  0  0  0
  4 14  1  0  0  0
  5  6  1  0  0  0
  5 27  1  0  0  0
  6  7  2  0  0  0
  6 28  1  0  0  0
  7  8  1  0  0  0
  7 19  1  0  0  0
  8  9  2  0  0  0
  8 29  1  0  0  0
  9 30  1  0  0  0
 10 11  1  0  0  0
 10 31  1  0  0  0
 11 12  2  0  0  0
 11 26  1  0  0  0
 12 13  1  0  0  0
 12 25  1  0  0  0
 13 14  2  0  0  0
 13 32  1  0  0  0
 14 33  1  0  0  0
 15 16  2  0  0  0
 15 34  1  0  0  0
 16 17  1  0  0  0
 16 23  1  0  0  0
 17 18  2  0  0  0
 17 24  1  0  0  0
 18 35  1  0  0  0
 19 20  2  0  0  0
 19 21  2  0  0  0
 19 22  1  0  0  0
 22 36  1  0  0  0
 22 37  1  0  0  0
 26 38  1  0  0  0
 26 39  1  0  0  0
 26 40  1  0  0  0
M  END
>  <Name>
7-21c

>  <Family>
D.1

>  <IC50_uM>
0.002000

>  <set>
0

$$$$
7-21d
  Cerius2 12120216093D 1   1.00000                          
 Structure written by MMmdl.
 41 43  0  0  0  0  0  0  0  0999 V2000
   26.5049   22.0579   16.4732 C   0  0  0  0  0  0
   25.6134   21.4424   17.3960 C   0  0  0  0  0  0
   24.1592   21.3939   17.1688 C   0  0  0  0  0  0
   26.0409   22.6546   15.2091 C   0  0  0  0  0  0
   23.5419   22.2871   16.2772 C   0  0  0  0  0  0
   22.1648   22.2304   16.0459 C   0  0  0  0  0  0
   21.3917   21.2725   16.7072 C   0  0  0  0  0  0
   21.9829   20.3861   17.6093 C   0  0  0  0  0  0
   23.3610   20.4504   17.8374 C   0  0  0  0  0  0
   26.2579   24.0109   14.9318 C   0  0  0  0  0  0
   25.8058   24.5746   13.7371 C   0  0  0  0  0  0
   25.1326   23.8055   12.7851 C   0  0  0  0  0  0
   24.9213   22.4512   13.0542 C   0  0  0  0  0  0
   25.3717   21.8806   14.2495 C   0  0  0  0  0  0
   26.1324   20.8695   18.5735 C   0  0  0  0  0  0
   27.4964   20.9112   18.8358 C   0  0  0  0  0  0
   28.3641   21.5174   17.9412 C   0  0  0  0  0  0
   27.8819   22.0883   16.7695 C   0  0  0  0  0  0
   19.6453   21.2193   16.4149 S   0  0  0  0  0  0
   19.2290   22.4809   15.8286 O   0  0  0  0  0  0
   18.9717   20.6932   17.5891 O   0  0  0  0  0  0
   19.5212   20.0480   15.2237 N   0  0  0  0  0  0
   27.9703   20.3618   19.9634 F   0  0  0  0  0  0
   29.6792   21.5534   18.2017 F   0  0  0  0  0  0
   26.0425   25.8801   13.5416 F   0  0  0  0  0  0
   24.6359   24.2212   11.5794 O   0  0  0  0  0  0
   24.8177   25.5932   11.2392 C   0  0  0  0  0  0
   24.1358   23.0342   15.7516 H   0  0  0  0  0  0
   21.7072   22.9278   15.3475 H   0  0  0  0  0  0
   21.3890   19.6409   18.1335 H   0  0  0  0  0  0
   23.8138   19.7466   18.5353 H   0  0  0  0  0  0
   26.7735   24.6464   15.6482 H   0  0  0  0  0  0
   24.4001   21.8262   12.3310 H   0  0  0  0  0  0
   25.1910   20.8208   14.4275 H   0  0  0  0  0  0
   25.4731   20.3937   19.2957 H   0  0  0  0  0  0
   28.5874   22.5495   16.0821 H   0  0  0  0  0  0
   19.1337   20.4371   14.3604 H   0  0  0  0  0  0
   18.9754   19.2464   15.5501 H   0  0  0  0  0  0
   24.3682   25.7526   10.2542 H   0  0  0  0  0  0
   25.8809   25.8420   11.1627 H   0  0  0  0  0  0
   24.2997   26.2461   11.9490 H   0  0  0  0  0  0
  1  2  2  0  0  0
  1  4  1  0  0  0
  1 18  1  0  0  0
  2  3  1  0  0  0
  2 15  1  0  0  0
  3  5  2  0  0  0
  3  9  1  0  0  0
  4 10  2  0  0  0
  4 14  1  0  0  0
  5  6  1  0  0  0
  5 28  1  0  0  0
  6  7  2  0  0  0
  6 29  1  0  0  0
  7  8  1  0  0  0
  7 19  1  0  0  0
  8  9  2  0  0  0
  8 30  1  0  0  0
  9 31  1  0  0  0
 10 11  1  0  0  0
 10 32  1  0  0  0
 11 12  2  0  0  0
 11 25  1  0  0  0
 12 13  1  0  0  0
 12 26  1  0  0  0
 13 14  2  0  0  0
 13 33  1  0  0  0
 14 34  1  0  0  0
 15 16  2  0  0  0
 15 35  1  0  0  0
 16 17  1  0  0  0
 16 23  1  0  0  0
 17 18  2  0  0  0
 17 24  1  0  0  0
 18 36  1  0  0  0
 19 20  2  0  0  0
 19 21  2  0  0  0
 19 22  1  0  0  0
 22 37  1  0  0  0
 22 38  1  0  0  0
 26 27  1  0  0  0
 27 39  1  0  0  0
 27 40  1  0  0  0
 27 41  1  0  0  0
M  END
>  <Name>
7-21d

>  <Family>
D.1

>  <IC50_uM>
0.013000

>  <set>
2

$$$$
7-21e
  Cerius2 12120216093D 1   1.00000                          
 Structure written by MMmdl.
 41 43  0  0  0  0  0  0  0  0999 V2000
   26.5037   22.0631   16.4746 C   0  0  0  0  0  0
   25.6085   21.4410   17.3891 C   0  0  0  0  0  0
   24.1545   21.3819   17.1557 C   0  0  0  0  0  0
   26.0498   22.6570   15.2054 C   0  0  0  0  0  0
   23.5289   22.2865   16.2809 C   0  0  0  0  0  0
   22.1500   22.2319   16.0586 C   0  0  0  0  0  0
   21.3820   21.2656   16.7127 C   0  0  0  0  0  0
   21.9812   20.3651   17.5956 C   0  0  0  0  0  0
   23.3613   20.4260   17.8131 C   0  0  0  0  0  0
   26.2681   24.0135   14.9296 C   0  0  0  0  0  0
   25.8286   24.5752   13.7258 C   0  0  0  0  0  0
   25.1653   23.7960   12.7642 C   0  0  0  0  0  0
   24.9546   22.4417   13.0333 C   0  0  0  0  0  0
   25.3939   21.8806   14.2395 C   0  0  0  0  0  0
   26.1237   20.8720   18.5712 C   0  0  0  0  0  0
   27.4849   20.9254   18.8460 C   0  0  0  0  0  0
   28.3552   21.5388   17.9598 C   0  0  0  0  0  0
   27.8783   22.1046   16.7836 C   0  0  0  0  0  0
   19.6309   21.2251   16.4476 S   0  0  0  0  0  0
   19.2110   22.4939   15.8797 O   0  0  0  0  0  0
   18.9736   20.6923   17.6280 O   0  0  0  0  0  0
   19.4818   20.0667   15.2473 N   0  0  0  0  0  0
   27.9526   20.3810   19.9787 F   0  0  0  0  0  0
   29.6673   21.5873   18.2322 F   0  0  0  0  0  0
   26.1269   26.2607   13.4632 Cl  0  0  0  0  0  0
   24.7713   24.4317   11.6145 O   0  0  0  0  0  0
   24.0668   23.6563   10.6475 C   0  0  0  0  0  0
   24.1160   23.0456   15.7650 H   0  0  0  0  0  0
   21.6866   22.9410   15.3758 H   0  0  0  0  0  0
   21.3911   19.6136   18.1153 H   0  0  0  0  0  0
   23.8185   19.7135   18.4993 H   0  0  0  0  0  0
   26.7755   24.6388   15.6620 H   0  0  0  0  0  0
   24.4517   21.7845   12.3291 H   0  0  0  0  0  0
   25.2156   20.8203   14.4198 H   0  0  0  0  0  0
   25.4631   20.3917   19.2893 H   0  0  0  0  0  0
   28.5862   22.5722   16.1031 H   0  0  0  0  0  0
   19.0836   20.4675   14.3943 H   0  0  0  0  0  0
   18.9352   19.2660   15.5743 H   0  0  0  0  0  0
   23.8166   24.3162    9.8111 H   0  0  0  0  0  0
   23.1287   23.2701   11.0595 H   0  0  0  0  0  0
   24.6945   22.8484   10.2579 H   0  0  0  0  0  0
  1  2  2  0  0  0
  1  4  1  0  0  0
  1 18  1  0  0  0
  2  3  1  0  0  0
  2 15  1  0  0  0
  3  5  2  0  0  0
  3  9  1  0  0  0
  4 10  2  0  0  0
  4 14  1  0  0  0
  5  6  1  0  0  0
  5 28  1  0  0  0
  6  7  2  0  0  0
  6 29  1  0  0  0
  7  8  1  0  0  0
  7 19  1  0  0  0
  8  9  2  0  0  0
  8 30  1  0  0  0
  9 31  1  0  0  0
 10 11  1  0  0  0
 10 32  1  0  0  0
 11 12  2  0  0  0
 11 25  1  0  0  0
 12 13  1  0  0  0
 12 26  1  0  0  0
 13 14  2  0  0  0
 13 33  1  0  0  0
 14 34  1  0  0  0
 15 16  2  0  0  0
 15 35  1  0  0  0
 16 17  1  0  0  0
 16 23  1  0  0  0
 17 18  2  0  0  0
 17 24  1  0  0  0
 18 36  1  0  0  0
 19 20  2  0  0  0
 19 21  2  0  0  0
 19 22  1  0  0  0
 22 37  1  0  0  0
 22 38  1  0  0  0
 26 27  1  0  0  0
 27 39  1  0  0  0
 27 40  1  0  0  0
 27 41  1  0  0  0
M  END
>  <Name>
7-21e

>  <Family>
D.1

>  <IC50_uM>
0.013000

>  <set>
0

$$$$
7-21f
  Cerius2 12120216093D 1   1.00000                          
 Structure written by MMmdl.
 41 43  0  0  0  0  0  0  0  0999 V2000
   26.5103   22.0567   16.4733 C   0  0  0  0  0  0
   25.6172   21.4436   17.3967 C   0  0  0  0  0  0
   24.1620   21.3962   17.1677 C   0  0  0  0  0  0
   26.0419   22.6501   15.2092 C   0  0  0  0  0  0
   23.5453   22.2889   16.2745 C   0  0  0  0  0  0
   22.1689   22.2310   16.0391 C   0  0  0  0  0  0
   21.3947   21.2743   16.6999 C   0  0  0  0  0  0
   21.9841   20.3886   17.6037 C   0  0  0  0  0  0
   23.3620   20.4523   17.8341 C   0  0  0  0  0  0
   26.2706   24.0053   14.9255 C   0  0  0  0  0  0
   25.7932   24.5768   13.7425 C   0  0  0  0  0  0
   25.0665   23.8060   12.8275 C   0  0  0  0  0  0
   24.8764   22.4431   13.0811 C   0  0  0  0  0  0
   25.3537   21.8730   14.2642 C   0  0  0  0  0  0
   26.1364   20.8714   18.5743 C   0  0  0  0  0  0
   27.5006   20.9129   18.8360 C   0  0  0  0  0  0
   28.3688   21.5180   17.9409 C   0  0  0  0  0  0
   27.8872   22.0872   16.7681 C   0  0  0  0  0  0
   19.6483   21.2229   16.4079 S   0  0  0  0  0  0
   19.2313   22.4867   15.8270 O   0  0  0  0  0  0
   18.9752   20.6916   17.5799 O   0  0  0  0  0  0
   19.5263   20.0571   15.2111 N   0  0  0  0  0  0
   27.9744   20.3649   19.9643 F   0  0  0  0  0  0
   29.6837   21.5539   18.2016 F   0  0  0  0  0  0
   26.1322   26.2461   13.4471 Cl  0  0  0  0  0  0
   24.6100   24.3654   11.6572 O   0  0  0  0  0  0
   25.6247   24.2913   10.6480 C   0  0  0  0  0  0
   24.0641   21.4182   11.9506 Cl  0  0  0  0  0  0
   24.1384   23.0381   15.7510 H   0  0  0  0  0  0
   21.7124   22.9282   15.3396 H   0  0  0  0  0  0
   21.3889   19.6449   18.1286 H   0  0  0  0  0  0
   23.8126   19.7489   18.5338 H   0  0  0  0  0  0
   26.8167   24.6211   15.6385 H   0  0  0  0  0  0
   25.1869   20.8141   14.4560 H   0  0  0  0  0  0
   25.4774   20.3970   19.2979 H   0  0  0  0  0  0
   28.5929   22.5474   16.0804 H   0  0  0  0  0  0
   19.1388   20.4508   14.3500 H   0  0  0  0  0  0
   18.9800   19.2542   15.5333 H   0  0  0  0  0  0
   25.2196   24.7406    9.7365 H   0  0  0  0  0  0
   25.8918   23.2531   10.4245 H   0  0  0  0  0  0
   26.5178   24.8557   10.9363 H   0  0  0  0  0  0
  1  2  2  0  0  0
  1  4  1  0  0  0
  1 18  1  0  0  0
  2  3  1  0  0  0
  2 15  1  0  0  0
  3  5  2  0  0  0
  3  9  1  0  0  0
  4 10  2  0  0  0
  4 14  1  0  0  0
  5  6  1  0  0  0
  5 29  1  0  0  0
  6  7  2  0  0  0
  6 30  1  0  0  0
  7  8  1  0  0  0
  7 19  1  0  0  0
  8  9  2  0  0  0
  8 31  1  0  0  0
  9 32  1  0  0  0
 10 11  1  0  0  0
 10 33  1  0  0  0
 11 12  2  0  0  0
 11 25  1  0  0  0
 12 13  1  0  0  0
 12 26  1  0  0  0
 13 14  2  0  0  0
 13 28  1  0  0  0
 14 34  1  0  0  0
 15 16  2  0  0  0
 15 35  1  0  0  0
 16 17  1  0  0  0
 16 23  1  0  0  0
 17 18  2  0  0  0
 17 24  1  0  0  0
 18 36  1  0  0  0
 19 20  2  0  0  0
 19 21  2  0  0  0
 19 22  1  0  0  0
 22 37  1  0  0  0
 22 38  1  0  0  0
 26 27  1  0  0  0
 27 39  1  0  0  0
 27 40  1  0  0  0
 27 41  1  0  0  0
M  END
>  <Name>
7-21f

>  <Family>
D.1

>  <IC50_uM>
0.021000

>  <set>
0

$$$$
7-21g
  Cerius2 12120216093D 1   1.00000                          
 Structure written by MMmdl.
 44 46  0  0  0  0  0  0  0  0999 V2000
   26.5019   22.0606   16.4733 C   0  0  0  0  0  0
   25.6051   21.4428   17.3900 C   0  0  0  0  0  0
   24.1501   21.3837   17.1591 C   0  0  0  0  0  0
   26.0520   22.6551   15.2014 C   0  0  0  0  0  0
   23.5215   22.2850   16.2830 C   0  0  0  0  0  0
   22.1424   22.2275   16.0617 C   0  0  0  0  0  0
   21.3767   21.2616   16.7191 C   0  0  0  0  0  0
   21.9778   20.3652   17.6044 C   0  0  0  0  0  0
   23.3580   20.4289   17.8207 C   0  0  0  0  0  0
   26.2750   24.0125   14.9245 C   0  0  0  0  0  0
   25.8485   24.5933   13.7173 C   0  0  0  0  0  0
   25.1869   23.8012   12.7625 C   0  0  0  0  0  0
   24.9711   22.4470   13.0265 C   0  0  0  0  0  0
   25.4015   21.8814   14.2320 C   0  0  0  0  0  0
   26.1207   20.8754   18.5732 C   0  0  0  0  0  0
   27.4821   20.9245   18.8466 C   0  0  0  0  0  0
   28.3536   21.5326   17.9583 C   0  0  0  0  0  0
   27.8771   22.0974   16.7817 C   0  0  0  0  0  0
   19.6261   21.2152   16.4527 S   0  0  0  0  0  0
   19.2034   22.4793   15.8770 O   0  0  0  0  0  0
   18.9694   20.6874   17.6361 O   0  0  0  0  0  0
   19.4811   20.0489   15.2596 N   0  0  0  0  0  0
   27.9494   20.3811   19.9799 F   0  0  0  0  0  0
   29.6663   21.5757   18.2284 F   0  0  0  0  0  0
   26.1036   26.0557   13.4688 C   0  0  0  0  0  0
   24.8025   24.4452   11.6153 O   0  0  0  0  0  0
   24.0588   23.6877   10.6625 C   0  0  0  0  0  0
   24.1072   23.0429   15.7638 H   0  0  0  0  0  0
   21.6776   22.9328   15.3761 H   0  0  0  0  0  0
   21.3895   19.6139   18.1265 H   0  0  0  0  0  0
   23.8168   19.7185   18.5079 H   0  0  0  0  0  0
   26.7814   24.6305   15.6666 H   0  0  0  0  0  0
   24.4712   21.7934   12.3168 H   0  0  0  0  0  0
   25.2207   20.8215   14.4082 H   0  0  0  0  0  0
   25.4593   20.3991   19.2935 H   0  0  0  0  0  0
   28.5862   22.5599   16.0989 H   0  0  0  0  0  0
   19.0834   20.4430   14.4034 H   0  0  0  0  0  0
   18.9375   19.2476   15.5902 H   0  0  0  0  0  0
   26.7311   26.1848   12.5811 H   0  0  0  0  0  0
   26.6221   26.5230   14.3124 H   0  0  0  0  0  0
   25.1565   26.5860   13.3267 H   0  0  0  0  0  0
   23.8000   24.3553    9.8352 H   0  0  0  0  0  0
   23.1244   23.3167   11.0964 H   0  0  0  0  0  0
   24.6620   22.8702   10.2549 H   0  0  0  0  0  0
  1  2  2  0  0  0
  1  4  1  0  0  0
  1 18  1  0  0  0
  2  3  1  0  0  0
  2 15  1  0  0  0
  3  5  2  0  0  0
  3  9  1  0  0  0
  4 10  2  0  0  0
  4 14  1  0  0  0
  5  6  1  0  0  0
  5 28  1  0  0  0
  6  7  2  0  0  0
  6 29  1  0  0  0
  7  8  1  0  0  0
  7 19  1  0  0  0
  8  9  2  0  0  0
  8 30  1  0  0  0
  9 31  1  0  0  0
 10 11  1  0  0  0
 10 32  1  0  0  0
 11 12  2  0  0  0
 11 25  1  0  0  0
 12 13  1  0  0  0
 12 26  1  0  0  0
 13 14  2  0  0  0
 13 33  1  0  0  0
 14 34  1  0  0  0
 15 16  2  0  0  0
 15 35  1  0  0  0
 16 17  1  0  0  0
 16 23  1  0  0  0
 17 18  2  0  0  0
 17 24  1  0  0  0
 18 36  1  0  0  0
 19 20  2  0  0  0
 19 21  2  0  0  0
 19 22  1  0  0  0
 22 37  1  0  0  0
 22 38  1  0  0  0
 25 39  1  0  0  0
 25 40  1  0  0  0
 25 41  1  0  0  0
 26 27  1  0  0  0
 27 42  1  0  0  0
 27 43  1  0  0  0
 27 44  1  0  0  0
M  END
>  <Name>
7-21g

>  <Family>
D.1

>  <IC50_uM>
0.005000

>  <set>
1

$$$$
7-21h
  Cerius2 12120216093D 1   1.00000                          
 Structure written by MMmdl.
 45 47  0  0  0  0  0  0  0  0999 V2000
   26.5074   22.0579   16.4734 C   0  0  0  0  0  0
   25.6131   21.4455   17.3942 C   0  0  0  0  0  0
   24.1600   21.3903   17.1604 C   0  0  0  0  0  0
   26.0452   22.6536   15.2096 C   0  0  0  0  0  0
   23.5393   22.2902   16.2778 C   0  0  0  0  0  0
   22.1617   22.2344   16.0499 C   0  0  0  0  0  0
   21.3910   21.2721   16.7076 C   0  0  0  0  0  0
   21.9856   20.3759   17.5974 C   0  0  0  0  0  0
   23.3646   20.4383   17.8208 C   0  0  0  0  0  0
   26.2704   24.0077   14.9313 C   0  0  0  0  0  0
   25.8028   24.5693   13.7394 C   0  0  0  0  0  0
   25.1442   23.7906   12.7770 C   0  0  0  0  0  0
   24.9268   22.4393   13.0482 C   0  0  0  0  0  0
   25.3707   21.8792   14.2537 C   0  0  0  0  0  0
   26.1294   20.8780   18.5757 C   0  0  0  0  0  0
   27.4929   20.9211   18.8409 C   0  0  0  0  0  0
   28.3632   21.5228   17.9460 C   0  0  0  0  0  0
   27.8838   22.0888   16.7709 C   0  0  0  0  0  0
   19.6437   21.2247   16.4222 S   0  0  0  0  0  0
   19.2304   22.4923   15.8472 O   0  0  0  0  0  0
   18.9732   20.6901   17.5943 O   0  0  0  0  0  0
   19.5096   20.0619   15.2235 N   0  0  0  0  0  0
   27.9639   20.3769   19.9724 F   0  0  0  0  0  0
   29.6773   21.5600   18.2096 F   0  0  0  0  0  0
   24.7571   24.4405   11.6346 O   0  0  0  0  0  0
   25.0708   25.8284   11.5422 C   0  0  0  0  0  0
   26.0536   25.8969   13.4860 O   0  0  0  0  0  0
   26.7305   26.4865   14.6020 C   0  0  0  0  0  0
   24.1301   23.0442   15.7585 H   0  0  0  0  0  0
   21.7001   22.9377   15.3602 H   0  0  0  0  0  0
   21.3936   19.6272   18.1187 H   0  0  0  0  0  0
   23.8198   19.7298   18.5124 H   0  0  0  0  0  0
   26.8028   24.6304   15.6476 H   0  0  0  0  0  0
   24.4144   21.7851   12.3479 H   0  0  0  0  0  0
   25.1849   20.8216   14.4410 H   0  0  0  0  0  0
   25.4685   20.4051   19.2986 H   0  0  0  0  0  0
   28.5896   22.5492   16.0833 H   0  0  0  0  0  0
   19.1166   20.4586   14.3663 H   0  0  0  0  0  0
   18.9637   19.2597   15.5481 H   0  0  0  0  0  0
   24.6840   26.1936   10.5861 H   0  0  0  0  0  0
   26.1541   25.9879   11.5465 H   0  0  0  0  0  0
   24.5808   26.3971   12.3393 H   0  0  0  0  0  0
   26.8060   27.5619   14.4154 H   0  0  0  0  0  0
   27.7453   26.0872   14.7018 H   0  0  0  0  0  0
   26.1683   26.3411   15.5313 H   0  0  0  0  0  0
  1  2  2  0  0  0
  1  4  1  0  0  0
  1 18  1  0  0  0
  2  3  1  0  0  0
  2 15  1  0  0  0
  3  5  2  0  0  0
  3  9  1  0  0  0
  4 10  2  0  0  0
  4 14  1  0  0  0
  5  6  1  0  0  0
  5 29  1  0  0  0
  6  7  2  0  0  0
  6 30  1  0  0  0
  7  8  1  0  0  0
  7 19  1  0  0  0
  8  9  2  0  0  0
  8 31  1  0  0  0
  9 32  1  0  0  0
 10 11  1  0  0  0
 10 33  1  0  0  0
 11 12  2  0  0  0
 11 27  1  0  0  0
 12 13  1  0  0  0
 12 25  1  0  0  0
 13 14  2  0  0  0
 13 34  1  0  0  0
 14 35  1  0  0  0
 15 16  2  0  0  0
 15 36  1  0  0  0
 16 17  1  0  0  0
 16 23  1  0  0  0
 17 18  2  0  0  0
 17 24  1  0  0  0
 18 37  1  0  0  0
 19 20  2  0  0  0
 19 21  2  0  0  0
 19 22  1  0  0  0
 22 38  1  0  0  0
 22 39  1  0  0  0
 25 26  1  0  0  0
 26 40  1  0  0  0
 26 41  1  0  0  0
 26 42  1  0  0  0
 27 28  1  0  0  0
 28 43  1  0  0  0
 28 44  1  0  0  0
 28 45  1  0  0  0
M  END
>  <Name>
7-21h

>  <Family>
D.1

>  <IC50_uM>
0.065000

>  <set>
1

$$$$
7-21i
  Cerius2 12120216093D 1   1.00000                          
 Structure written by MMmdl.
 43 46  0  0  0  0  0  0  0  0999 V2000
   26.5045   22.0618   16.4734 C   0  0  0  0  0  0
   25.6105   21.4428   17.3914 C   0  0  0  0  0  0
   24.1556   21.3886   17.1626 C   0  0  0  0  0  0
   26.0457   22.6567   15.2064 C   0  0  0  0  0  0
   23.5317   22.2876   16.2806 C   0  0  0  0  0  0
   22.1535   22.2314   16.0557 C   0  0  0  0  0  0
   21.3837   21.2704   16.7160 C   0  0  0  0  0  0
   21.9803   20.3769   17.6072 C   0  0  0  0  0  0
   23.3600   20.4395   17.8274 C   0  0  0  0  0  0
   26.2648   24.0165   14.9314 C   0  0  0  0  0  0
   25.8219   24.5786   13.7331 C   0  0  0  0  0  0
   25.1369   23.7945   12.8013 C   0  0  0  0  0  0
   24.9330   22.4399   13.0480 C   0  0  0  0  0  0
   25.3845   21.8751   14.2439 C   0  0  0  0  0  0
   26.1290   20.8701   18.5699 C   0  0  0  0  0  0
   27.4919   20.9161   18.8372 C   0  0  0  0  0  0
   28.3610   21.5268   17.9476 C   0  0  0  0  0  0
   27.8808   22.0965   16.7745 C   0  0  0  0  0  0
   19.6370   21.2189   16.4286 S   0  0  0  0  0  0
   19.2219   22.4838   15.8484 O   0  0  0  0  0  0
   18.9659   20.6876   17.6016 O   0  0  0  0  0  0
   19.5069   20.0515   15.2341 N   0  0  0  0  0  0
   27.9630   20.3675   19.9664 F   0  0  0  0  0  0
   29.6746   21.5686   18.2138 F   0  0  0  0  0  0
   24.6447   24.2872   11.6206 O   0  0  0  0  0  0
   26.0848   25.9116   13.5446 O   0  0  0  0  0  0
   24.5913   25.7225   11.6328 C   0  0  0  0  0  0
   25.8855   26.3031   12.1768 C   0  0  0  0  0  0
   24.1207   23.0406   15.7582 H   0  0  0  0  0  0
   21.6907   22.9328   15.3646 H   0  0  0  0  0  0
   21.3894   19.6292   18.1310 H   0  0  0  0  0  0
   23.8159   19.7318   18.5193 H   0  0  0  0  0  0
   26.7826   24.6433   15.6557 H   0  0  0  0  0  0
   24.4120   21.8205   12.3214 H   0  0  0  0  0  0
   25.2095   20.8148   14.4251 H   0  0  0  0  0  0
   25.4695   20.3915   19.2902 H   0  0  0  0  0  0
   28.5871   22.5619   16.0907 H   0  0  0  0  0  0
   19.1139   20.4440   14.3749 H   0  0  0  0  0  0
   18.9632   19.2486   15.5607 H   0  0  0  0  0  0
   23.7279   26.0310   12.2353 H   0  0  0  0  0  0
   24.4275   26.0563   10.6034 H   0  0  0  0  0  0
   26.7521   25.9697   11.5928 H   0  0  0  0  0  0
   25.8523   27.3966   12.1479 H   0  0  0  0  0  0
  1  2  2  0  0  0
  1  4  1  0  0  0
  1 18  1  0  0  0
  2  3  1  0  0  0
  2 15  1  0  0  0
  3  5  2  0  0  0
  3  9  1  0  0  0
  4 10  2  0  0  0
  4 14  1  0  0  0
  5  6  1  0  0  0
  5 29  1  0  0  0
  6  7  2  0  0  0
  6 30  1  0  0  0
  7  8  1  0  0  0
  7 19  1  0  0  0
  8  9  2  0  0  0
  8 31  1  0  0  0
  9 32  1  0  0  0
 10 11  1  0  0  0
 10 33  1  0  0  0
 11 12  2  0  0  0
 11 26  1  0  0  0
 12 13  1  0  0  0
 12 25  1  0  0  0
 13 14  2  0  0  0
 13 34  1  0  0  0
 14 35  1  0  0  0
 15 16  2  0  0  0
 15 36  1  0  0  0
 16 17  1  0  0  0
 16 23  1  0  0  0
 17 18  2  0  0  0
 17 24  1  0  0  0
 18 37  1  0  0  0
 19 20  2  0  0  0
 19 21  2  0  0  0
 19 22  1  0  0  0
 22 38  1  0  0  0
 22 39  1  0  0  0
 25 27  1  0  0  0
 26 28  1  0  0  0
 27 28  1  0  0  0
 27 40  1  0  0  0
 27 41  1  0  0  0
 28 42  1  0  0  0
 28 43  1  0  0  0
M  END
>  <Name>
7-21i

>  <Family>
D.1

>  <IC50_uM>
0.032000

>  <set>
1

$$$$
7-21j
  Cerius2 12120216093D 1   1.00000                          
 Structure written by MMmdl.
 40 43  0  0  0  0  0  0  0  0999 V2000
   26.5055   22.0673   16.4748 C   0  0  0  0  0  0
   25.6134   21.4415   17.3896 C   0  0  0  0  0  0
   24.1590   21.3878   17.1598 C   0  0  0  0  0  0
   26.0447   22.6663   15.2101 C   0  0  0  0  0  0
   23.5379   22.2893   16.2785 C   0  0  0  0  0  0
   22.1599   22.2356   16.0524 C   0  0  0  0  0  0
   21.3887   21.2745   16.7105 C   0  0  0  0  0  0
   21.9830   20.3780   17.6004 C   0  0  0  0  0  0
   23.3625   20.4380   17.8221 C   0  0  0  0  0  0
   26.2581   24.0311   14.9469 C   0  0  0  0  0  0
   25.7996   24.5476   13.7522 C   0  0  0  0  0  0
   25.1540   23.7667   12.8233 C   0  0  0  0  0  0
   24.9312   22.4247   13.0353 C   0  0  0  0  0  0
   25.3832   21.8742   14.2398 C   0  0  0  0  0  0
   26.1326   20.8645   18.5655 C   0  0  0  0  0  0
   27.4949   20.9152   18.8346 C   0  0  0  0  0  0
   28.3623   21.5337   17.9483 C   0  0  0  0  0  0
   27.8812   22.1059   16.7770 C   0  0  0  0  0  0
   19.6413   21.2289   16.4250 S   0  0  0  0  0  0
   19.2295   22.4969   15.8497 O   0  0  0  0  0  0
   18.9705   20.6955   17.5976 O   0  0  0  0  0  0
   19.5053   20.0658   15.2269 N   0  0  0  0  0  0
   27.9676   20.3631   19.9614 F   0  0  0  0  0  0
   29.6754   21.5796   18.2157 F   0  0  0  0  0  0
   24.7851   24.4691   11.7193 O   0  0  0  0  0  0
   25.9174   25.8417   13.3500 O   0  0  0  0  0  0
   25.2671   25.7909   12.0579 C   0  0  0  0  0  0
   24.1287   23.0425   15.7584 H   0  0  0  0  0  0
   21.6989   22.9396   15.3626 H   0  0  0  0  0  0
   21.3901   19.6305   18.1226 H   0  0  0  0  0  0
   23.8169   19.7286   18.5132 H   0  0  0  0  0  0
   26.7615   24.6713   15.6656 H   0  0  0  0  0  0
   24.4224   21.8124   12.2981 H   0  0  0  0  0  0
   25.2160   20.8135   14.4275 H   0  0  0  0  0  0
   25.4742   20.3793   19.2823 H   0  0  0  0  0  0
   28.5862   22.5761   16.0953 H   0  0  0  0  0  0
   19.1149   20.4629   14.3686 H   0  0  0  0  0  0
   18.9572   19.2650   15.5510 H   0  0  0  0  0  0
   24.4176   26.4832   12.0647 H   0  0  0  0  0  0
   25.9826   26.1107   11.2918 H   0  0  0  0  0  0
  1  2  2  0  0  0
  1  4  1  0  0  0
  1 18  1  0  0  0
  2  3  1  0  0  0
  2 15  1  0  0  0
  3  5  2  0  0  0
  3  9  1  0  0  0
  4 10  2  0  0  0
  4 14  1  0  0  0
  5  6  1  0  0  0
  5 28  1  0  0  0
  6  7  2  0  0  0
  6 29  1  0  0  0
  7  8  1  0  0  0
  7 19  1  0  0  0
  8  9  2  0  0  0
  8 30  1  0  0  0
  9 31  1  0  0  0
 10 11  1  0  0  0
 10 32  1  0  0  0
 11 12  2  0  0  0
 11 26  1  0  0  0
 12 13  1  0  0  0
 12 25  1  0  0  0
 13 14  2  0  0  0
 13 33  1  0  0  0
 14 34  1  0  0  0
 15 16  2  0  0  0
 15 35  1  0  0  0
 16 17  1  0  0  0
 16 23  1  0  0  0
 17 18  2  0  0  0
 17 24  1  0  0  0
 18 36  1  0  0  0
 19 20  2  0  0  0
 19 21  2  0  0  0
 19 22  1  0  0  0
 22 37  1  0  0  0
 22 38  1  0  0  0
 25 27  1  0  0  0
 26 27  1  0  0  0
 27 39  1  0  0  0
 27 40  1  0  0  0
M  END
>  <Name>
7-21j

>  <Family>
D.1

>  <IC50_uM>
0.004000

>  <set>
2

$$$$
7-21k
  Cerius2 12120216093D 1   1.00000                          
 Structure written by MMmdl.
 40 42  0  0  0  0  0  0  0  0999 V2000
   26.4990   22.0608   16.4702 C   0  0  0  0  0  0
   25.5998   21.4446   17.3860 C   0  0  0  0  0  0
   24.1457   21.3810   17.1532 C   0  0  0  0  0  0
   26.0578   22.6588   15.1954 C   0  0  0  0  0  0
   23.5132   22.2840   16.2819 C   0  0  0  0  0  0
   22.1318   22.2269   16.0707 C   0  0  0  0  0  0
   21.3706   21.2581   16.7294 C   0  0  0  0  0  0
   21.9778   20.3585   17.6074 C   0  0  0  0  0  0
   23.3589   20.4234   17.8160 C   0  0  0  0  0  0
   26.2810   24.0183   14.9268 C   0  0  0  0  0  0
   25.8712   24.5913   13.7189 C   0  0  0  0  0  0
   25.2360   23.8140   12.7459 C   0  0  0  0  0  0
   25.0030   22.4600   13.0061 C   0  0  0  0  0  0
   25.4192   21.8881   14.2122 C   0  0  0  0  0  0
   26.1097   20.8825   18.5739 C   0  0  0  0  0  0
   27.4690   20.9374   18.8568 C   0  0  0  0  0  0
   28.3441   21.5417   17.9703 C   0  0  0  0  0  0
   27.8728   22.0979   16.7875 C   0  0  0  0  0  0
   19.6184   21.2072   16.4713 S   0  0  0  0  0  0
   19.1908   22.4695   15.8943 O   0  0  0  0  0  0
   18.9670   20.6807   17.6578 O   0  0  0  0  0  0
   19.4686   20.0378   15.2816 N   0  0  0  0  0  0
   27.9296   20.4023   19.9968 F   0  0  0  0  0  0
   29.6553   21.5912   18.2470 F   0  0  0  0  0  0
   24.7609   24.4404   11.4678 C   0  0  0  0  0  0
   24.0968   23.0427   15.7619 H   0  0  0  0  0  0
   21.6614   22.9357   15.3920 H   0  0  0  0  0  0
   21.3943   19.6048   18.1306 H   0  0  0  0  0  0
   23.8224   19.7123   18.4994 H   0  0  0  0  0  0
   26.7724   24.6492   15.6667 H   0  0  0  0  0  0
   26.0518   25.6515   13.5466 H   0  0  0  0  0  0
   24.4954   21.8357   12.2714 H   0  0  0  0  0  0
   25.2349   20.8274   14.3797 H   0  0  0  0  0  0
   25.4453   20.4060   19.2917 H   0  0  0  0  0  0
   28.5862   22.5568   16.1064 H   0  0  0  0  0  0
   19.0663   20.4293   14.4258 H   0  0  0  0  0  0
   18.9277   19.2372   15.6175 H   0  0  0  0  0  0
   24.6810   23.6934   10.6712 H   0  0  0  0  0  0
   25.4651   25.2066   11.1268 H   0  0  0  0  0  0
   23.7792   24.9001   11.6186 H   0  0  0  0  0  0
  1  2  2  0  0  0
  1  4  1  0  0  0
  1 18  1  0  0  0
  2  3  1  0  0  0
  2 15  1  0  0  0
  3  5  2  0  0  0
  3  9  1  0  0  0
  4 10  2  0  0  0
  4 14  1  0  0  0
  5  6  1  0  0  0
  5 26  1  0  0  0
  6  7  2  0  0  0
  6 27  1  0  0  0
  7  8  1  0  0  0
  7 19  1  0  0  0
  8  9  2  0  0  0
  8 28  1  0  0  0
  9 29  1  0  0  0
 10 11  1  0  0  0
 10 30  1  0  0  0
 11 12  2  0  0  0
 11 31  1  0  0  0
 12 13  1  0  0  0
 12 25  1  0  0  0
 13 14  2  0  0  0
 13 32  1  0  0  0
 14 33  1  0  0  0
 15 16  2  0  0  0
 15 34  1  0  0  0
 16 17  1  0  0  0
 16 23  1  0  0  0
 17 18  2  0  0  0
 17 24  1  0  0  0
 18 35  1  0  0  0
 19 20  2  0  0  0
 19 21  2  0  0  0
 19 22  1  0  0  0
 22 36  1  0  0  0
 22 37  1  0  0  0
 25 38  1  0  0  0
 25 39  1  0  0  0
 25 40  1  0  0  0
M  END
>  <Name>
7-21k

>  <Family>
D.1

>  <IC50_uM>
0.004000

>  <set>
0

$$$$
7-21l
  Cerius2 12120216093D 1   1.00000                          
 Structure written by MMmdl.
 40 42  0  0  0  0  0  0  0  0999 V2000
   26.5047   22.0551   16.4724 C   0  0  0  0  0  0
   25.6122   21.4456   17.3964 C   0  0  0  0  0  0
   24.1609   21.3886   17.1609 C   0  0  0  0  0  0
   26.0391   22.6519   15.2107 C   0  0  0  0  0  0
   23.5430   22.2904   16.2785 C   0  0  0  0  0  0
   22.1656   22.2348   16.0473 C   0  0  0  0  0  0
   21.3939   21.2694   16.6987 C   0  0  0  0  0  0
   21.9873   20.3727   17.5899 C   0  0  0  0  0  0
   23.3654   20.4348   17.8173 C   0  0  0  0  0  0
   26.2557   24.0094   14.9359 C   0  0  0  0  0  0
   25.8079   24.5773   13.7381 C   0  0  0  0  0  0
   25.1348   23.8003   12.7841 C   0  0  0  0  0  0
   24.9244   22.4414   13.0567 C   0  0  0  0  0  0
   25.3728   21.8749   14.2535 C   0  0  0  0  0  0
   26.1281   20.8839   18.5801 C   0  0  0  0  0  0
   27.4919   20.9286   18.8442 C   0  0  0  0  0  0
   28.3618   21.5262   17.9451 C   0  0  0  0  0  0
   27.8812   22.0871   16.7680 C   0  0  0  0  0  0
   19.6434   21.2256   16.4295 S   0  0  0  0  0  0
   19.2199   22.4937   15.8618 O   0  0  0  0  0  0
   18.9863   20.6917   17.6094 O   0  0  0  0  0  0
   19.4984   20.0692   15.2263 N   0  0  0  0  0  0
   27.9643   20.3909   19.9781 F   0  0  0  0  0  0
   29.6762   21.5653   18.2081 F   0  0  0  0  0  0
   24.6370   24.3796   11.4899 C   0  0  0  0  0  0
   26.1123   26.2593   13.4783 Cl  0  0  0  0  0  0
   24.1358   23.0450   15.7625 H   0  0  0  0  0  0
   21.7073   22.9417   15.3589 H   0  0  0  0  0  0
   21.3933   19.6237   18.1081 H   0  0  0  0  0  0
   23.8195   19.7265   18.5096 H   0  0  0  0  0  0
   26.7722   24.6304   15.6660 H   0  0  0  0  0  0
   24.4068   21.8072   12.3375 H   0  0  0  0  0  0
   25.1941   20.8155   14.4352 H   0  0  0  0  0  0
   25.4673   20.4129   19.3045 H   0  0  0  0  0  0
   28.5857   22.5471   16.0786 H   0  0  0  0  0  0
   19.1005   20.4710   14.3736 H   0  0  0  0  0  0
   18.9524   19.2664   15.5498 H   0  0  0  0  0  0
   24.1354   23.6225   10.8773 H   0  0  0  0  0  0
   25.4714   24.7759   10.9025 H   0  0  0  0  0  0
   23.9118   25.1769   11.6821 H   0  0  0  0  0  0
  1  2  2  0  0  0
  1  4  1  0  0  0
  1 18  1  0  0  0
  2  3  1  0  0  0
  2 15  1  0  0  0
  3  5  2  0  0  0
  3  9  1  0  0  0
  4 10  2  0  0  0
  4 14  1  0  0  0
  5  6  1  0  0  0
  5 27  1  0  0  0
  6  7  2  0  0  0
  6 28  1  0  0  0
  7  8  1  0  0  0
  7 19  1  0  0  0
  8  9  2  0  0  0
  8 29  1  0  0  0
  9 30  1  0  0  0
 10 11  1  0  0  0
 10 31  1  0  0  0
 11 12  2  0  0  0
 11 26  1  0  0  0
 12 13  1  0  0  0
 12 25  1  0  0  0
 13 14  2  0  0  0
 13 32  1  0  0  0
 14 33  1  0  0  0
 15 16  2  0  0  0
 15 34  1  0  0  0
 16 17  1  0  0  0
 16 23  1  0  0  0
 17 18  2  0  0  0
 17 24  1  0  0  0
 18 35  1  0  0  0
 19 20  2  0  0  0
 19 21  2  0  0  0
 19 22  1  0  0  0
 22 36  1  0  0  0
 22 37  1  0  0  0
 25 38  1  0  0  0
 25 39  1  0  0  0
 25 40  1  0  0  0
M  END
>  <Name>
7-21l

>  <Family>
D.1

>  <IC50_uM>
0.003000

>  <set>
0

$$$$
7-21m
  Cerius2 12120216093D 1   1.00000                          
 Structure written by MMmdl.
 43 45  0  0  0  0  0  0  0  0999 V2000
   26.5021   22.0616   16.4739 C   0  0  0  0  0  0
   25.6065   21.4414   17.3899 C   0  0  0  0  0  0
   24.1518   21.3815   17.1579 C   0  0  0  0  0  0
   26.0501   22.6534   15.2020 C   0  0  0  0  0  0
   23.5241   22.2849   16.2831 C   0  0  0  0  0  0
   22.1450   22.2292   16.0618 C   0  0  0  0  0  0
   21.3784   21.2626   16.7173 C   0  0  0  0  0  0
   21.9790   20.3636   17.6006 C   0  0  0  0  0  0
   23.3593   20.4261   17.8175 C   0  0  0  0  0  0
   26.2721   24.0113   14.9228 C   0  0  0  0  0  0
   25.8448   24.5948   13.7165 C   0  0  0  0  0  0
   25.1873   23.7979   12.7598 C   0  0  0  0  0  0
   24.9689   22.4405   13.0343 C   0  0  0  0  0  0
   25.3967   21.8759   14.2383 C   0  0  0  0  0  0
   26.1224   20.8742   18.5727 C   0  0  0  0  0  0
   27.4835   20.9260   18.8466 C   0  0  0  0  0  0
   28.3542   21.5372   17.9590 C   0  0  0  0  0  0
   27.8771   22.1019   16.7826 C   0  0  0  0  0  0
   19.6277   21.2199   16.4506 S   0  0  0  0  0  0
   19.2085   22.4872   15.8793 O   0  0  0  0  0  0
   18.9695   20.6899   17.6319 O   0  0  0  0  0  0
   19.4777   20.0576   15.2537 N   0  0  0  0  0  0
   27.9511   20.3841   19.9804 F   0  0  0  0  0  0
   29.6664   21.5850   18.2308 F   0  0  0  0  0  0
   24.7066   24.3723   11.4544 C   0  0  0  0  0  0
   26.1005   26.0586   13.4762 C   0  0  0  0  0  0
   24.1107   23.0423   15.7643 H   0  0  0  0  0  0
   21.6804   22.9364   15.3781 H   0  0  0  0  0  0
   21.3903   19.6118   18.1213 H   0  0  0  0  0  0
   23.8177   19.7147   18.5041 H   0  0  0  0  0  0
   26.7792   24.6285   15.6655 H   0  0  0  0  0  0
   24.4603   21.8053   12.3094 H   0  0  0  0  0  0
   25.2130   20.8174   14.4191 H   0  0  0  0  0  0
   25.4613   20.3964   19.2923 H   0  0  0  0  0  0
   28.5844   22.5686   16.1007 H   0  0  0  0  0  0
   19.0766   20.4553   14.4004 H   0  0  0  0  0  0
   18.9340   19.2561   15.5835 H   0  0  0  0  0  0
   24.2562   23.6031   10.8183 H   0  0  0  0  0  0
   25.5428   24.8081   10.8988 H   0  0  0  0  0  0
   23.9472   25.1395   11.6346 H   0  0  0  0  0  0
   26.7439   26.1924   12.6010 H   0  0  0  0  0  0
   26.6030   26.5249   14.3304 H   0  0  0  0  0  0
   25.1557   26.5893   13.3212 H   0  0  0  0  0  0
  1  2  2  0  0  0
  1  4  1  0  0  0
  1 18  1  0  0  0
  2  3  1  0  0  0
  2 15  1  0  0  0
  3  5  2  0  0  0
  3  9  1  0  0  0
  4 10  2  0  0  0
  4 14  1  0  0  0
  5  6  1  0  0  0
  5 27  1  0  0  0
  6  7  2  0  0  0
  6 28  1  0  0  0
  7  8  1  0  0  0
  7 19  1  0  0  0
  8  9  2  0  0  0
  8 29  1  0  0  0
  9 30  1  0  0  0
 10 11  1  0  0  0
 10 31  1  0  0  0
 11 12  2  0  0  0
 11 26  1  0  0  0
 12 13  1  0  0  0
 12 25  1  0  0  0
 13 14  2  0  0  0
 13 32  1  0  0  0
 14 33  1  0  0  0
 15 16  2  0  0  0
 15 34  1  0  0  0
 16 17  1  0  0  0
 16 23  1  0  0  0
 17 18  2  0  0  0
 17 24  1  0  0  0
 18 35  1  0  0  0
 19 20  2  0  0  0
 19 21  2  0  0  0
 19 22  1  0  0  0
 22 36  1  0  0  0
 22 37  1  0  0  0
 25 38  1  0  0  0
 25 39  1  0  0  0
 25 40  1  0  0  0
 26 41  1  0  0  0
 26 42  1  0  0  0
 26 43  1  0  0  0
M  END
>  <Name>
7-21m

>  <Family>
D.1

>  <IC50_uM>
0.005000

>  <set>
0

$$$$
7-21n
  Cerius2 12120216093D 1   1.00000                          
 Structure written by MMmdl.
 40 42  0  0  0  0  0  0  0  0999 V2000
   26.5029   22.0567   16.4718 C   0  0  0  0  0  0
   25.6093   21.4418   17.3923 C   0  0  0  0  0  0
   24.1554   21.3868   17.1623 C   0  0  0  0  0  0
   26.0450   22.6491   15.2042 C   0  0  0  0  0  0
   23.5321   22.2853   16.2798 C   0  0  0  0  0  0
   22.1532   22.2321   16.0586 C   0  0  0  0  0  0
   21.3835   21.2722   16.7208 C   0  0  0  0  0  0
   21.9805   20.3758   17.6083 C   0  0  0  0  0  0
   23.3606   20.4374   17.8265 C   0  0  0  0  0  0
   26.2715   24.0082   14.9266 C   0  0  0  0  0  0
   25.8333   24.5961   13.7269 C   0  0  0  0  0  0
   25.1638   23.7945   12.7913 C   0  0  0  0  0  0
   24.9401   22.4410   13.0490 C   0  0  0  0  0  0
   25.3801   21.8719   14.2457 C   0  0  0  0  0  0
   26.1278   20.8766   18.5743 C   0  0  0  0  0  0
   27.4906   20.9261   18.8415 C   0  0  0  0  0  0
   28.3591   21.5335   17.9488 C   0  0  0  0  0  0
   27.8785   22.0955   16.7731 C   0  0  0  0  0  0
   19.6373   21.2152   16.4292 S   0  0  0  0  0  0
   19.2207   22.4772   15.8454 O   0  0  0  0  0  0
   18.9648   20.6816   17.6012 O   0  0  0  0  0  0
   19.5130   20.0433   15.2390 N   0  0  0  0  0  0
   27.9626   20.3839   19.9736 F   0  0  0  0  0  0
   29.6724   21.5792   18.2151 F   0  0  0  0  0  0
   24.5933   24.4391   11.2930 Cl  0  0  0  0  0  0
   26.0894   26.0572   13.4861 C   0  0  0  0  0  0
   24.1227   23.0347   15.7541 H   0  0  0  0  0  0
   21.6903   22.9341   15.3682 H   0  0  0  0  0  0
   21.3899   19.6269   18.1307 H   0  0  0  0  0  0
   23.8178   19.7284   18.5163 H   0  0  0  0  0  0
   26.7916   24.6196   15.6649 H   0  0  0  0  0  0
   24.4213   21.8181   12.3236 H   0  0  0  0  0  0
   25.1968   20.8137   14.4269 H   0  0  0  0  0  0
   25.4686   20.4011   19.2973 H   0  0  0  0  0  0
   28.5827   22.5603   16.0867 H   0  0  0  0  0  0
   19.1283   20.4314   14.3741 H   0  0  0  0  0  0
   18.9689   19.2407   15.5655 H   0  0  0  0  0  0
   26.7052   26.1951   12.5916 H   0  0  0  0  0  0
   26.6237   26.5148   14.3255 H   0  0  0  0  0  0
   25.1428   26.5944   13.3699 H   0  0  0  0  0  0
  1  2  2  0  0  0
  1  4  1  0  0  0
  1 18  1  0  0  0
  2  3  1  0  0  0
  2 15  1  0  0  0
  3  5  2  0  0  0
  3  9  1  0  0  0
  4 10  2  0  0  0
  4 14  1  0  0  0
  5  6  1  0  0  0
  5 27  1  0  0  0
  6  7  2  0  0  0
  6 28  1  0  0  0
  7  8  1  0  0  0
  7 19  1  0  0  0
  8  9  2  0  0  0
  8 29  1  0  0  0
  9 30  1  0  0  0
 10 11  1  0  0  0
 10 31  1  0  0  0
 11 12  2  0  0  0
 11 26  1  0  0  0
 12 13  1  0  0  0
 12 25  1  0  0  0
 13 14  2  0  0  0
 13 32  1  0  0  0
 14 33  1  0  0  0
 15 16  2  0  0  0
 15 34  1  0  0  0
 16 17  1  0  0  0
 16 23  1  0  0  0
 17 18  2  0  0  0
 17 24  1  0  0  0
 18 35  1  0  0  0
 19 20  2  0  0  0
 19 21  2  0  0  0
 19 22  1  0  0  0
 22 36  1  0  0  0
 22 37  1  0  0  0
 26 38  1  0  0  0
 26 39  1  0  0  0
 26 40  1  0  0  0
M  END
>  <Name>
7-21n

>  <Family>
D.1

>  <IC50_uM>
0.003000

>  <set>
0

$$$$
7-21o
  Cerius2 12120216093D 1   1.00000                          
 Structure written by MMmdl.
 45 47  0  0  0  0  0  0  0  0999 V2000
   26.5058   22.0615   16.4756 C   0  0  0  0  0  0
   25.6096   21.4422   17.3904 C   0  0  0  0  0  0
   24.1558   21.3820   17.1537 C   0  0  0  0  0  0
   26.0498   22.6537   15.2078 C   0  0  0  0  0  0
   23.5301   22.2870   16.2790 C   0  0  0  0  0  0
   22.1509   22.2323   16.0558 C   0  0  0  0  0  0
   21.3827   21.2650   16.7089 C   0  0  0  0  0  0
   21.9827   20.3624   17.5889 C   0  0  0  0  0  0
   23.3628   20.4236   17.8075 C   0  0  0  0  0  0
   26.2718   24.0050   14.9238 C   0  0  0  0  0  0
   25.8229   24.5768   13.7214 C   0  0  0  0  0  0
   25.1269   23.8172   12.7515 C   0  0  0  0  0  0
   24.9431   22.4534   13.0496 C   0  0  0  0  0  0
   25.3902   21.8819   14.2486 C   0  0  0  0  0  0
   26.1243   20.8749   18.5732 C   0  0  0  0  0  0
   27.4861   20.9269   18.8470 C   0  0  0  0  0  0
   28.3571   21.5378   17.9594 C   0  0  0  0  0  0
   27.8808   22.1016   16.7826 C   0  0  0  0  0  0
   19.6304   21.2283   16.4487 S   0  0  0  0  0  0
   19.2124   22.5004   15.8867 O   0  0  0  0  0  0
   18.9750   20.6931   17.6293 O   0  0  0  0  0  0
   19.4723   20.0742   15.2449 N   0  0  0  0  0  0
   27.9539   20.3835   19.9801 F   0  0  0  0  0  0
   29.6692   21.5860   18.2325 F   0  0  0  0  0  0
   26.2575   26.2396   13.4710 Cl  0  0  0  0  0  0
   24.6308   24.3356   11.5578 N   0  0  0  0  0  0
   25.5195   24.5994   10.4283 C   0  0  0  0  0  0
   23.1974   24.2821   11.2728 C   0  0  0  0  0  0
   24.1174   23.0465   15.7639 H   0  0  0  0  0  0
   21.6873   22.9421   15.3741 H   0  0  0  0  0  0
   21.3930   19.6102   18.1074 H   0  0  0  0  0  0
   23.8200   19.7103   18.4927 H   0  0  0  0  0  0
   26.8016   24.6237   15.6468 H   0  0  0  0  0  0
   24.4128   21.8013   12.3573 H   0  0  0  0  0  0
   25.2061   20.8227   14.4267 H   0  0  0  0  0  0
   25.4634   20.3961   19.2921 H   0  0  0  0  0  0
   28.5884   22.5664   16.0996 H   0  0  0  0  0  0
   19.0749   20.4800   14.3939 H   0  0  0  0  0  0
   18.9195   19.2772   15.5707 H   0  0  0  0  0  0
   25.0545   25.3089    9.7347 H   0  0  0  0  0  0
   25.7311   23.6777    9.8760 H   0  0  0  0  0  0
   26.4630   25.0469   10.7602 H   0  0  0  0  0  0
   23.0251   23.9826   10.2325 H   0  0  0  0  0  0
   22.7452   25.2693   11.4099 H   0  0  0  0  0  0
   22.6753   23.5504   11.8992 H   0  0  0  0  0  0
  1  2  2  0  0  0
  1  4  1  0  0  0
  1 18  1  0  0  0
  2  3  1  0  0  0
  2 15  1  0  0  0
  3  5  2  0  0  0
  3  9  1  0  0  0
  4 10  2  0  0  0
  4 14  1  0  0  0
  5  6  1  0  0  0
  5 29  1  0  0  0
  6  7  2  0  0  0
  6 30  1  0  0  0
  7  8  1  0  0  0
  7 19  1  0  0  0
  8  9  2  0  0  0
  8 31  1  0  0  0
  9 32  1  0  0  0
 10 11  1  0  0  0
 10 33  1  0  0  0
 11 12  2  0  0  0
 11 25  1  0  0  0
 12 13  1  0  0  0
 12 26  1  0  0  0
 13 14  2  0  0  0
 13 34  1  0  0  0
 14 35  1  0  0  0
 15 16  2  0  0  0
 15 36  1  0  0  0
 16 17  1  0  0  0
 16 23  1  0  0  0
 17 18  2  0  0  0
 17 24  1  0  0  0
 18 37  1  0  0  0
 19 20  2  0  0  0
 19 21  2  0  0  0
 19 22  1  0  0  0
 22 38  1  0  0  0
 22 39  1  0  0  0
 26 27  1  0  0  0
 26 28  1  0  0  0
 27 40  1  0  0  0
 27 41  1  0  0  0
 27 42  1  0  0  0
 28 43  1  0  0  0
 28 44  1  0  0  0
 28 45  1  0  0  0
M  END
>  <Name>
7-21o

>  <Family>
D.1

>  <IC50_uM>
0.006000

>  <set>
2

$$$$
7-30
  Cerius2 12120216093D 1   1.00000                          
 Structure written by MMmdl.
 38 40  0  0  0  0  0  0  0  0999 V2000
   26.5046   22.0585   16.4746 C   0  0  0  0  0  0
   25.6150   21.4406   17.3888 C   0  0  0  0  0  0
   24.1622   21.3828   17.1575 C   0  0  0  0  0  0
   26.0424   22.6505   15.2077 C   0  0  0  0  0  0
   23.5420   22.2876   16.2793 C   0  0  0  0  0  0
   22.1638   22.2386   16.0556 C   0  0  0  0  0  0
   21.3929   21.2746   16.7099 C   0  0  0  0  0  0
   21.9864   20.3730   17.5953 C   0  0  0  0  0  0
   23.3660   20.4303   17.8156 C   0  0  0  0  0  0
   26.2633   24.0108   14.9300 C   0  0  0  0  0  0
   25.8100   24.5768   13.7363 C   0  0  0  0  0  0
   25.1397   23.7845   12.8133 C   0  0  0  0  0  0
   24.9164   22.4355   13.0590 C   0  0  0  0  0  0
   25.3688   21.8690   14.2529 C   0  0  0  0  0  0
   26.1330   20.8770   18.5710 C   0  0  0  0  0  0
   27.4998   20.9259   18.8584 C   0  0  0  0  0  0
   28.3744   21.5435   17.9633 C   0  0  0  0  0  0
   27.8788   22.1025   16.7822 C   0  0  0  0  0  0
   19.6384   21.2283   16.4248 S   0  0  0  0  0  0
   19.2436   22.5296   15.8948 O   0  0  0  0  0  0
   18.9917   20.7480   17.6425 O   0  0  0  0  0  0
   19.4488   20.0010   15.1585 C   0  0  0  0  0  0
   28.0413   20.2054   20.3341 Cl  0  0  0  0  0  0
   30.0755   21.6468   18.2551 Cl  0  0  0  0  0  0
   24.7011   24.3290   11.6706 F   0  0  0  0  0  0
   24.1350   23.0408   15.7616 H   0  0  0  0  0  0
   21.7065   22.9502   15.3715 H   0  0  0  0  0  0
   21.3943   19.6220   18.1135 H   0  0  0  0  0  0
   23.8214   19.7177   18.5028 H   0  0  0  0  0  0
   26.7826   24.6409   15.6511 H   0  0  0  0  0  0
   25.9754   25.6301   13.5285 H   0  0  0  0  0  0
   24.3913   21.8300   12.3262 H   0  0  0  0  0  0
   25.1879   20.8106   14.4379 H   0  0  0  0  0  0
   25.4542   20.4017   19.2783 H   0  0  0  0  0  0
   28.5681   22.5762   16.0847 H   0  0  0  0  0  0
   18.3837   19.9045   14.9354 H   0  0  0  0  0  0
   19.8391   19.0497   15.5255 H   0  0  0  0  0  0
   19.9876   20.3224   14.2647 H   0  0  0  0  0  0
  1  2  2  0  0  0
  1  4  1  0  0  0
  1 18  1  0  0  0
  2  3  1  0  0  0
  2 15  1  0  0  0
  3  5  2  0  0  0
  3  9  1  0  0  0
  4 10  2  0  0  0
  4 14  1  0  0  0
  5  6  1  0  0  0
  5 26  1  0  0  0
  6  7  2  0  0  0
  6 27  1  0  0  0
  7  8  1  0  0  0
  7 19  1  0  0  0
  8  9  2  0  0  0
  8 28  1  0  0  0
  9 29  1  0  0  0
 10 11  1  0  0  0
 10 30  1  0  0  0
 11 12  2  0  0  0
 11 31  1  0  0  0
 12 13  1  0  0  0
 12 25  1  0  0  0
 13 14  2  0  0  0
 13 32  1  0  0  0
 14 33  1  0  0  0
 15 16  2  0  0  0
 15 34  1  0  0  0
 16 17  1  0  0  0
 16 23  1  0  0  0
 17 18  2  0  0  0
 17 24  1  0  0  0
 18 35  1  0  0  0
 19 20  2  0  0  0
 19 21  2  0  0  0
 19 22  1  0  0  0
 22 36  1  0  0  0
 22 37  1  0  0  0
 22 38  1  0  0  0
M  END
>  <Name>
7-30

>  <Family>
D.1

>  <IC50_uM>
0.240000

>  <set>
0

$$$$
7-32
  Cerius2 12120216093D 1   1.00000                          
 Structure written by MMmdl.
 41 44  0  0  0  0  0  0  0  0999 V2000
   26.5074   22.0645   16.4737 C   0  0  0  0  0  0
   25.6100   21.4402   17.3983 C   0  0  0  0  0  0
   24.1563   21.3869   17.1646 C   0  0  0  0  0  0
   26.0424   22.6584   15.2073 C   0  0  0  0  0  0
   23.5361   22.2869   16.2817 C   0  0  0  0  0  0
   22.1581   22.2342   16.0551 C   0  0  0  0  0  0
   21.3881   21.2712   16.7110 C   0  0  0  0  0  0
   21.9807   20.3771   17.6041 C   0  0  0  0  0  0
   23.3594   20.4382   17.8273 C   0  0  0  0  0  0
   26.2578   24.0196   14.9310 C   0  0  0  0  0  0
   25.8202   24.5812   13.7289 C   0  0  0  0  0  0
   25.1698   23.7830   12.7963 C   0  0  0  0  0  0
   24.9487   22.4340   13.0413 C   0  0  0  0  0  0
   25.3856   21.8731   14.2433 C   0  0  0  0  0  0
   26.1212   20.8609   18.5791 C   0  0  0  0  0  0
   27.4779   20.9179   18.8127 C   0  0  0  0  0  0
   28.3364   21.5231   17.9313 C   0  0  0  0  0  0
   27.8877   22.1024   16.7643 C   0  0  0  0  0  0
   19.6337   21.2187   16.4279 S   0  0  0  0  0  0
   19.2327   22.5158   15.8927 O   0  0  0  0  0  0
   18.9904   20.7413   17.6482 O   0  0  0  0  0  0
   19.4464   19.9857   15.1670 C   0  0  0  0  0  0
   28.1202   20.4064   19.8967 O   0  0  0  0  0  0
   29.6306   21.4707   18.3455 O   0  0  0  0  0  0
   24.7527   24.3207   11.6424 F   0  0  0  0  0  0
   29.4923   20.7544   19.5956 C   0  0  0  0  0  0
   24.1285   23.0398   15.7626 H   0  0  0  0  0  0
   21.7008   22.9429   15.3676 H   0  0  0  0  0  0
   21.3891   19.6294   18.1269 H   0  0  0  0  0  0
   23.8141   19.7310   18.5208 H   0  0  0  0  0  0
   26.7647   24.6537   15.6577 H   0  0  0  0  0  0
   25.9856   25.6341   13.5205 H   0  0  0  0  0  0
   24.4417   21.8229   12.3003 H   0  0  0  0  0  0
   25.2111   20.8135   14.4263 H   0  0  0  0  0  0
   25.4627   20.3815   19.2986 H   0  0  0  0  0  0
   28.5917   22.5685   16.0803 H   0  0  0  0  0  0
   18.3819   19.8912   14.9422 H   0  0  0  0  0  0
   19.8330   19.0352   15.5390 H   0  0  0  0  0  0
   19.9874   20.3032   14.2738 H   0  0  0  0  0  0
   30.0846   19.8342   19.5406 H   0  0  0  0  0  0
   29.8816   21.3818   20.4053 H   0  0  0  0  0  0
  1  2  2  0  0  0
  1  4  1  0  0  0
  1 18  1  0  0  0
  2  3  1  0  0  0
  2 15  1  0  0  0
  3  5  2  0  0  0
  3  9  1  0  0  0
  4 10  2  0  0  0
  4 14  1  0  0  0
  5  6  1  0  0  0
  5 27  1  0  0  0
  6  7  2  0  0  0
  6 28  1  0  0  0
  7  8  1  0  0  0
  7 19  1  0  0  0
  8  9  2  0  0  0
  8 29  1  0  0  0
  9 30  1  0  0  0
 10 11  1  0  0  0
 10 31  1  0  0  0
 11 12  2  0  0  0
 11 32  1  0  0  0
 12 13  1  0  0  0
 12 25  1  0  0  0
 13 14  2  0  0  0
 13 33  1  0  0  0
 14 34  1  0  0  0
 15 16  2  0  0  0
 15 35  1  0  0  0
 16 17  1  0  0  0
 16 23  1  0  0  0
 17 18  2  0  0  0
 17 24  1  0  0  0
 18 36  1  0  0  0
 19 20  2  0  0  0
 19 21  2  0  0  0
 19 22  1  0  0  0
 22 37  1  0  0  0
 22 38  1  0  0  0
 22 39  1  0  0  0
 23 26  1  0  0  0
 24 26  1  0  0  0
 26 40  1  0  0  0
 26 41  1  0  0  0
M  END
>  <Name>
7-32

>  <Family>
D.1

>  <IC50_uM>
0.083000

>  <set>
2

$$$$
7-34
  Cerius2 12120216093D 1   1.00000                          
 Structure written by MMmdl.
 38 40  0  0  0  0  0  0  0  0999 V2000
   26.5053   22.0520   16.4705 C   0  0  0  0  0  0
   25.6152   21.4470   17.3965 C   0  0  0  0  0  0
   24.1649   21.3917   17.1611 C   0  0  0  0  0  0
   26.0346   22.6481   15.2105 C   0  0  0  0  0  0
   23.5492   22.2918   16.2753 C   0  0  0  0  0  0
   22.1719   22.2379   16.0445 C   0  0  0  0  0  0
   21.4000   21.2755   16.6986 C   0  0  0  0  0  0
   21.9905   20.3788   17.5913 C   0  0  0  0  0  0
   23.3686   20.4385   17.8178 C   0  0  0  0  0  0
   26.2519   24.0097   14.9379 C   0  0  0  0  0  0
   25.7982   24.5787   13.7455 C   0  0  0  0  0  0
   25.1286   23.7879   12.8204 C   0  0  0  0  0  0
   24.9028   22.4390   13.0644 C   0  0  0  0  0  0
   25.3563   21.8695   14.2567 C   0  0  0  0  0  0
   26.1425   20.8920   18.5781 C   0  0  0  0  0  0
   27.5040   20.9313   18.8519 C   0  0  0  0  0  0
   28.3707   21.5253   17.9528 C   0  0  0  0  0  0
   27.8790   22.0773   16.7760 C   0  0  0  0  0  0
   19.6448   21.2247   16.4160 S   0  0  0  0  0  0
   19.2428   22.5214   15.8811 O   0  0  0  0  0  0
   19.0026   20.7479   17.6369 O   0  0  0  0  0  0
   19.4571   19.9919   15.1554 C   0  0  0  0  0  0
   24.6970   24.3332   11.6755 F   0  0  0  0  0  0
   28.7447   22.6434   15.9180 F   0  0  0  0  0  0
   29.6863   21.5682   18.2153 F   0  0  0  0  0  0
   27.9766   20.3954   19.9881 F   0  0  0  0  0  0
   25.3211   20.3130   19.4705 F   0  0  0  0  0  0
   24.1419   23.0437   15.7554 H   0  0  0  0  0  0
   21.7169   22.9464   15.3551 H   0  0  0  0  0  0
   21.3973   19.6302   18.1123 H   0  0  0  0  0  0
   23.8211   19.7298   18.5106 H   0  0  0  0  0  0
   26.7732   24.6393   15.6583 H   0  0  0  0  0  0
   25.9656   25.6322   13.5399 H   0  0  0  0  0  0
   24.3773   21.8350   12.3304 H   0  0  0  0  0  0
   25.1730   20.8110   14.4391 H   0  0  0  0  0  0
   18.3908   19.8851   14.9453 H   0  0  0  0  0  0
   19.8611   19.0464   15.5219 H   0  0  0  0  0  0
   19.9828   20.3179   14.2561 H   0  0  0  0  0  0
  1  2  2  0  0  0
  1  4  1  0  0  0
  1 18  1  0  0  0
  2  3  1  0  0  0
  2 15  1  0  0  0
  3  5  2  0  0  0
  3  9  1  0  0  0
  4 10  2  0  0  0
  4 14  1  0  0  0
  5  6  1  0  0  0
  5 28  1  0  0  0
  6  7  2  0  0  0
  6 29  1  0  0  0
  7  8  1  0  0  0
  7 19  1  0  0  0
  8  9  2  0  0  0
  8 30  1  0  0  0
  9 31  1  0  0  0
 10 11  1  0  0  0
 10 32  1  0  0  0
 11 12  2  0  0  0
 11 33  1  0  0  0
 12 13  1  0  0  0
 12 23  1  0  0  0
 13 14  2  0  0  0
 13 34  1  0  0  0
 14 35  1  0  0  0
 15 16  2  0  0  0
 15 27  1  0  0  0
 16 17  1  0  0  0
 16 26  1  0  0  0
 17 18  2  0  0  0
 17 25  1  0  0  0
 18 24  1  0  0  0
 19 20  2  0  0  0
 19 21  2  0  0  0
 19 22  1  0  0  0
 22 36  1  0  0  0
 22 37  1  0  0  0
 22 38  1  0  0  0
M  END
>  <Name>
7-34

>  <Family>
D.1

>  <IC50_uM>
>100

>  <set>
2

$$$$
7-36
  Cerius2 12120216093D 1   1.00000                          
 Structure written by MMmdl.
 44 47  0  0  0  0  0  0  0  0999 V2000
   26.5052   22.0351   16.4639 C   0  0  0  0  0  0
   25.6133   21.4658   17.4052 C   0  0  0  0  0  0
   24.1588   21.4147   17.1786 C   0  0  0  0  0  0
   26.0397   22.6494   15.2064 C   0  0  0  0  0  0
   23.5413   22.2992   16.2782 C   0  0  0  0  0  0
   22.1658   22.2327   16.0370 C   0  0  0  0  0  0
   21.3964   21.2757   16.7019 C   0  0  0  0  0  0
   21.9849   20.4040   17.6200 C   0  0  0  0  0  0
   23.3611   20.4747   17.8528 C   0  0  0  0  0  0
   26.2664   24.0118   14.9414 C   0  0  0  0  0  0
   25.8108   24.5964   13.7572 C   0  0  0  0  0  0
   25.1320   23.8190   12.8281 C   0  0  0  0  0  0
   24.9039   22.4684   13.0580 C   0  0  0  0  0  0
   25.3580   21.8847   14.2434 C   0  0  0  0  0  0
   26.1328   20.9137   18.5932 C   0  0  0  0  0  0
   27.5103   20.9058   18.8653 C   0  0  0  0  0  0
   28.4001   21.4653   17.9259 C   0  0  0  0  0  0
   27.8873   22.0208   16.7419 C   0  0  0  0  0  0
   19.6467   21.1803   16.3998 S   0  0  0  0  0  0
   19.2162   22.4544   15.8323 O   0  0  0  0  0  0
   19.0059   20.7142   17.6256 O   0  0  0  0  0  0
   19.5041   19.9212   15.1589 C   0  0  0  0  0  0
   24.6928   24.3790   11.6931 F   0  0  0  0  0  0
   28.0202   20.3508   20.0508 C   0  0  0  0  0  0
   29.3925   20.3484   20.3048 C   0  0  0  0  0  0
   30.2709   20.9004   19.3777 C   0  0  0  0  0  0
   29.7787   21.4560   18.1953 C   0  0  0  0  0  0
   24.1369   23.0391   15.7443 H   0  0  0  0  0  0
   21.7144   22.9210   15.3258 H   0  0  0  0  0  0
   21.3904   19.6632   18.1506 H   0  0  0  0  0  0
   23.8136   19.7830   18.5627 H   0  0  0  0  0  0
   26.7997   24.6290   15.6636 H   0  0  0  0  0  0
   25.9844   25.6505   13.5612 H   0  0  0  0  0  0
   24.3732   21.8738   12.3195 H   0  0  0  0  0  0
   25.1684   20.8265   14.4180 H   0  0  0  0  0  0
   25.4436   20.4744   19.3157 H   0  0  0  0  0  0
   28.5751   22.4606   16.0183 H   0  0  0  0  0  0
   18.4440   19.7883   14.9313 H   0  0  0  0  0  0
   19.9193   18.9893   15.5468 H   0  0  0  0  0  0
   20.0398   20.2423   14.2634 H   0  0  0  0  0  0
   27.3483   19.9139   20.7890 H   0  0  0  0  0  0
   29.7736   19.9149   21.2277 H   0  0  0  0  0  0
   31.3417   20.8995   19.5735 H   0  0  0  0  0  0
   30.4831   21.8836   17.4826 H   0  0  0  0  0  0
  1  2  2  0  0  0
  1  4  1  0  0  0
  1 18  1  0  0  0
  2  3  1  0  0  0
  2 15  1  0  0  0
  3  5  2  0  0  0
  3  9  1  0  0  0
  4 10  2  0  0  0
  4 14  1  0  0  0
  5  6  1  0  0  0
  5 28  1  0  0  0
  6  7  2  0  0  0
  6 29  1  0  0  0
  7  8  1  0  0  0
  7 19  1  0  0  0
  8  9  2  0  0  0
  8 30  1  0  0  0
  9 31  1  0  0  0
 10 11  1  0  0  0
 10 32  1  0  0  0
 11 12  2  0  0  0
 11 33  1  0  0  0
 12 13  1  0  0  0
 12 23  1  0  0  0
 13 14  2  0  0  0
 13 34  1  0  0  0
 14 35  1  0  0  0
 15 16  2  0  0  0
 15 36  1  0  0  0
 16 17  1  0  0  0
 16 24  1  0  0  0
 17 18  2  0  0  0
 17 27  1  0  0  0
 18 37  1  0  0  0
 19 20  2  0  0  0
 19 21  2  0  0  0
 19 22  1  0  0  0
 22 38  1  0  0  0
 22 39  1  0  0  0
 22 40  1  0  0  0
 24 25  2  0  0  0
 24 41  1  0  0  0
 25 26  1  0  0  0
 25 42  1  0  0  0
 26 27  2  0  0  0
 26 43  1  0  0  0
 27 44  1  0  0  0
M  END
>  <Name>
7-36

>  <Family>
D.1

>  <IC50_uM>
>100

>  <set>
2

$$$$
7-20q
  Cerius2 12120216093D 1   1.00000                          
 Structure written by MMmdl.
 40 42  0  0  0  0  0  0  0  0999 V2000
   26.5002   22.0689   16.4787 C   0  0  0  0  0  0
   25.6052   21.4340   17.3832 C   0  0  0  0  0  0
   24.1520   21.3687   17.1471 C   0  0  0  0  0  0
   26.0542   22.6645   15.2106 C   0  0  0  0  0  0
   23.5230   22.2817   16.2833 C   0  0  0  0  0  0
   22.1415   22.2349   16.0720 C   0  0  0  0  0  0
   21.3764   21.2645   16.7228 C   0  0  0  0  0  0
   21.9790   20.3523   17.5903 C   0  0  0  0  0  0
   23.3611   20.4071   17.7985 C   0  0  0  0  0  0
   26.2573   24.0182   14.9261 C   0  0  0  0  0  0
   25.8366   24.5498   13.7078 C   0  0  0  0  0  0
   25.2230   23.7124   12.7826 C   0  0  0  0  0  0
   25.0132   22.3949   13.0216 N   0  0  0  0  0  0
   25.4290   21.9080   14.2206 C   0  0  0  0  0  0
   26.1179   20.8631   18.5658 C   0  0  0  0  0  0
   27.4757   20.9301   18.8531 C   0  0  0  0  0  0
   28.3462   21.5564   17.9772 C   0  0  0  0  0  0
   27.8720   22.1221   16.7997 C   0  0  0  0  0  0
   19.6157   21.2312   16.4710 S   0  0  0  0  0  0
   19.2166   22.5425   15.9700 O   0  0  0  0  0  0
   18.9902   20.7341   17.6927 O   0  0  0  0  0  0
   19.3916   20.0261   15.1895 C   0  0  0  0  0  0
   29.6553   21.6205   18.2611 F   0  0  0  0  0  0
   27.9394   20.3891   19.9887 F   0  0  0  0  0  0
   24.1084   23.0446   15.7712 H   0  0  0  0  0  0
   21.6783   22.9574   15.4037 H   0  0  0  0  0  0
   21.3930   19.5966   18.1085 H   0  0  0  0  0  0
   23.8212   19.6876   18.4755 H   0  0  0  0  0  0
   25.9906   25.6032   13.4896 H   0  0  0  0  0  0
   24.7646   24.2601   11.4643 C   0  0  0  0  0  0
   25.2459   20.8451   14.3669 H   0  0  0  0  0  0
   25.4561   20.3744   19.2772 H   0  0  0  0  0  0
   28.5812   22.6010   16.1278 H   0  0  0  0  0  0
   18.3212   19.9367   14.9923 H   0  0  0  0  0  0
   19.7876   19.0679   15.5300 H   0  0  0  0  0  0
   19.9079   20.3620   14.2887 H   0  0  0  0  0  0
   26.7393   24.6698   15.6530 H   0  0  0  0  0  0
   24.3465   23.4655   10.8379 H   0  0  0  0  0  0
   23.9898   25.0169   11.6201 H   0  0  0  0  0  0
   25.6063   24.7093   10.9278 H   0  0  0  0  0  0
  1  2  2  0  0  0
  1  4  1  0  0  0
  1 18  1  0  0  0
  2  3  1  0  0  0
  2 15  1  0  0  0
  3  5  2  0  0  0
  3  9  1  0  0  0
  4 10  2  0  0  0
  4 14  1  0  0  0
  5  6  1  0  0  0
  5 25  1  0  0  0
  6  7  2  0  0  0
  6 26  1  0  0  0
  7  8  1  0  0  0
  7 19  1  0  0  0
  8  9  2  0  0  0
  8 27  1  0  0  0
  9 28  1  0  0  0
 10 11  1  0  0  0
 10 37  1  0  0  0
 11 12  2  0  0  0
 11 29  1  0  0  0
 12 13  1  0  0  0
 12 30  1  0  0  0
 13 14  2  0  0  0
 14 31  1  0  0  0
 15 16  2  0  0  0
 15 32  1  0  0  0
 16 17  1  0  0  0
 16 24  1  0  0  0
 17 18  2  0  0  0
 17 23  1  0  0  0
 18 33  1  0  0  0
 19 20  2  0  0  0
 19 21  2  0  0  0
 19 22  1  0  0  0
 22 34  1  0  0  0
 22 35  1  0  0  0
 22 36  1  0  0  0
 30 38  1  0  0  0
 30 39  1  0  0  0
 30 40  1  0  0  0
M  END
>  <Name>
7-20q

>  <Family>
D.2

>  <IC50_uM>
0.170000

>  <set>
2

$$$$
7-21q
  Cerius2 12120216093D 1   1.00000                          
 Structure written by MMmdl.
 39 41  0  0  0  0  0  0  0  0999 V2000
   26.5061   22.0657   16.4825 C   0  0  0  0  0  0
   25.6069   21.4425   17.3928 C   0  0  0  0  0  0
   24.1526   21.3906   17.1606 C   0  0  0  0  0  0
   26.0534   22.6873   15.2236 C   0  0  0  0  0  0
   23.5274   22.2907   16.2814 C   0  0  0  0  0  0
   22.1476   22.2385   16.0624 C   0  0  0  0  0  0
   21.3762   21.2878   16.7349 C   0  0  0  0  0  0
   21.9759   20.3851   17.6147 C   0  0  0  0  0  0
   23.3570   20.4421   17.8268 C   0  0  0  0  0  0
   26.2208   24.0570   14.9372 C   0  0  0  0  0  0
   25.7845   24.5491   13.6989 C   0  0  0  0  0  0
   25.1874   23.6826   12.7980 C   0  0  0  0  0  0
   25.0018   22.3667   13.0368 N   0  0  0  0  0  0
   25.4383   21.9067   14.2381 C   0  0  0  0  0  0
   26.1209   20.8499   18.5641 C   0  0  0  0  0  0
   27.4843   20.8748   18.8305 C   0  0  0  0  0  0
   28.3599   21.4806   17.9444 C   0  0  0  0  0  0
   27.8846   22.0700   16.7791 C   0  0  0  0  0  0
   19.6325   21.2122   16.4299 S   0  0  0  0  0  0
   19.1948   22.4483   15.8056 O   0  0  0  0  0  0
   18.9673   20.7109   17.6193 O   0  0  0  0  0  0
   19.5304   20.0180   15.2596 N   0  0  0  0  0  0
   29.6749   21.4977   18.2054 F   0  0  0  0  0  0
   27.9497   20.3065   19.9524 F   0  0  0  0  0  0
   24.1144   23.0445   15.7585 H   0  0  0  0  0  0
   21.6849   22.9428   15.3741 H   0  0  0  0  0  0
   21.3850   19.6385   18.1402 H   0  0  0  0  0  0
   23.8131   19.7319   18.5162 H   0  0  0  0  0  0
   25.9048   25.5961   13.4330 H   0  0  0  0  0  0
   24.7054   24.1808   11.4678 C   0  0  0  0  0  0
   25.2815   20.8403   14.3975 H   0  0  0  0  0  0
   25.4567   20.3686   19.2785 H   0  0  0  0  0  0
   28.5972   22.5305   16.0982 H   0  0  0  0  0  0
   19.1535   20.3906   14.3843 H   0  0  0  0  0  0
   18.9822   19.2206   15.5925 H   0  0  0  0  0  0
   26.6237   24.6305   15.5785 H   0  0  0  0  0  0
   24.3252   23.4606   10.9787 H   0  0  0  0  0  0
   24.0491   24.8546   11.6009 H   0  0  0  0  0  0
   25.4367   24.5428   10.9813 H   0  0  0  0  0  0
  1  2  2  0  0  0
  1  4  1  0  0  0
  1 18  1  0  0  0
  2  3  1  0  0  0
  2 15  1  0  0  0
  3  5  2  0  0  0
  3  9  1  0  0  0
  4 10  2  0  0  0
  4 14  1  0  0  0
  5  6  1  0  0  0
  5 25  1  0  0  0
  6  7  2  0  0  0
  6 26  1  0  0  0
  7  8  1  0  0  0
  7 19  1  0  0  0
  8  9  2  0  0  0
  8 27  1  0  0  0
  9 28  1  0  0  0
 10 11  1  0  0  0
 10 36  1  0  0  0
 11 12  2  0  0  0
 11 29  1  0  0  0
 12 13  1  0  0  0
 12 30  1  0  0  0
 13 14  2  0  0  0
 14 31  1  0  0  0
 15 16  2  0  0  0
 15 32  1  0  0  0
 16 17  1  0  0  0
 16 24  1  0  0  0
 17 18  2  0  0  0
 17 23  1  0  0  0
 18 33  1  0  0  0
 19 20  2  0  0  0
 19 21  2  0  0  0
 19 22  1  0  0  0
 22 34  1  0  0  0
 22 35  1  0  0  0
 30 37  1  0  0  0
 30 38  1  0  0  0
 30 39  1  0  0  0
M  END
>  <Name>
7-21q

>  <Family>
D.2

>  <IC50_uM>
0.051000

>  <set>
1

$$$$
7-20p
  Cerius2 12120216093D 1   1.00000                          
 Structure written by MMmdl.
 40 42  0  0  0  0  0  0  0  0999 V2000
   26.4997   22.0538   16.4509 C   0  0  0  0  0  0
   25.6001   21.4672   17.3867 C   0  0  0  0  0  0
   24.1438   21.3988   17.1607 C   0  0  0  0  0  0
   26.0554   22.6972   15.2005 C   0  0  0  0  0  0
   23.5110   22.2964   16.2831 C   0  0  0  0  0  0
   22.1320   22.2338   16.0608 C   0  0  0  0  0  0
   21.3716   21.2649   16.7178 C   0  0  0  0  0  0
   21.9744   20.3748   17.6080 C   0  0  0  0  0  0
   23.3540   20.4442   17.8248 C   0  0  0  0  0  0
   26.2577   24.0505   14.9411 C   0  0  0  0  0  0
   25.8161   24.5831   13.7313 C   0  0  0  0  0  0
   25.1801   23.7599   12.8039 C   0  0  0  0  0  0
   25.0441   22.4164   13.1300 C   0  0  0  0  0  0
   25.4649   21.8701   14.2977 N   0  0  0  0  0  0
   26.1182   20.9003   18.5708 C   0  0  0  0  0  0
   27.4850   20.9002   18.8196 C   0  0  0  0  0  0
   28.3620   21.4562   17.9040 C   0  0  0  0  0  0
   27.8834   22.0264   16.7313 C   0  0  0  0  0  0
   19.6154   21.1920   16.4481 S   0  0  0  0  0  0
   19.1891   22.4844   15.9201 O   0  0  0  0  0  0
   18.9914   20.7033   17.6738 O   0  0  0  0  0  0
   19.4361   19.9635   15.1819 C   0  0  0  0  0  0
   29.6807   21.4493   18.1465 F   0  0  0  0  0  0
   27.9521   20.3512   19.9502 F   0  0  0  0  0  0
   24.7203   24.2843   11.4800 C   0  0  0  0  0  0
   24.0942   23.0517   15.7564 H   0  0  0  0  0  0
   21.6692   22.9388   15.3735 H   0  0  0  0  0  0
   21.3887   19.6239   18.1340 H   0  0  0  0  0  0
   23.8122   19.7423   18.5216 H   0  0  0  0  0  0
   26.7585   24.6902   15.6622 H   0  0  0  0  0  0
   25.9743   25.6394   13.5212 H   0  0  0  0  0  0
   24.5784   21.7178   12.4368 H   0  0  0  0  0  0
   25.4556   20.4416   19.3017 H   0  0  0  0  0  0
   28.5948   22.4601   16.0315 H   0  0  0  0  0  0
   18.3719   19.8585   14.9602 H   0  0  0  0  0  0
   19.8345   19.0152   15.5473 H   0  0  0  0  0  0
   19.9709   20.2916   14.2888 H   0  0  0  0  0  0
   23.8066   23.7746   11.1569 H   0  0  0  0  0  0
   25.4979   24.1322   10.7252 H   0  0  0  0  0  0
   24.4922   25.3538   11.5395 H   0  0  0  0  0  0
  1  2  2  0  0  0
  1  4  1  0  0  0
  1 18  1  0  0  0
  2  3  1  0  0  0
  2 15  1  0  0  0
  3  5  2  0  0  0
  3  9  1  0  0  0
  4 10  2  0  0  0
  4 14  1  0  0  0
  5  6  1  0  0  0
  5 26  1  0  0  0
  6  7  2  0  0  0
  6 27  1  0  0  0
  7  8  1  0  0  0
  7 19  1  0  0  0
  8  9  2  0  0  0
  8 28  1  0  0  0
  9 29  1  0  0  0
 10 11  1  0  0  0
 10 30  1  0  0  0
 11 12  2  0  0  0
 11 31  1  0  0  0
 12 13  1  0  0  0
 12 25  1  0  0  0
 13 14  2  0  0  0
 13 32  1  0  0  0
 15 16  2  0  0  0
 15 33  1  0  0  0
 16 17  1  0  0  0
 16 24  1  0  0  0
 17 18  2  0  0  0
 17 23  1  0  0  0
 18 34  1  0  0  0
 19 20  2  0  0  0
 19 21  2  0  0  0
 19 22  1  0  0  0
 22 35  1  0  0  0
 22 36  1  0  0  0
 22 37  1  0  0  0
 25 38  1  0  0  0
 25 39  1  0  0  0
 25 40  1  0  0  0
M  END
>  <Name>
7-20p

>  <Family>
D.2

>  <IC50_uM>
52.300000

>  <set>
1

$$$$
7-21p
  Cerius2 12120216093D 1   1.00000                          
 Structure written by MMmdl.
 39 41  0  0  0  0  0  0  0  0999 V2000
   26.4990   22.0557   16.4517 C   0  0  0  0  0  0
   25.5989   21.4676   17.3859 C   0  0  0  0  0  0
   24.1427   21.3951   17.1578 C   0  0  0  0  0  0
   26.0572   22.6979   15.1998 C   0  0  0  0  0  0
   23.5075   22.2945   16.2837 C   0  0  0  0  0  0
   22.1282   22.2299   16.0637 C   0  0  0  0  0  0
   21.3680   21.2584   16.7190 C   0  0  0  0  0  0
   21.9750   20.3638   17.6016 C   0  0  0  0  0  0
   23.3551   20.4354   17.8176 C   0  0  0  0  0  0
   26.2552   24.0518   14.9412 C   0  0  0  0  0  0
   25.8187   24.5819   13.7285 C   0  0  0  0  0  0
   25.2118   23.7510   12.7884 C   0  0  0  0  0  0
   25.0528   22.4133   13.1263 C   0  0  0  0  0  0
   25.4680   21.8696   14.2971 N   0  0  0  0  0  0
   26.1163   20.9022   18.5710 C   0  0  0  0  0  0
   27.4829   20.9045   18.8219 C   0  0  0  0  0  0
   28.3603   21.4622   17.9081 C   0  0  0  0  0  0
   27.8823   22.0314   16.7346 C   0  0  0  0  0  0
   19.6170   21.2025   16.4550 S   0  0  0  0  0  0
   19.1884   22.4609   15.8706 O   0  0  0  0  0  0
   18.9636   20.6806   17.6424 O   0  0  0  0  0  0
   19.4756   20.0273   15.2699 N   0  0  0  0  0  0
   29.6786   21.4578   18.1526 F   0  0  0  0  0  0
   27.9492   20.3556   19.9530 F   0  0  0  0  0  0
   24.6976   24.2901   11.4906 C   0  0  0  0  0  0
   24.0884   23.0524   15.7585 H   0  0  0  0  0  0
   21.6588   22.9336   15.3794 H   0  0  0  0  0  0
   21.3916   19.6090   18.1240 H   0  0  0  0  0  0
   23.8153   19.7313   18.5109 H   0  0  0  0  0  0
   26.7438   24.6954   15.6672 H   0  0  0  0  0  0
   25.9588   25.6421   13.5253 H   0  0  0  0  0  0
   24.5718   21.7171   12.4412 H   0  0  0  0  0  0
   25.4537   20.4421   19.3010 H   0  0  0  0  0  0
   28.5941   22.4663   16.0360 H   0  0  0  0  0  0
   19.0715   20.4139   14.4131 H   0  0  0  0  0  0
   18.9365   19.2259   15.6079 H   0  0  0  0  0  0
   23.6630   24.6263   11.6077 H   0  0  0  0  0  0
   24.7346   23.5252   10.7078 H   0  0  0  0  0  0
   25.3073   25.1334   11.1497 H   0  0  0  0  0  0
  1  2  2  0  0  0
  1  4  1  0  0  0
  1 18  1  0  0  0
  2  3  1  0  0  0
  2 15  1  0  0  0
  3  5  2  0  0  0
  3  9  1  0  0  0
  4 10  2  0  0  0
  4 14  1  0  0  0
  5  6  1  0  0  0
  5 26  1  0  0  0
  6  7  2  0  0  0
  6 27  1  0  0  0
  7  8  1  0  0  0
  7 19  1  0  0  0
  8  9  2  0  0  0
  8 28  1  0  0  0
  9 29  1  0  0  0
 10 11  1  0  0  0
 10 30  1  0  0  0
 11 12  2  0  0  0
 11 31  1  0  0  0
 12 13  1  0  0  0
 12 25  1  0  0  0
 13 14  2  0  0  0
 13 32  1  0  0  0
 15 16  2  0  0  0
 15 33  1  0  0  0
 16 17  1  0  0  0
 16 24  1  0  0  0
 17 18  2  0  0  0
 17 23  1  0  0  0
 18 34  1  0  0  0
 19 20  2  0  0  0
 19 21  2  0  0  0
 19 22  1  0  0  0
 22 35  1  0  0  0
 22 36  1  0  0  0
 25 37  1  0  0  0
 25 38  1  0  0  0
 25 39  1  0  0  0
M  END
>  <Name>
7-21p

>  <Family>
D.2

>  <IC50_uM>
0.330000

>  <set>
2

$$$$
8-1a
  Cerius2 12120216093D 1   1.00000                          
 Structure written by MMmdl.
 37 39  0  0  0  0  0  0  0  0999 V2000
   21.2482   21.1840   16.9468 C   0  0  0  0  0  0
   21.9649   20.3187   17.7728 C   0  0  0  0  0  0
   23.3573   20.4349   17.8532 C   0  0  0  0  0  0
   24.0467   21.4025   17.0969 C   0  0  0  0  0  0
   23.3087   22.2712   16.2816 C   0  0  0  0  0  0
   21.9149   22.1573   16.1994 C   0  0  0  0  0  0
   25.4721   21.4901   17.2160 N   0  0  0  0  0  0
   26.2132   22.7290   15.0979 C   0  0  0  0  0  0
   26.4721   24.0889   14.8815 C   0  0  0  0  0  0
   26.2963   24.6486   13.6139 C   0  0  0  0  0  0
   25.8724   23.8517   12.5516 C   0  0  0  0  0  0
   25.6295   22.4941   12.7528 C   0  0  0  0  0  0
   25.8045   21.9323   14.0197 C   0  0  0  0  0  0
   26.4159   22.1441   16.4218 C   0  0  0  0  0  0
   26.0764   20.8718   18.2810 N   0  0  0  0  0  0
   27.3625   21.2670   18.2508 C   0  0  0  0  0  0
   27.6109   22.0620   17.1135 C   0  0  0  0  0  0
   28.3689   20.8535   19.2908 C   0  0  0  0  0  0
   27.9192   21.0516   20.5660 F   0  0  0  0  0  0
   29.5450   21.5423   19.1935 F   0  0  0  0  0  0
   28.6948   19.5298   19.2007 F   0  0  0  0  0  0
   19.4875   21.0413   16.8139 S   0  0  0  0  0  0
   18.9326   22.2998   16.3472 O   0  0  0  0  0  0
   18.9740   20.4090   18.0159 O   0  0  0  0  0  0
   19.3174   19.9435   15.5599 N   0  0  0  0  0  0
   21.4577   19.5559   18.3596 H   0  0  0  0  0  0
   23.8914   19.7448   18.5056 H   0  0  0  0  0  0
   23.7704   23.0775   15.7214 H   0  0  0  0  0  0
   21.3584   22.8422   15.5623 H   0  0  0  0  0  0
   26.8047   24.7259   15.6998 H   0  0  0  0  0  0
   26.4918   25.7078   13.4559 H   0  0  0  0  0  0
   25.7354   24.2890   11.5641 H   0  0  0  0  0  0
   25.3054   21.8701   11.9218 H   0  0  0  0  0  0
   25.6180   20.8680   14.1553 H   0  0  0  0  0  0
   28.5626   22.4770   16.8044 H   0  0  0  0  0  0
   18.8319   20.3652   14.7638 H   0  0  0  0  0  0
   18.8460   19.0921   15.8763 H   0  0  0  0  0  0
  1  2  2  0  0  0
  1  6  1  0  0  0
  1 22  1  0  0  0
  2  3  1  0  0  0
  2 26  1  0  0  0
  3  4  2  0  0  0
  3 27  1  0  0  0
  4  5  1  0  0  0
  4  7  1  0  0  0
  5  6  2  0  0  0
  5 28  1  0  0  0
  6 29  1  0  0  0
  7 14  1  0  0  0
  7 15  1  0  0  0
  8  9  2  0  0  0
  8 13  1  0  0  0
  8 14  1  0  0  0
  9 10  1  0  0  0
  9 30  1  0  0  0
 10 11  2  0  0  0
 10 31  1  0  0  0
 11 12  1  0  0  0
 11 32  1  0  0  0
 12 13  2  0  0  0
 12 33  1  0  0  0
 13 34  1  0  0  0
 14 17  2  0  0  0
 15 16  2  0  0  0
 16 17  1  0  0  0
 16 18  1  0  0  0
 17 35  1  0  0  0
 18 19  1  0  0  0
 18 20  1  0  0  0
 18 21  1  0  0  0
 22 23  2  0  0  0
 22 24  2  0  0  0
 22 25  1  0  0  0
 25 36  1  0  0  0
 25 37  1  0  0  0
M  END
>  <Name>
8-1a

>  <Family>
E.1

>  <IC50_uM>
0.032000

>  <set>
1

$$$$
8-1b
  Cerius2 12120216093D 1   1.00000                          
 Structure written by MMmdl.
 37 39  0  0  0  0  0  0  0  0999 V2000
   21.2480   21.1840   16.9453 C   0  0  0  0  0  0
   21.9653   20.3204   17.7722 C   0  0  0  0  0  0
   23.3574   20.4390   17.8542 C   0  0  0  0  0  0
   24.0466   21.4078   17.0987 C   0  0  0  0  0  0
   23.3079   22.2746   16.2821 C   0  0  0  0  0  0
   21.9142   22.1579   16.1984 C   0  0  0  0  0  0
   25.4721   21.4951   17.2194 N   0  0  0  0  0  0
   26.2139   22.7309   15.1005 C   0  0  0  0  0  0
   26.4670   24.0895   14.8711 C   0  0  0  0  0  0
   26.2922   24.6534   13.6098 C   0  0  0  0  0  0
   25.8671   23.8545   12.5497 C   0  0  0  0  0  0
   25.6243   22.4961   12.7558 C   0  0  0  0  0  0
   25.8016   21.9338   14.0235 C   0  0  0  0  0  0
   26.4183   22.1409   16.4226 C   0  0  0  0  0  0
   26.0741   20.8783   18.2861 N   0  0  0  0  0  0
   27.3647   21.2573   18.2481 C   0  0  0  0  0  0
   27.6170   22.0442   17.1062 C   0  0  0  0  0  0
   28.3701   20.8376   19.2868 C   0  0  0  0  0  0
   27.9434   21.0857   20.5611 F   0  0  0  0  0  0
   29.5677   21.4824   19.1566 F   0  0  0  0  0  0
   28.6496   19.5014   19.2296 F   0  0  0  0  0  0
   19.4880   21.0348   16.8092 S   0  0  0  0  0  0
   18.9286   22.2959   16.3551 O   0  0  0  0  0  0
   18.9753   20.3885   18.0044 O   0  0  0  0  0  0
   19.3240   19.9481   15.5451 N   0  0  0  0  0  0
   26.8725   24.8810   15.8767 F   0  0  0  0  0  0
   21.4587   19.5572   18.3589 H   0  0  0  0  0  0
   23.8916   19.7494   18.5072 H   0  0  0  0  0  0
   23.7661   23.0817   15.7215 H   0  0  0  0  0  0
   21.3572   22.8417   15.5603 H   0  0  0  0  0  0
   26.4876   25.7114   13.4588 H   0  0  0  0  0  0
   25.7282   24.2890   11.5614 H   0  0  0  0  0  0
   25.2983   21.8704   11.9262 H   0  0  0  0  0  0
   25.6152   20.8698   14.1602 H   0  0  0  0  0  0
   28.5717   22.4483   16.7921 H   0  0  0  0  0  0
   18.8362   20.3749   14.7532 H   0  0  0  0  0  0
   18.8575   19.0909   15.8531 H   0  0  0  0  0  0
  1  2  2  0  0  0
  1  6  1  0  0  0
  1 22  1  0  0  0
  2  3  1  0  0  0
  2 27  1  0  0  0
  3  4  2  0  0  0
  3 28  1  0  0  0
  4  5  1  0  0  0
  4  7  1  0  0  0
  5  6  2  0  0  0
  5 29  1  0  0  0
  6 30  1  0  0  0
  7 14  1  0  0  0
  7 15  1  0  0  0
  8  9  2  0  0  0
  8 13  1  0  0  0
  8 14  1  0  0  0
  9 10  1  0  0  0
  9 26  1  0  0  0
 10 11  2  0  0  0
 10 31  1  0  0  0
 11 12  1  0  0  0
 11 32  1  0  0  0
 12 13  2  0  0  0
 12 33  1  0  0  0
 13 34  1  0  0  0
 14 17  2  0  0  0
 15 16  2  0  0  0
 16 17  1  0  0  0
 16 18  1  0  0  0
 17 35  1  0  0  0
 18 19  1  0  0  0
 18 20  1  0  0  0
 18 21  1  0  0  0
 22 23  2  0  0  0
 22 24  2  0  0  0
 22 25  1  0  0  0
 25 36  1  0  0  0
 25 37  1  0  0  0
M  END
>  <Name>
8-1b

>  <Family>
E.1

>  <IC50_uM>
0.058000

>  <set>
0

$$$$
8-1c
  Cerius2 12120216093D 1   1.00000                          
 Structure written by MMmdl.
 37 39  0  0  0  0  0  0  0  0999 V2000
   21.2484   21.1855   16.9480 C   0  0  0  0  0  0
   21.9650   20.3206   17.7744 C   0  0  0  0  0  0
   23.3572   20.4361   17.8545 C   0  0  0  0  0  0
   24.0466   21.4029   17.0973 C   0  0  0  0  0  0
   23.3092   22.2727   16.2827 C   0  0  0  0  0  0
   21.9153   22.1593   16.2010 C   0  0  0  0  0  0
   25.4719   21.4893   17.2153 N   0  0  0  0  0  0
   26.2123   22.7344   15.0993 C   0  0  0  0  0  0
   26.4704   24.0932   14.8843 C   0  0  0  0  0  0
   26.2955   24.6366   13.6152 C   0  0  0  0  0  0
   25.8777   23.8513   12.5473 C   0  0  0  0  0  0
   25.6347   22.4943   12.7486 C   0  0  0  0  0  0
   25.8069   21.9362   14.0185 C   0  0  0  0  0  0
   26.4145   22.1478   16.4228 C   0  0  0  0  0  0
   26.0773   20.8662   18.2763 N   0  0  0  0  0  0
   27.3625   21.2642   18.2482 C   0  0  0  0  0  0
   27.6098   22.0645   17.1143 C   0  0  0  0  0  0
   28.3690   20.8484   19.2875 C   0  0  0  0  0  0
   29.5511   21.5255   19.1819 F   0  0  0  0  0  0
   28.6824   19.5210   19.2059 F   0  0  0  0  0  0
   27.9250   21.0595   20.5627 F   0  0  0  0  0  0
   19.4881   21.0398   16.8123 S   0  0  0  0  0  0
   18.9320   22.2972   16.3441 O   0  0  0  0  0  0
   18.9743   20.4080   18.0145 O   0  0  0  0  0  0
   19.3204   19.9409   15.5590 N   0  0  0  0  0  0
   26.5342   25.9407   13.4191 F   0  0  0  0  0  0
   21.4577   19.5580   18.3613 H   0  0  0  0  0  0
   23.8917   19.7459   18.5066 H   0  0  0  0  0  0
   23.7715   23.0793   15.7234 H   0  0  0  0  0  0
   21.3585   22.8450   15.5648 H   0  0  0  0  0  0
   26.7996   24.7380   15.6945 H   0  0  0  0  0  0
   25.7476   24.2961   11.5649 H   0  0  0  0  0  0
   25.3138   21.8683   11.9182 H   0  0  0  0  0  0
   25.6218   20.8714   14.1551 H   0  0  0  0  0  0
   28.5615   22.4809   16.8071 H   0  0  0  0  0  0
   18.8352   20.3619   14.7626 H   0  0  0  0  0  0
   18.8492   19.0894   15.8754 H   0  0  0  0  0  0
  1  2  2  0  0  0
  1  6  1  0  0  0
  1 22  1  0  0  0
  2  3  1  0  0  0
  2 27  1  0  0  0
  3  4  2  0  0  0
  3 28  1  0  0  0
  4  5  1  0  0  0
  4  7  1  0  0  0
  5  6  2  0  0  0
  5 29  1  0  0  0
  6 30  1  0  0  0
  7 14  1  0  0  0
  7 15  1  0  0  0
  8  9  2  0  0  0
  8 13  1  0  0  0
  8 14  1  0  0  0
  9 10  1  0  0  0
  9 31  1  0  0  0
 10 11  2  0  0  0
 10 26  1  0  0  0
 11 12  1  0  0  0
 11 32  1  0  0  0
 12 13  2  0  0  0
 12 33  1  0  0  0
 13 34  1  0  0  0
 14 17  2  0  0  0
 15 16  2  0  0  0
 16 17  1  0  0  0
 16 18  1  0  0  0
 17 35  1  0  0  0
 18 19  1  0  0  0
 18 20  1  0  0  0
 18 21  1  0  0  0
 22 23  2  0  0  0
 22 24  2  0  0  0
 22 25  1  0  0  0
 25 36  1  0  0  0
 25 37  1  0  0  0
M  END
>  <Name>
8-1c

>  <Family>
E.1

>  <IC50_uM>
7.730000

>  <set>
0

$$$$
8-1d
  Cerius2 12120216093D 1   1.00000                          
 Structure written by MMmdl.
 37 39  0  0  0  0  0  0  0  0999 V2000
   21.2489   21.1851   16.9466 C   0  0  0  0  0  0
   21.9650   20.3205   17.7739 C   0  0  0  0  0  0
   23.3573   20.4363   17.8552 C   0  0  0  0  0  0
   24.0470   21.4033   17.0985 C   0  0  0  0  0  0
   23.3096   22.2732   16.2837 C   0  0  0  0  0  0
   21.9159   22.1591   16.2003 C   0  0  0  0  0  0
   25.4724   21.4899   17.2170 N   0  0  0  0  0  0
   26.2112   22.7294   15.0985 C   0  0  0  0  0  0
   26.4697   24.0911   14.8824 C   0  0  0  0  0  0
   26.2960   24.6491   13.6138 C   0  0  0  0  0  0
   25.8759   23.8437   12.5621 C   0  0  0  0  0  0
   25.6304   22.4891   12.7525 C   0  0  0  0  0  0
   25.8035   21.9291   14.0202 C   0  0  0  0  0  0
   26.4149   22.1455   16.4225 C   0  0  0  0  0  0
   26.0781   20.8689   18.2791 N   0  0  0  0  0  0
   27.3638   21.2653   18.2486 C   0  0  0  0  0  0
   27.6107   22.0628   17.1126 C   0  0  0  0  0  0
   28.3716   20.8510   19.2870 C   0  0  0  0  0  0
   27.9300   21.0647   20.5625 F   0  0  0  0  0  0
   29.5538   21.5274   19.1782 F   0  0  0  0  0  0
   28.6845   19.5235   19.2074 F   0  0  0  0  0  0
   19.4885   21.0400   16.8104 S   0  0  0  0  0  0
   18.9330   22.2979   16.3427 O   0  0  0  0  0  0
   18.9740   20.4075   18.0119 O   0  0  0  0  0  0
   19.3215   19.9419   15.5564 N   0  0  0  0  0  0
   25.7100   24.3801   11.3456 F   0  0  0  0  0  0
   21.4574   19.5580   18.3605 H   0  0  0  0  0  0
   23.8913   19.7463   18.5080 H   0  0  0  0  0  0
   23.7718   23.0806   15.7256 H   0  0  0  0  0  0
   21.3592   22.8444   15.5634 H   0  0  0  0  0  0
   26.8012   24.7285   15.7007 H   0  0  0  0  0  0
   26.4886   25.7048   13.4454 H   0  0  0  0  0  0
   25.3094   21.8734   11.9172 H   0  0  0  0  0  0
   25.6190   20.8647   14.1573 H   0  0  0  0  0  0
   28.5623   22.4780   16.8034 H   0  0  0  0  0  0
   18.8382   20.3635   14.7590 H   0  0  0  0  0  0
   18.8487   19.0911   15.8718 H   0  0  0  0  0  0
  1  2  2  0  0  0
  1  6  1  0  0  0
  1 22  1  0  0  0
  2  3  1  0  0  0
  2 27  1  0  0  0
  3  4  2  0  0  0
  3 28  1  0  0  0
  4  5  1  0  0  0
  4  7  1  0  0  0
  5  6  2  0  0  0
  5 29  1  0  0  0
  6 30  1  0  0  0
  7 14  1  0  0  0
  7 15  1  0  0  0
  8  9  2  0  0  0
  8 13  1  0  0  0
  8 14  1  0  0  0
  9 10  1  0  0  0
  9 31  1  0  0  0
 10 11  2  0  0  0
 10 32  1  0  0  0
 11 12  1  0  0  0
 11 26  1  0  0  0
 12 13  2  0  0  0
 12 33  1  0  0  0
 13 34  1  0  0  0
 14 17  2  0  0  0
 15 16  2  0  0  0
 16 17  1  0  0  0
 16 18  1  0  0  0
 17 35  1  0  0  0
 18 19  1  0  0  0
 18 20  1  0  0  0
 18 21  1  0  0  0
 22 23  2  0  0  0
 22 24  2  0  0  0
 22 25  1  0  0  0
 25 36  1  0  0  0
 25 37  1  0  0  0
M  END
>  <Name>
8-1d

>  <Family>
E.1

>  <IC50_uM>
0.041000

>  <set>
0

$$$$
8-1e
  Cerius2 12120216093D 1   1.00000                          
 Structure written by MMmdl.
 37 39  0  0  0  0  0  0  0  0999 V2000
   21.2362   21.1727   16.9490 C   0  0  0  0  0  0
   21.9616   20.3180   17.7766 C   0  0  0  0  0  0
   23.3529   20.4508   17.8576 C   0  0  0  0  0  0
   24.0373   21.4276   17.1054 C   0  0  0  0  0  0
   23.2879   22.2804   16.2847 C   0  0  0  0  0  0
   21.8943   22.1502   16.2010 C   0  0  0  0  0  0
   25.4655   21.5173   17.2269 N   0  0  0  0  0  0
   26.2260   22.7535   15.1071 C   0  0  0  0  0  0
   26.4785   24.1183   14.8784 C   0  0  0  0  0  0
   26.3034   24.6650   13.6033 C   0  0  0  0  0  0
   25.8858   23.8570   12.5455 C   0  0  0  0  0  0
   25.6437   22.5016   12.7581 C   0  0  0  0  0  0
   25.8163   21.9509   14.0300 C   0  0  0  0  0  0
   26.4241   22.1260   16.4142 C   0  0  0  0  0  0
   26.0608   20.9234   18.3124 N   0  0  0  0  0  0
   27.3693   21.2225   18.2290 C   0  0  0  0  0  0
   27.6351   21.9635   17.0620 C   0  0  0  0  0  0
   28.3797   20.7753   19.2508 C   0  0  0  0  0  0
   27.9369   20.9256   20.5346 F   0  0  0  0  0  0
   29.5530   21.4712   19.1721 F   0  0  0  0  0  0
   28.7093   19.4570   19.1109 F   0  0  0  0  0  0
   19.4788   21.0022   16.8079 S   0  0  0  0  0  0
   18.9077   22.2500   16.3330 O   0  0  0  0  0  0
   18.9678   20.3682   18.0105 O   0  0  0  0  0  0
   19.3317   19.8948   15.5600 N   0  0  0  0  0  0
   26.9843   25.1800   16.1485 Cl  0  0  0  0  0  0
   21.4636   19.5494   18.3639 H   0  0  0  0  0  0
   23.8889   19.7655   18.5136 H   0  0  0  0  0  0
   23.7309   23.0812   15.7063 H   0  0  0  0  0  0
   21.3324   22.8248   15.5571 H   0  0  0  0  0  0
   26.4907   25.7218   13.4247 H   0  0  0  0  0  0
   25.7516   24.2859   11.5540 H   0  0  0  0  0  0
   25.3221   21.8697   11.9319 H   0  0  0  0  0  0
   25.6287   20.8874   14.1737 H   0  0  0  0  0  0
   28.6001   22.3158   16.7182 H   0  0  0  0  0  0
   18.8417   20.3037   14.7603 H   0  0  0  0  0  0
   18.8736   19.0373   15.8795 H   0  0  0  0  0  0
  1  2  2  0  0  0
  1  6  1  0  0  0
  1 22  1  0  0  0
  2  3  1  0  0  0
  2 27  1  0  0  0
  3  4  2  0  0  0
  3 28  1  0  0  0
  4  5  1  0  0  0
  4  7  1  0  0  0
  5  6  2  0  0  0
  5 29  1  0  0  0
  6 30  1  0  0  0
  7 14  1  0  0  0
  7 15  1  0  0  0
  8  9  2  0  0  0
  8 13  1  0  0  0
  8 14  1  0  0  0
  9 10  1  0  0  0
  9 26  1  0  0  0
 10 11  2  0  0  0
 10 31  1  0  0  0
 11 12  1  0  0  0
 11 32  1  0  0  0
 12 13  2  0  0  0
 12 33  1  0  0  0
 13 34  1  0  0  0
 14 17  2  0  0  0
 15 16  2  0  0  0
 16 17  1  0  0  0
 16 18  1  0  0  0
 17 35  1  0  0  0
 18 19  1  0  0  0
 18 20  1  0  0  0
 18 21  1  0  0  0
 22 23  2  0  0  0
 22 24  2  0  0  0
 22 25  1  0  0  0
 25 36  1  0  0  0
 25 37  1  0  0  0
M  END
>  <Name>
8-1e

>  <Family>
E.1

>  <IC50_uM>
0.056000

>  <set>
0

$$$$
8-1f
  Cerius2 12120216093D 1   1.00000                          
 Structure written by MMmdl.
 37 39  0  0  0  0  0  0  0  0999 V2000
   21.2492   21.1862   16.9464 C   0  0  0  0  0  0
   21.9650   20.3223   17.7748 C   0  0  0  0  0  0
   23.3571   20.4385   17.8572 C   0  0  0  0  0  0
   24.0469   21.4057   17.1010 C   0  0  0  0  0  0
   23.3099   22.2754   16.2857 C   0  0  0  0  0  0
   21.9164   22.1607   16.2010 C   0  0  0  0  0  0
   25.4724   21.4914   17.2186 N   0  0  0  0  0  0
   26.2102   22.7300   15.0996 C   0  0  0  0  0  0
   26.4677   24.0902   14.8818 C   0  0  0  0  0  0
   26.2939   24.6484   13.6119 C   0  0  0  0  0  0
   25.8728   23.8456   12.5538 C   0  0  0  0  0  0
   25.6287   22.4885   12.7531 C   0  0  0  0  0  0
   25.8029   21.9302   14.0227 C   0  0  0  0  0  0
   26.4148   22.1459   16.4230 C   0  0  0  0  0  0
   26.0789   20.8675   18.2785 N   0  0  0  0  0  0
   27.3663   21.2585   18.2440 C   0  0  0  0  0  0
   27.6124   22.0585   17.1097 C   0  0  0  0  0  0
   28.3768   20.8344   19.2758 C   0  0  0  0  0  0
   27.9321   21.0193   20.5545 F   0  0  0  0  0  0
   29.5527   21.5238   19.1806 F   0  0  0  0  0  0
   28.7022   19.5117   19.1707 F   0  0  0  0  0  0
   19.4896   21.0372   16.8059 S   0  0  0  0  0  0
   18.9324   22.2931   16.3356 O   0  0  0  0  0  0
   18.9734   20.4049   18.0071 O   0  0  0  0  0  0
   19.3274   19.9375   15.5530 N   0  0  0  0  0  0
   25.6586   24.5328   10.9904 Cl  0  0  0  0  0  0
   21.4571   19.5598   18.3612 H   0  0  0  0  0  0
   23.8906   19.7487   18.5103 H   0  0  0  0  0  0
   23.7725   23.0830   15.7279 H   0  0  0  0  0  0
   21.3602   22.8455   15.5632 H   0  0  0  0  0  0
   26.7989   24.7287   15.6995 H   0  0  0  0  0  0
   26.4907   25.7070   13.4599 H   0  0  0  0  0  0
   25.3063   21.8562   11.9291 H   0  0  0  0  0  0
   25.6185   20.8659   14.1608 H   0  0  0  0  0  0
   28.5645   22.4703   16.7978 H   0  0  0  0  0  0
   18.8490   20.3588   14.7525 H   0  0  0  0  0  0
   18.8518   19.0876   15.8672 H   0  0  0  0  0  0
  1  2  2  0  0  0
  1  6  1  0  0  0
  1 22  1  0  0  0
  2  3  1  0  0  0
  2 27  1  0  0  0
  3  4  2  0  0  0
  3 28  1  0  0  0
  4  5  1  0  0  0
  4  7  1  0  0  0
  5  6  2  0  0  0
  5 29  1  0  0  0
  6 30  1  0  0  0
  7 14  1  0  0  0
  7 15  1  0  0  0
  8  9  2  0  0  0
  8 13  1  0  0  0
  8 14  1  0  0  0
  9 10  1  0  0  0
  9 31  1  0  0  0
 10 11  2  0  0  0
 10 32  1  0  0  0
 11 12  1  0  0  0
 11 26  1  0  0  0
 12 13  2  0  0  0
 12 33  1  0  0  0
 13 34  1  0  0  0
 14 17  2  0  0  0
 15 16  2  0  0  0
 16 17  1  0  0  0
 16 18  1  0  0  0
 17 35  1  0  0  0
 18 19  1  0  0  0
 18 20  1  0  0  0
 18 21  1  0  0  0
 22 23  2  0  0  0
 22 24  2  0  0  0
 22 25  1  0  0  0
 25 36  1  0  0  0
 25 37  1  0  0  0
M  END
>  <Name>
8-1f

>  <Family>
E.1

>  <IC50_uM>
0.010000

>  <set>
0

$$$$
8-1g
  Cerius2 12120216093D 1   1.00000                          
 Structure written by MMmdl.
 40 42  0  0  0  0  0  0  0  0999 V2000
   21.2410   21.1807   16.9449 C   0  0  0  0  0  0
   21.9628   20.3216   17.7717 C   0  0  0  0  0  0
   23.3544   20.4479   17.8534 C   0  0  0  0  0  0
   24.0421   21.4216   17.1009 C   0  0  0  0  0  0
   23.2975   22.2794   16.2809 C   0  0  0  0  0  0
   21.9037   22.1552   16.1966 C   0  0  0  0  0  0
   25.4696   21.5094   17.2239 N   0  0  0  0  0  0
   26.2224   22.7567   15.1114 C   0  0  0  0  0  0
   26.4708   24.1271   14.8875 C   0  0  0  0  0  0
   26.2869   24.6515   13.5972 C   0  0  0  0  0  0
   25.8633   23.8360   12.5473 C   0  0  0  0  0  0
   25.6245   22.4833   12.7692 C   0  0  0  0  0  0
   25.8080   21.9447   14.0426 C   0  0  0  0  0  0
   26.4247   22.1391   16.4223 C   0  0  0  0  0  0
   26.0667   20.9001   18.2993 N   0  0  0  0  0  0
   27.3713   21.2203   18.2298 C   0  0  0  0  0  0
   27.6338   21.9837   17.0758 C   0  0  0  0  0  0
   28.3858   20.7683   19.2462 C   0  0  0  0  0  0
   27.8497   20.5759   20.4884 F   0  0  0  0  0  0
   29.4015   21.6676   19.4088 F   0  0  0  0  0  0
   28.9753   19.5867   18.8967 F   0  0  0  0  0  0
   19.4826   21.0140   16.8048 S   0  0  0  0  0  0
   18.9066   22.2887   16.4138 O   0  0  0  0  0  0
   18.9785   20.3042   17.9673 O   0  0  0  0  0  0
   19.3306   19.9865   15.4907 N   0  0  0  0  0  0
   26.9322   25.0430   15.9898 C   0  0  0  0  0  0
   21.4603   19.5555   18.3583 H   0  0  0  0  0  0
   23.8892   19.7599   18.5078 H   0  0  0  0  0  0
   23.7484   23.0817   15.7089 H   0  0  0  0  0  0
   21.3455   22.8331   15.5534 H   0  0  0  0  0  0
   26.4725   25.7070   13.3998 H   0  0  0  0  0  0
   25.7237   24.2579   11.5536 H   0  0  0  0  0  0
   25.2999   21.8449   11.9497 H   0  0  0  0  0  0
   25.6258   20.8816   14.1961 H   0  0  0  0  0  0
   28.5971   22.3478   16.7396 H   0  0  0  0  0  0
   18.8333   20.4426   14.7212 H   0  0  0  0  0  0
   18.8771   19.1091   15.7584 H   0  0  0  0  0  0
   27.9536   24.7906   16.2907 H   0  0  0  0  0  0
   26.2656   24.9705   16.8552 H   0  0  0  0  0  0
   26.9287   26.0898   15.6677 H   0  0  0  0  0  0
  1  2  2  0  0  0
  1  6  1  0  0  0
  1 22  1  0  0  0
  2  3  1  0  0  0
  2 27  1  0  0  0
  3  4  2  0  0  0
  3 28  1  0  0  0
  4  5  1  0  0  0
  4  7  1  0  0  0
  5  6  2  0  0  0
  5 29  1  0  0  0
  6 30  1  0  0  0
  7 14  1  0  0  0
  7 15  1  0  0  0
  8  9  2  0  0  0
  8 13  1  0  0  0
  8 14  1  0  0  0
  9 10  1  0  0  0
  9 26  1  0  0  0
 10 11  2  0  0  0
 10 31  1  0  0  0
 11 12  1  0  0  0
 11 32  1  0  0  0
 12 13  2  0  0  0
 12 33  1  0  0  0
 13 34  1  0  0  0
 14 17  2  0  0  0
 15 16  2  0  0  0
 16 17  1  0  0  0
 16 18  1  0  0  0
 17 35  1  0  0  0
 18 19  1  0  0  0
 18 20  1  0  0  0
 18 21  1  0  0  0
 22 23  2  0  0  0
 22 24  2  0  0  0
 22 25  1  0  0  0
 25 36  1  0  0  0
 25 37  1  0  0  0
 26 38  1  0  0  0
 26 39  1  0  0  0
 26 40  1  0  0  0
M  END
>  <Name>
8-1g

>  <Family>
E.1

>  <IC50_uM>
0.069000

>  <set>
0

$$$$
8-1h
  Cerius2 12120216093D 1   1.00000                          
 Structure written by MMmdl.
 40 42  0  0  0  0  0  0  0  0999 V2000
   21.2469   21.1835   16.9498 C   0  0  0  0  0  0
   21.9639   20.3187   17.7759 C   0  0  0  0  0  0
   23.3562   20.4349   17.8554 C   0  0  0  0  0  0
   24.0452   21.4025   17.0982 C   0  0  0  0  0  0
   23.3068   22.2716   16.2840 C   0  0  0  0  0  0
   21.9132   22.1572   16.2025 C   0  0  0  0  0  0
   25.4706   21.4897   17.2161 N   0  0  0  0  0  0
   26.2124   22.7271   15.0962 C   0  0  0  0  0  0
   26.4658   24.0895   14.8814 C   0  0  0  0  0  0
   26.3033   24.6583   13.6098 C   0  0  0  0  0  0
   25.8691   23.8517   12.5521 C   0  0  0  0  0  0
   25.6308   22.4921   12.7535 C   0  0  0  0  0  0
   25.8091   21.9295   14.0182 C   0  0  0  0  0  0
   26.4143   22.1426   16.4207 C   0  0  0  0  0  0
   26.0752   20.8725   18.2814 N   0  0  0  0  0  0
   27.3604   21.2702   18.2526 C   0  0  0  0  0  0
   27.6095   22.0613   17.1129 C   0  0  0  0  0  0
   28.3682   20.8613   19.2931 C   0  0  0  0  0  0
   27.8477   20.8409   20.5566 F   0  0  0  0  0  0
   29.4454   21.7006   19.3425 F   0  0  0  0  0  0
   28.8694   19.6111   19.0654 F   0  0  0  0  0  0
   19.4867   21.0381   16.8147 S   0  0  0  0  0  0
   18.9402   22.2640   16.2597 O   0  0  0  0  0  0
   18.9626   20.4914   18.0536 O   0  0  0  0  0  0
   19.3202   19.8578   15.6376 N   0  0  0  0  0  0
   26.5344   26.1266   13.4006 C   0  0  0  0  0  0
   21.4570   19.5564   18.3633 H   0  0  0  0  0  0
   23.8907   19.7451   18.5077 H   0  0  0  0  0  0
   23.7681   23.0778   15.7233 H   0  0  0  0  0  0
   21.3564   22.8421   15.5658 H   0  0  0  0  0  0
   26.7860   24.7175   15.7127 H   0  0  0  0  0  0
   25.7185   24.2770   11.5603 H   0  0  0  0  0  0
   25.3056   21.8683   11.9226 H   0  0  0  0  0  0
   25.6264   20.8646   14.1533 H   0  0  0  0  0  0
   28.5613   22.4754   16.8031 H   0  0  0  0  0  0
   18.8386   20.2256   14.8130 H   0  0  0  0  0  0
   18.8461   19.0305   16.0091 H   0  0  0  0  0  0
   25.6120   26.6815   13.5968 H   0  0  0  0  0  0
   26.8578   26.3286   12.3740 H   0  0  0  0  0  0
   27.3202   26.4964   14.0675 H   0  0  0  0  0  0
  1  2  2  0  0  0
  1  6  1  0  0  0
  1 22  1  0  0  0
  2  3  1  0  0  0
  2 27  1  0  0  0
  3  4  2  0  0  0
  3 28  1  0  0  0
  4  5  1  0  0  0
  4  7  1  0  0  0
  5  6  2  0  0  0
  5 29  1  0  0  0
  6 30  1  0  0  0
  7 14  1  0  0  0
  7 15  1  0  0  0
  8  9  2  0  0  0
  8 13  1  0  0  0
  8 14  1  0  0  0
  9 10  1  0  0  0
  9 31  1  0  0  0
 10 11  2  0  0  0
 10 26  1  0  0  0
 11 12  1  0  0  0
 11 32  1  0  0  0
 12 13  2  0  0  0
 12 33  1  0  0  0
 13 34  1  0  0  0
 14 17  2  0  0  0
 15 16  2  0  0  0
 16 17  1  0  0  0
 16 18  1  0  0  0
 17 35  1  0  0  0
 18 19  1  0  0  0
 18 20  1  0  0  0
 18 21  1  0  0  0
 22 23  2  0  0  0
 22 24  2  0  0  0
 22 25  1  0  0  0
 25 36  1  0  0  0
 25 37  1  0  0  0
 26 38  1  0  0  0
 26 39  1  0  0  0
 26 40  1  0  0  0
M  END
>  <Name>
8-1h

>  <Family>
E.1

>  <IC50_uM>
0.110000

>  <set>
0

$$$$
8-1i
  Cerius2 12120216093D 1   1.00000                          
 Structure written by MMmdl.
 40 42  0  0  0  0  0  0  0  0999 V2000
   21.2478   21.1858   16.9483 C   0  0  0  0  0  0
   21.9644   20.3212   17.7750 C   0  0  0  0  0  0
   23.3567   20.4374   17.8555 C   0  0  0  0  0  0
   24.0463   21.4044   17.0985 C   0  0  0  0  0  0
   23.3084   22.2734   16.2835 C   0  0  0  0  0  0
   21.9146   22.1594   16.2015 C   0  0  0  0  0  0
   25.4718   21.4907   17.2166 N   0  0  0  0  0  0
   26.2120   22.7301   15.0988 C   0  0  0  0  0  0
   26.4718   24.0882   14.8807 C   0  0  0  0  0  0
   26.2965   24.6479   13.6118 C   0  0  0  0  0  0
   25.8602   23.8582   12.5420 C   0  0  0  0  0  0
   25.6310   22.4940   12.7527 C   0  0  0  0  0  0
   25.8059   21.9335   14.0211 C   0  0  0  0  0  0
   26.4155   22.1447   16.4222 C   0  0  0  0  0  0
   26.0766   20.8704   18.2799 N   0  0  0  0  0  0
   27.3638   21.2618   18.2471 C   0  0  0  0  0  0
   27.6119   22.0584   17.1110 C   0  0  0  0  0  0
   28.3707   20.8435   19.2847 C   0  0  0  0  0  0
   29.5638   21.4980   19.1604 F   0  0  0  0  0  0
   28.6603   19.5099   19.2201 F   0  0  0  0  0  0
   27.9403   21.0808   20.5598 F   0  0  0  0  0  0
   19.4878   21.0368   16.8103 S   0  0  0  0  0  0
   18.9431   22.2516   16.2299 O   0  0  0  0  0  0
   18.9590   20.5144   18.0577 O   0  0  0  0  0  0
   19.3259   19.8331   15.6565 N   0  0  0  0  0  0
   25.7041   24.4520   11.1724 C   0  0  0  0  0  0
   21.4571   19.5586   18.3619 H   0  0  0  0  0  0
   23.8909   19.7473   18.5081 H   0  0  0  0  0  0
   23.7704   23.0790   15.7225 H   0  0  0  0  0  0
   21.3584   22.8445   15.5641 H   0  0  0  0  0  0
   26.8081   24.7250   15.6975 H   0  0  0  0  0  0
   26.5042   25.7074   13.4662 H   0  0  0  0  0  0
   25.3155   21.8547   11.9290 H   0  0  0  0  0  0
   25.6246   20.8683   14.1563 H   0  0  0  0  0  0
   28.5641   22.4710   16.8001 H   0  0  0  0  0  0
   18.8482   20.1843   14.8224 H   0  0  0  0  0  0
   18.8496   19.0138   16.0422 H   0  0  0  0  0  0
   24.9166   23.9373   10.6120 H   0  0  0  0  0  0
   26.6448   24.3692   10.6195 H   0  0  0  0  0  0
   25.4213   25.5081   11.2343 H   0  0  0  0  0  0
  1  2  2  0  0  0
  1  6  1  0  0  0
  1 22  1  0  0  0
  2  3  1  0  0  0
  2 27  1  0  0  0
  3  4  2  0  0  0
  3 28  1  0  0  0
  4  5  1  0  0  0
  4  7  1  0  0  0
  5  6  2  0  0  0
  5 29  1  0  0  0
  6 30  1  0  0  0
  7 14  1  0  0  0
  7 15  1  0  0  0
  8  9  2  0  0  0
  8 13  1  0  0  0
  8 14  1  0  0  0
  9 10  1  0  0  0
  9 31  1  0  0  0
 10 11  2  0  0  0
 10 32  1  0  0  0
 11 12  1  0  0  0
 11 26  1  0  0  0
 12 13  2  0  0  0
 12 33  1  0  0  0
 13 34  1  0  0  0
 14 17  2  0  0  0
 15 16  2  0  0  0
 16 17  1  0  0  0
 16 18  1  0  0  0
 17 35  1  0  0  0
 18 19  1  0  0  0
 18 20  1  0  0  0
 18 21  1  0  0  0
 22 23  2  0  0  0
 22 24  2  0  0  0
 22 25  1  0  0  0
 25 36  1  0  0  0
 25 37  1  0  0  0
 26 38  1  0  0  0
 26 39  1  0  0  0
 26 40  1  0  0  0
M  END
>  <Name>
8-1i

>  <Family>
E.1

>  <IC50_uM>
0.040000

>  <set>
0

$$$$
8-1j
  Cerius2 12120216093D 1   1.00000                          
 Structure written by MMmdl.
 43 45  0  0  0  0  0  0  0  0999 V2000
   21.2457   21.1837   16.9509 C   0  0  0  0  0  0
   21.9639   20.3187   17.7756 C   0  0  0  0  0  0
   23.3563   20.4350   17.8533 C   0  0  0  0  0  0
   24.0445   21.4030   17.0960 C   0  0  0  0  0  0
   23.3053   22.2715   16.2818 C   0  0  0  0  0  0
   21.9113   22.1570   16.2022 C   0  0  0  0  0  0
   25.4701   21.4908   17.2146 N   0  0  0  0  0  0
   26.2137   22.7308   15.0976 C   0  0  0  0  0  0
   26.4723   24.0896   14.8811 C   0  0  0  0  0  0
   26.3041   24.6493   13.6115 C   0  0  0  0  0  0
   25.8808   23.8578   12.5366 C   0  0  0  0  0  0
   25.6442   22.4940   12.7487 C   0  0  0  0  0  0
   25.8126   21.9341   14.0182 C   0  0  0  0  0  0
   26.4143   22.1452   16.4213 C   0  0  0  0  0  0
   26.0740   20.8714   18.2789 N   0  0  0  0  0  0
   27.3611   21.2629   18.2477 C   0  0  0  0  0  0
   27.6096   22.0606   17.1125 C   0  0  0  0  0  0
   28.3663   20.8451   19.2870 C   0  0  0  0  0  0
   29.5795   21.4531   19.1270 F   0  0  0  0  0  0
   28.6094   19.5008   19.2653 F   0  0  0  0  0  0
   27.9596   21.1404   20.5577 F   0  0  0  0  0  0
   19.4853   21.0366   16.8183 S   0  0  0  0  0  0
   18.9412   22.2466   16.2271 O   0  0  0  0  0  0
   18.9584   20.5267   18.0718 O   0  0  0  0  0  0
   19.3182   19.8223   15.6766 N   0  0  0  0  0  0
   26.9978   24.3772   10.3507 C   0  0  0  0  0  0
   25.7145   24.4580   11.1629 C   0  0  0  0  0  0
   21.4578   19.5564   18.3637 H   0  0  0  0  0  0
   23.8915   19.7448   18.5051 H   0  0  0  0  0  0
   23.7656   23.0775   15.7202 H   0  0  0  0  0  0
   21.3536   22.8413   15.5655 H   0  0  0  0  0  0
   26.8019   24.7271   15.7002 H   0  0  0  0  0  0
   26.5088   25.7096   13.4677 H   0  0  0  0  0  0
   25.3299   21.8548   11.9244 H   0  0  0  0  0  0
   25.6292   20.8692   14.1533 H   0  0  0  0  0  0
   28.5616   22.4748   16.8033 H   0  0  0  0  0  0
   18.8389   20.1662   14.8405 H   0  0  0  0  0  0
   18.8411   19.0077   16.0716 H   0  0  0  0  0  0
   26.8468   24.8173    9.3600 H   0  0  0  0  0  0
   27.3179   23.3386   10.2153 H   0  0  0  0  0  0
   27.8133   24.9186   10.8418 H   0  0  0  0  0  0
   25.3978   25.5042   11.2534 H   0  0  0  0  0  0
   24.9058   23.9415   10.6314 H   0  0  0  0  0  0
  1  2  2  0  0  0
  1  6  1  0  0  0
  1 22  1  0  0  0
  2  3  1  0  0  0
  2 28  1  0  0  0
  3  4  2  0  0  0
  3 29  1  0  0  0
  4  5  1  0  0  0
  4  7  1  0  0  0
  5  6  2  0  0  0
  5 30  1  0  0  0
  6 31  1  0  0  0
  7 14  1  0  0  0
  7 15  1  0  0  0
  8  9  2  0  0  0
  8 13  1  0  0  0
  8 14  1  0  0  0
  9 10  1  0  0  0
  9 32  1  0  0  0
 10 11  2  0  0  0
 10 33  1  0  0  0
 11 12  1  0  0  0
 11 27  1  0  0  0
 12 13  2  0  0  0
 12 34  1  0  0  0
 13 35  1  0  0  0
 14 17  2  0  0  0
 15 16  2  0  0  0
 16 17  1  0  0  0
 16 18  1  0  0  0
 17 36  1  0  0  0
 18 19  1  0  0  0
 18 20  1  0  0  0
 18 21  1  0  0  0
 22 23  2  0  0  0
 22 24  2  0  0  0
 22 25  1  0  0  0
 25 37  1  0  0  0
 25 38  1  0  0  0
 26 27  1  0  0  0
 26 39  1  0  0  0
 26 40  1  0  0  0
 26 41  1  0  0  0
 27 42  1  0  0  0
 27 43  1  0  0  0
M  END
>  <Name>
8-1j

>  <Family>
E.1

>  <IC50_uM>
0.860000

>  <set>
0

$$$$
8-1k
  Cerius2 12120216093D 1   1.00000                          
 Structure written by MMmdl.
 40 42  0  0  0  0  0  0  0  0999 V2000
   21.2479   21.1852   16.9484 C   0  0  0  0  0  0
   21.9645   20.3204   17.7749 C   0  0  0  0  0  0
   23.3567   20.4365   17.8553 C   0  0  0  0  0  0
   24.0460   21.4036   17.0981 C   0  0  0  0  0  0
   23.3084   22.2729   16.2832 C   0  0  0  0  0  0
   21.9145   22.1589   16.2013 C   0  0  0  0  0  0
   25.4714   21.4903   17.2165 N   0  0  0  0  0  0
   26.2117   22.7297   15.0986 C   0  0  0  0  0  0
   26.4708   24.0881   14.8815 C   0  0  0  0  0  0
   26.2984   24.6486   13.6117 C   0  0  0  0  0  0
   25.8683   23.8602   12.5340 C   0  0  0  0  0  0
   25.6354   22.4940   12.7500 C   0  0  0  0  0  0
   25.8074   21.9334   14.0199 C   0  0  0  0  0  0
   26.4147   22.1447   16.4220 C   0  0  0  0  0  0
   26.0763   20.8701   18.2797 N   0  0  0  0  0  0
   27.3627   21.2641   18.2483 C   0  0  0  0  0  0
   27.6106   22.0604   17.1118 C   0  0  0  0  0  0
   28.3693   20.8488   19.2875 C   0  0  0  0  0  0
   29.5596   21.5087   19.1665 F   0  0  0  0  0  0
   28.6648   19.5166   19.2218 F   0  0  0  0  0  0
   27.9349   21.0827   20.5619 F   0  0  0  0  0  0
   19.4877   21.0376   16.8123 S   0  0  0  0  0  0
   18.9455   22.2428   16.2099 O   0  0  0  0  0  0
   18.9581   20.5387   18.0690 O   0  0  0  0  0  0
   19.3232   19.8143   15.6799 N   0  0  0  0  0  0
   25.7043   24.4620   11.1608 C   0  0  0  0  0  0
   25.3075   25.7712   11.1817 F   0  0  0  0  0  0
   24.7767   23.8194   10.3872 F   0  0  0  0  0  0
   26.8619   24.4433   10.4331 F   0  0  0  0  0  0
   21.4573   19.5578   18.3618 H   0  0  0  0  0  0
   23.8910   19.7467   18.5079 H   0  0  0  0  0  0
   23.7705   23.0795   15.7237 H   0  0  0  0  0  0
   21.3577   22.8442   15.5647 H   0  0  0  0  0  0
   26.8036   24.7252   15.6998 H   0  0  0  0  0  0
   26.5035   25.7095   13.4681 H   0  0  0  0  0  0
   25.3192   21.8537   11.9266 H   0  0  0  0  0  0
   25.6247   20.8680   14.1552 H   0  0  0  0  0  0
   28.5625   22.4744   16.8018 H   0  0  0  0  0  0
   18.8466   20.1518   14.8396 H   0  0  0  0  0  0
   18.8448   19.0029   16.0797 H   0  0  0  0  0  0
  1  2  2  0  0  0
  1  6  1  0  0  0
  1 22  1  0  0  0
  2  3  1  0  0  0
  2 30  1  0  0  0
  3  4  2  0  0  0
  3 31  1  0  0  0
  4  5  1  0  0  0
  4  7  1  0  0  0
  5  6  2  0  0  0
  5 32  1  0  0  0
  6 33  1  0  0  0
  7 14  1  0  0  0
  7 15  1  0  0  0
  8  9  2  0  0  0
  8 13  1  0  0  0
  8 14  1  0  0  0
  9 10  1  0  0  0
  9 34  1  0  0  0
 10 11  2  0  0  0
 10 35  1  0  0  0
 11 12  1  0  0  0
 11 26  1  0  0  0
 12 13  2  0  0  0
 12 36  1  0  0  0
 13 37  1  0  0  0
 14 17  2  0  0  0
 15 16  2  0  0  0
 16 17  1  0  0  0
 16 18  1  0  0  0
 17 38  1  0  0  0
 18 19  1  0  0  0
 18 20  1  0  0  0
 18 21  1  0  0  0
 22 23  2  0  0  0
 22 24  2  0  0  0
 22 25  1  0  0  0
 25 39  1  0  0  0
 25 40  1  0  0  0
 26 27  1  0  0  0
 26 28  1  0  0  0
 26 29  1  0  0  0
M  END
>  <Name>
8-1k

>  <Family>
E.1

>  <IC50_uM>
8.230000

>  <set>
0

$$$$
8-1l
  Cerius2 12120216093D 1   1.00000                          
 Structure written by MMmdl.
 39 41  0  0  0  0  0  0  0  0999 V2000
   21.2484   21.1862   16.9486 C   0  0  0  0  0  0
   21.9645   20.3211   17.7753 C   0  0  0  0  0  0
   23.3569   20.4362   17.8557 C   0  0  0  0  0  0
   24.0465   21.4029   17.0986 C   0  0  0  0  0  0
   23.3093   22.2730   16.2839 C   0  0  0  0  0  0
   21.9155   22.1598   16.2018 C   0  0  0  0  0  0
   25.4717   21.4891   17.2165 N   0  0  0  0  0  0
   26.2106   22.7288   15.0979 C   0  0  0  0  0  0
   26.4688   24.0899   14.8814 C   0  0  0  0  0  0
   26.2992   24.6528   13.6118 C   0  0  0  0  0  0
   25.8796   23.8457   12.5470 C   0  0  0  0  0  0
   25.6342   22.4814   12.7470 C   0  0  0  0  0  0
   25.8060   21.9273   14.0201 C   0  0  0  0  0  0
   26.4139   22.1455   16.4222 C   0  0  0  0  0  0
   26.0776   20.8677   18.2780 N   0  0  0  0  0  0
   27.3631   21.2649   18.2481 C   0  0  0  0  0  0
   27.6094   22.0641   17.1131 C   0  0  0  0  0  0
   28.3700   20.8507   19.2874 C   0  0  0  0  0  0
   27.9485   21.1142   20.5602 F   0  0  0  0  0  0
   29.5706   21.4879   19.1470 F   0  0  0  0  0  0
   28.6428   19.5126   19.2435 F   0  0  0  0  0  0
   19.4882   21.0384   16.8113 S   0  0  0  0  0  0
   18.9315   22.2951   16.3420 O   0  0  0  0  0  0
   18.9733   20.4067   18.0131 O   0  0  0  0  0  0
   19.3233   19.9383   15.5589 N   0  0  0  0  0  0
   25.7012   24.4320   11.2123 N   0  3  0  0  0  0
   25.3506   23.6841   10.2797 O   0  0  0  0  0  0
   25.9078   25.6523   11.0696 O   0  5  0  0  0  0
   21.4567   19.5588   18.3620 H   0  0  0  0  0  0
   23.8909   19.7457   18.5079 H   0  0  0  0  0  0
   23.7718   23.0799   15.7253 H   0  0  0  0  0  0
   21.3591   22.8454   15.5652 H   0  0  0  0  0  0
   26.7981   24.7267   15.7015 H   0  0  0  0  0  0
   26.5003   25.7129   13.4752 H   0  0  0  0  0  0
   25.3147   21.8369   11.9314 H   0  0  0  0  0  0
   25.6224   20.8628   14.1602 H   0  0  0  0  0  0
   28.5606   22.4807   16.8044 H   0  0  0  0  0  0
   18.8379   20.3578   14.7617 H   0  0  0  0  0  0
   18.8529   19.0864   15.8755 H   0  0  0  0  0  0
  1  2  2  0  0  0
  1  6  1  0  0  0
  1 22  1  0  0  0
  2  3  1  0  0  0
  2 29  1  0  0  0
  3  4  2  0  0  0
  3 30  1  0  0  0
  4  5  1  0  0  0
  4  7  1  0  0  0
  5  6  2  0  0  0
  5 31  1  0  0  0
  6 32  1  0  0  0
  7 14  1  0  0  0
  7 15  1  0  0  0
  8  9  2  0  0  0
  8 13  1  0  0  0
  8 14  1  0  0  0
  9 10  1  0  0  0
  9 33  1  0  0  0
 10 11  2  0  0  0
 10 34  1  0  0  0
 11 12  1  0  0  0
 11 26  1  0  0  0
 12 13  2  0  0  0
 12 35  1  0  0  0
 13 36  1  0  0  0
 14 17  2  0  0  0
 15 16  2  0  0  0
 16 17  1  0  0  0
 16 18  1  0  0  0
 17 37  1  0  0  0
 18 19  1  0  0  0
 18 20  1  0  0  0
 18 21  1  0  0  0
 22 23  2  0  0  0
 22 24  2  0  0  0
 22 25  1  0  0  0
 25 38  1  0  0  0
 25 39  1  0  0  0
 26 27  2  0  0  0
 26 28  1  0  0  0
M  CHG  2  26   1  28  -1
M  END
>  <Name>
8-1l

>  <Family>
E.1

>  <IC50_uM>
2.630000

>  <set>
1

$$$$
8-1m
  Cerius2 12120216093D 1   1.00000                          
 Structure written by MMmdl.
 38 40  0  0  0  0  0  0  0  0999 V2000
   21.2472   21.1851   16.9493 C   0  0  0  0  0  0
   21.9642   20.3196   17.7748 C   0  0  0  0  0  0
   23.3566   20.4348   17.8540 C   0  0  0  0  0  0
   24.0458   21.4019   17.0970 C   0  0  0  0  0  0
   23.3079   22.2713   16.2824 C   0  0  0  0  0  0
   21.9140   22.1582   16.2015 C   0  0  0  0  0  0
   25.4712   21.4893   17.2155 N   0  0  0  0  0  0
   26.2122   22.7306   15.0982 C   0  0  0  0  0  0
   26.4702   24.0910   14.8818 C   0  0  0  0  0  0
   26.3007   24.6489   13.6120 C   0  0  0  0  0  0
   25.8849   23.8450   12.5566 C   0  0  0  0  0  0
   25.6393   22.4896   12.7478 C   0  0  0  0  0  0
   25.8088   21.9317   14.0183 C   0  0  0  0  0  0
   26.4140   22.1458   16.4221 C   0  0  0  0  0  0
   26.0763   20.8692   18.2787 N   0  0  0  0  0  0
   27.3621   21.2656   18.2490 C   0  0  0  0  0  0
   27.6095   22.0636   17.1135 C   0  0  0  0  0  0
   19.4867   21.0389   16.8150 S   0  0  0  0  0  0
   18.9417   22.2568   16.2410 O   0  0  0  0  0  0
   18.9608   20.5116   18.0615 O   0  0  0  0  0  0
   19.3201   19.8407   15.6563 N   0  0  0  0  0  0
   25.7312   24.4250   11.3321 O   0  0  0  0  0  0
   28.3682   20.8520   19.2894 C   0  0  0  0  0  0
   29.5726   21.4806   19.1426 F   0  0  0  0  0  0
   28.6324   19.5120   19.2542 F   0  0  0  0  0  0
   27.9506   21.1271   20.5611 F   0  0  0  0  0  0
   21.4568   19.5573   18.3621 H   0  0  0  0  0  0
   23.8912   19.7443   18.5058 H   0  0  0  0  0  0
   23.7702   23.0776   15.7222 H   0  0  0  0  0  0
   21.3573   22.8437   15.5650 H   0  0  0  0  0  0
   26.7984   24.7295   15.7006 H   0  0  0  0  0  0
   26.4963   25.7070   13.4548 H   0  0  0  0  0  0
   25.3207   21.8530   11.9257 H   0  0  0  0  0  0
   25.6243   20.8671   14.1553 H   0  0  0  0  0  0
   28.5609   22.4797   16.8050 H   0  0  0  0  0  0
   18.8416   20.1966   14.8247 H   0  0  0  0  0  0
   18.8425   19.0207   16.0392 H   0  0  0  0  0  0
   25.9522   25.3776   11.4111 H   0  0  0  0  0  0
  1  2  2  0  0  0
  1  6  1  0  0  0
  1 18  1  0  0  0
  2  3  1  0  0  0
  2 27  1  0  0  0
  3  4  2  0  0  0
  3 28  1  0  0  0
  4  5  1  0  0  0
  4  7  1  0  0  0
  5  6  2  0  0  0
  5 29  1  0  0  0
  6 30  1  0  0  0
  7 14  1  0  0  0
  7 15  1  0  0  0
  8  9  2  0  0  0
  8 13  1  0  0  0
  8 14  1  0  0  0
  9 10  1  0  0  0
  9 31  1  0  0  0
 10 11  2  0  0  0
 10 32  1  0  0  0
 11 12  1  0  0  0
 11 22  1  0  0  0
 12 13  2  0  0  0
 12 33  1  0  0  0
 13 34  1  0  0  0
 14 17  2  0  0  0
 15 16  2  0  0  0
 16 17  1  0  0  0
 16 23  1  0  0  0
 17 35  1  0  0  0
 18 19  2  0  0  0
 18 20  2  0  0  0
 18 21  1  0  0  0
 21 36  1  0  0  0
 21 37  1  0  0  0
 22 38  1  0  0  0
 23 24  1  0  0  0
 23 25  1  0  0  0
 23 26  1  0  0  0
M  END
>  <Name>
8-1m

>  <Family>
E.1

>  <IC50_uM>
>100

>  <set>
0

$$$$
8-1n
  Cerius2 12120216093D 1   1.00000                          
 Structure written by MMmdl.
 41 43  0  0  0  0  0  0  0  0999 V2000
   21.2462   21.1821   16.9419 C   0  0  0  0  0  0
   21.9651   20.3225   17.7707 C   0  0  0  0  0  0
   23.3567   20.4469   17.8550 C   0  0  0  0  0  0
   24.0456   21.4187   17.1017 C   0  0  0  0  0  0
   23.3040   22.2793   16.2819 C   0  0  0  0  0  0
   21.9107   22.1574   16.1958 C   0  0  0  0  0  0
   25.4722   21.5061   17.2243 N   0  0  0  0  0  0
   26.2184   22.7510   15.1081 C   0  0  0  0  0  0
   26.4701   24.1218   14.8833 C   0  0  0  0  0  0
   26.2791   24.6503   13.6016 C   0  0  0  0  0  0
   25.8496   23.8310   12.5534 C   0  0  0  0  0  0
   25.6107   22.4776   12.7720 C   0  0  0  0  0  0
   25.7985   21.9374   14.0428 C   0  0  0  0  0  0
   26.4241   22.1382   16.4232 C   0  0  0  0  0  0
   26.0714   20.8898   18.2943 N   0  0  0  0  0  0
   27.3718   21.2300   18.2349 C   0  0  0  0  0  0
   27.6305   22.0027   17.0858 C   0  0  0  0  0  0
   28.3806   20.7872   19.2603 C   0  0  0  0  0  0
   27.9318   20.9387   20.5421 F   0  0  0  0  0  0
   29.5528   21.4853   19.1856 F   0  0  0  0  0  0
   28.7135   19.4693   19.1244 F   0  0  0  0  0  0
   19.4878   21.0237   16.7985 S   0  0  0  0  0  0
   18.9258   22.2762   16.3245 O   0  0  0  0  0  0
   18.9714   20.3916   17.9996 O   0  0  0  0  0  0
   19.3346   19.9197   15.5479 N   0  0  0  0  0  0
   26.8766   24.8535   15.9715 O   0  0  0  0  0  0
   27.1323   26.2412   15.7681 C   0  0  0  0  0  0
   21.4609   19.5569   18.3562 H   0  0  0  0  0  0
   23.8906   19.7587   18.5098 H   0  0  0  0  0  0
   23.7575   23.0838   15.7152 H   0  0  0  0  0  0
   21.3529   22.8372   15.5540 H   0  0  0  0  0  0
   26.4534   25.6996   13.3787 H   0  0  0  0  0  0
   25.7039   24.2539   11.5605 H   0  0  0  0  0  0
   25.2807   21.8418   11.9524 H   0  0  0  0  0  0
   25.6152   20.8750   14.1974 H   0  0  0  0  0  0
   28.5898   22.3832   16.7570 H   0  0  0  0  0  0
   18.8494   20.3346   14.7480 H   0  0  0  0  0  0
   18.8687   19.0654   15.8644 H   0  0  0  0  0  0
   27.4470   26.6650   16.7265 H   0  0  0  0  0  0
   26.2245   26.7666   15.4536 H   0  0  0  0  0  0
   27.9484   26.3905   15.0537 H   0  0  0  0  0  0
  1  2  2  0  0  0
  1  6  1  0  0  0
  1 22  1  0  0  0
  2  3  1  0  0  0
  2 28  1  0  0  0
  3  4  2  0  0  0
  3 29  1  0  0  0
  4  5  1  0  0  0
  4  7  1  0  0  0
  5  6  2  0  0  0
  5 30  1  0  0  0
  6 31  1  0  0  0
  7 14  1  0  0  0
  7 15  1  0  0  0
  8  9  2  0  0  0
  8 13  1  0  0  0
  8 14  1  0  0  0
  9 10  1  0  0  0
  9 26  1  0  0  0
 10 11  2  0  0  0
 10 32  1  0  0  0
 11 12  1  0  0  0
 11 33  1  0  0  0
 12 13  2  0  0  0
 12 34  1  0  0  0
 13 35  1  0  0  0
 14 17  2  0  0  0
 15 16  2  0  0  0
 16 17  1  0  0  0
 16 18  1  0  0  0
 17 36  1  0  0  0
 18 19  1  0  0  0
 18 20  1  0  0  0
 18 21  1  0  0  0
 22 23  2  0  0  0
 22 24  2  0  0  0
 22 25  1  0  0  0
 25 37  1  0  0  0
 25 38  1  0  0  0
 26 27  1  0  0  0
 27 39  1  0  0  0
 27 40  1  0  0  0
 27 41  1  0  0  0
M  END
>  <Name>
8-1n

>  <Family>
E.1

>  <IC50_uM>
0.290000

>  <set>
1

$$$$
8-1o
  Cerius2 12120216093D 1   1.00000                          
 Structure written by MMmdl.
 41 43  0  0  0  0  0  0  0  0999 V2000
   21.2498   21.1868   16.9468 C   0  0  0  0  0  0
   21.9649   20.3210   17.7739 C   0  0  0  0  0  0
   23.3573   20.4357   17.8558 C   0  0  0  0  0  0
   24.0476   21.4022   17.0990 C   0  0  0  0  0  0
   23.3113   22.2725   16.2838 C   0  0  0  0  0  0
   21.9177   22.1599   16.2004 C   0  0  0  0  0  0
   25.4727   21.4884   17.2175 N   0  0  0  0  0  0
   26.2109   22.7283   15.0994 C   0  0  0  0  0  0
   26.4679   24.0864   14.8782 C   0  0  0  0  0  0
   26.2926   24.6495   13.6075 C   0  0  0  0  0  0
   25.8689   23.8568   12.5411 C   0  0  0  0  0  0
   25.6285   22.4976   12.7559 C   0  0  0  0  0  0
   25.8031   21.9329   14.0230 C   0  0  0  0  0  0
   26.4151   22.1451   16.4237 C   0  0  0  0  0  0
   26.0782   20.8664   18.2790 N   0  0  0  0  0  0
   27.3637   21.2640   18.2496 C   0  0  0  0  0  0
   27.6107   22.0628   17.1147 C   0  0  0  0  0  0
   28.3707   20.8496   19.2889 C   0  0  0  0  0  0
   27.9349   21.0805   20.5634 F   0  0  0  0  0  0
   29.5594   21.5127   19.1697 F   0  0  0  0  0  0
   28.6698   19.5181   19.2215 F   0  0  0  0  0  0
   19.4898   21.0410   16.8086 S   0  0  0  0  0  0
   18.9347   22.2986   16.3397 O   0  0  0  0  0  0
   18.9728   20.4091   18.0095 O   0  0  0  0  0  0
   19.3251   19.9414   15.5558 N   0  0  0  0  0  0
   25.6586   24.2812   11.2583 O   0  0  0  0  0  0
   25.8842   25.6652   10.9950 C   0  0  0  0  0  0
   21.4563   19.5585   18.3600 H   0  0  0  0  0  0
   23.8908   19.7450   18.5079 H   0  0  0  0  0  0
   23.7751   23.0788   15.7251 H   0  0  0  0  0  0
   21.3625   22.8456   15.5630 H   0  0  0  0  0  0
   26.8005   24.7251   15.6955 H   0  0  0  0  0  0
   26.4983   25.7103   13.4911 H   0  0  0  0  0  0
   25.3035   21.8647   11.9316 H   0  0  0  0  0  0
   25.6169   20.8685   14.1565 H   0  0  0  0  0  0
   28.5620   22.4788   16.8061 H   0  0  0  0  0  0
   18.8388   20.3609   14.7591 H   0  0  0  0  0  0
   18.8565   19.0886   15.8723 H   0  0  0  0  0  0
   25.6665   25.8420    9.9374 H   0  0  0  0  0  0
   26.9314   25.9328   11.1699 H   0  0  0  0  0  0
   25.2085   26.2935   11.5846 H   0  0  0  0  0  0
  1  2  2  0  0  0
  1  6  1  0  0  0
  1 22  1  0  0  0
  2  3  1  0  0  0
  2 28  1  0  0  0
  3  4  2  0  0  0
  3 29  1  0  0  0
  4  5  1  0  0  0
  4  7  1  0  0  0
  5  6  2  0  0  0
  5 30  1  0  0  0
  6 31  1  0  0  0
  7 14  1  0  0  0
  7 15  1  0  0  0
  8  9  2  0  0  0
  8 13  1  0  0  0
  8 14  1  0  0  0
  9 10  1  0  0  0
  9 32  1  0  0  0
 10 11  2  0  0  0
 10 33  1  0  0  0
 11 12  1  0  0  0
 11 26  1  0  0  0
 12 13  2  0  0  0
 12 34  1  0  0  0
 13 35  1  0  0  0
 14 17  2  0  0  0
 15 16  2  0  0  0
 16 17  1  0  0  0
 16 18  1  0  0  0
 17 36  1  0  0  0
 18 19  1  0  0  0
 18 20  1  0  0  0
 18 21  1  0  0  0
 22 23  2  0  0  0
 22 24  2  0  0  0
 22 25  1  0  0  0
 25 37  1  0  0  0
 25 38  1  0  0  0
 26 27  1  0  0  0
 27 39  1  0  0  0
 27 40  1  0  0  0
 27 41  1  0  0  0
M  END
>  <Name>
8-1o

>  <Family>
E.1

>  <IC50_uM>
0.008000

>  <set>
1

$$$$
8-1p
  Cerius2 12120216093D 1   1.00000                          
 Structure written by MMmdl.
 44 46  0  0  0  0  0  0  0  0999 V2000
   21.2467   21.1926   16.9443 C   0  0  0  0  0  0
   21.9620   20.3252   17.7708 C   0  0  0  0  0  0
   23.3541   20.4371   17.8528 C   0  0  0  0  0  0
   24.0451   21.4024   17.0956 C   0  0  0  0  0  0
   23.3096   22.2733   16.2798 C   0  0  0  0  0  0
   21.9150   22.1642   16.1976 C   0  0  0  0  0  0
   25.4701   21.4880   17.2152 N   0  0  0  0  0  0
   26.2127   22.7287   15.0983 C   0  0  0  0  0  0
   26.4693   24.0875   14.8797 C   0  0  0  0  0  0
   26.3038   24.6511   13.6081 C   0  0  0  0  0  0
   25.8902   23.8585   12.5380 C   0  0  0  0  0  0
   25.6483   22.4990   12.7505 C   0  0  0  0  0  0
   25.8129   21.9339   14.0188 C   0  0  0  0  0  0
   26.4134   22.1450   16.4228 C   0  0  0  0  0  0
   26.0741   20.8668   18.2783 N   0  0  0  0  0  0
   27.3593   21.2658   18.2515 C   0  0  0  0  0  0
   27.6078   22.0633   17.1159 C   0  0  0  0  0  0
   28.3640   20.8543   19.2938 C   0  0  0  0  0  0
   27.9368   21.1135   20.5657 F   0  0  0  0  0  0
   29.5620   21.4974   19.1590 F   0  0  0  0  0  0
   28.6434   19.5175   19.2485 F   0  0  0  0  0  0
   19.4864   21.0291   16.8253 S   0  0  0  0  0  0
   18.9252   22.2880   16.3680 O   0  0  0  0  0  0
   18.9772   20.3873   18.0244 O   0  0  0  0  0  0
   19.3187   19.9254   15.5763 N   0  0  0  0  0  0
   25.6921   24.2819   11.2531 O   0  0  0  0  0  0
   25.6469   25.9067    9.5097 C   0  0  0  0  0  0
   25.9307   25.6663   10.9814 C   0  0  0  0  0  0
   21.4481   19.5659   18.3569 H   0  0  0  0  0  0
   23.8865   19.7464   18.5056 H   0  0  0  0  0  0
   23.7753   23.0784   15.7208 H   0  0  0  0  0  0
   21.3646   22.8528   15.5595 H   0  0  0  0  0  0
   26.7956   24.7259   15.6998 H   0  0  0  0  0  0
   26.5093   25.7121   13.4942 H   0  0  0  0  0  0
   25.3311   21.8665   11.9231 H   0  0  0  0  0  0
   25.6276   20.8692   14.1500 H   0  0  0  0  0  0
   28.5595   22.4796   16.8084 H   0  0  0  0  0  0
   18.8162   20.3368   14.7854 H   0  0  0  0  0  0
   18.8645   19.0679   15.9012 H   0  0  0  0  0  0
   25.8198   26.9535    9.2449 H   0  0  0  0  0  0
   24.6101   25.6478    9.2703 H   0  0  0  0  0  0
   26.2857   25.2731    8.8853 H   0  0  0  0  0  0
   26.9762   25.9194   11.1914 H   0  0  0  0  0  0
   25.2611   26.2920   11.5826 H   0  0  0  0  0  0
  1  2  2  0  0  0
  1  6  1  0  0  0
  1 22  1  0  0  0
  2  3  1  0  0  0
  2 29  1  0  0  0
  3  4  2  0  0  0
  3 30  1  0  0  0
  4  5  1  0  0  0
  4  7  1  0  0  0
  5  6  2  0  0  0
  5 31  1  0  0  0
  6 32  1  0  0  0
  7 14  1  0  0  0
  7 15  1  0  0  0
  8  9  2  0  0  0
  8 13  1  0  0  0
  8 14  1  0  0  0
  9 10  1  0  0  0
  9 33  1  0  0  0
 10 11  2  0  0  0
 10 34  1  0  0  0
 11 12  1  0  0  0
 11 26  1  0  0  0
 12 13  2  0  0  0
 12 35  1  0  0  0
 13 36  1  0  0  0
 14 17  2  0  0  0
 15 16  2  0  0  0
 16 17  1  0  0  0
 16 18  1  0  0  0
 17 37  1  0  0  0
 18 19  1  0  0  0
 18 20  1  0  0  0
 18 21  1  0  0  0
 22 23  2  0  0  0
 22 24  2  0  0  0
 22 25  1  0  0  0
 25 38  1  0  0  0
 25 39  1  0  0  0
 26 28  1  0  0  0
 27 28  1  0  0  0
 27 40  1  0  0  0
 27 41  1  0  0  0
 27 42  1  0  0  0
 28 43  1  0  0  0
 28 44  1  0  0  0
M  END
>  <Name>
8-1p

>  <Family>
E.1

>  <IC50_uM>
0.640000

>  <set>
2

$$$$
8-1q
  Cerius2 12120216093D 1   1.00000                          
 Structure written by MMmdl.
 41 43  0  0  0  0  0  0  0  0999 V2000
   21.2482   21.1840   16.9478 C   0  0  0  0  0  0
   21.9645   20.3189   17.7741 C   0  0  0  0  0  0
   23.3569   20.4345   17.8541 C   0  0  0  0  0  0
   24.0463   21.4019   17.0974 C   0  0  0  0  0  0
   23.3088   22.2715   16.2828 C   0  0  0  0  0  0
   21.9150   22.1577   16.2009 C   0  0  0  0  0  0
   25.4717   21.4890   17.2160 N   0  0  0  0  0  0
   26.2127   22.7304   15.0992 C   0  0  0  0  0  0
   26.4674   24.0889   14.8799 C   0  0  0  0  0  0
   26.2969   24.6472   13.6079 C   0  0  0  0  0  0
   25.8893   23.8520   12.5333 C   0  0  0  0  0  0
   25.6375   22.4939   12.7513 C   0  0  0  0  0  0
   25.8077   21.9337   14.0219 C   0  0  0  0  0  0
   26.4143   22.1470   16.4236 C   0  0  0  0  0  0
   26.0772   20.8656   18.2769 N   0  0  0  0  0  0
   27.3628   21.2626   18.2481 C   0  0  0  0  0  0
   27.6096   22.0646   17.1153 C   0  0  0  0  0  0
   19.4875   21.0417   16.8135 S   0  0  0  0  0  0
   18.9333   22.3004   16.3466 O   0  0  0  0  0  0
   18.9735   20.4097   18.0155 O   0  0  0  0  0  0
   19.3168   19.9445   15.5592 N   0  0  0  0  0  0
   28.3719   20.8423   19.2829 C   0  0  0  0  0  0
   29.5218   21.5785   19.2309 F   0  0  0  0  0  0
   28.7491   19.5371   19.1394 F   0  0  0  0  0  0
   27.9009   20.9669   20.5597 F   0  0  0  0  0  0
   25.6337   24.5190   10.8975 S   0  0  0  0  0  0
   26.0930   26.2560   11.1720 C   0  0  0  0  0  0
   21.4575   19.5567   18.3615 H   0  0  0  0  0  0
   23.8913   19.7442   18.5061 H   0  0  0  0  0  0
   23.7712   23.0778   15.7233 H   0  0  0  0  0  0
   21.3582   22.8431   15.5644 H   0  0  0  0  0  0
   26.7893   24.7304   15.6990 H   0  0  0  0  0  0
   26.4787   25.7120   13.4803 H   0  0  0  0  0  0
   25.3128   21.8513   11.9344 H   0  0  0  0  0  0
   25.6196   20.8698   14.1580 H   0  0  0  0  0  0
   28.5610   22.4810   16.8074 H   0  0  0  0  0  0
   18.8314   20.3666   14.7635 H   0  0  0  0  0  0
   18.8452   19.0929   15.8750 H   0  0  0  0  0  0
   26.1293   26.7683   10.2067 H   0  0  0  0  0  0
   27.0798   26.3240   11.6380 H   0  0  0  0  0  0
   25.3541   26.7609   11.7991 H   0  0  0  0  0  0
  1  2  2  0  0  0
  1  6  1  0  0  0
  1 18  1  0  0  0
  2  3  1  0  0  0
  2 28  1  0  0  0
  3  4  2  0  0  0
  3 29  1  0  0  0
  4  5  1  0  0  0
  4  7  1  0  0  0
  5  6  2  0  0  0
  5 30  1  0  0  0
  6 31  1  0  0  0
  7 14  1  0  0  0
  7 15  1  0  0  0
  8  9  2  0  0  0
  8 13  1  0  0  0
  8 14  1  0  0  0
  9 10  1  0  0  0
  9 32  1  0  0  0
 10 11  2  0  0  0
 10 33  1  0  0  0
 11 12  1  0  0  0
 11 26  1  0  0  0
 12 13  2  0  0  0
 12 34  1  0  0  0
 13 35  1  0  0  0
 14 17  2  0  0  0
 15 16  2  0  0  0
 16 17  1  0  0  0
 16 22  1  0  0  0
 17 36  1  0  0  0
 18 19  2  0  0  0
 18 20  2  0  0  0
 18 21  1  0  0  0
 21 37  1  0  0  0
 21 38  1  0  0  0
 22 23  1  0  0  0
 22 24  1  0  0  0
 22 25  1  0  0  0
 26 27  1  0  0  0
 27 39  1  0  0  0
 27 40  1  0  0  0
 27 41  1  0  0  0
M  END
>  <Name>
8-1q

>  <Family>
E.1

>  <IC50_uM>
0.009000

>  <set>
0

$$$$
8-1r
  Cerius2 12120216093D 1   1.00000                          
 Structure written by MMmdl.
 39 41  0  0  0  0  0  0  0  0999 V2000
   21.2476   21.1844   16.9492 C   0  0  0  0  0  0
   21.9639   20.3191   17.7753 C   0  0  0  0  0  0
   23.3565   20.4344   17.8551 C   0  0  0  0  0  0
   24.0459   21.4014   17.0980 C   0  0  0  0  0  0
   23.3083   22.2708   16.2833 C   0  0  0  0  0  0
   21.9145   22.1578   16.2021 C   0  0  0  0  0  0
   25.4712   21.4887   17.2160 N   0  0  0  0  0  0
   26.2133   22.7304   15.0989 C   0  0  0  0  0  0
   26.4659   24.0889   14.8817 C   0  0  0  0  0  0
   26.2980   24.6459   13.6084 C   0  0  0  0  0  0
   25.9077   23.8551   12.5262 C   0  0  0  0  0  0
   25.6432   22.5025   12.7490 C   0  0  0  0  0  0
   25.8091   21.9375   14.0190 C   0  0  0  0  0  0
   26.4142   22.1454   16.4227 C   0  0  0  0  0  0
   26.0767   20.8680   18.2788 N   0  0  0  0  0  0
   27.3623   21.2648   18.2493 C   0  0  0  0  0  0
   27.6094   22.0631   17.1142 C   0  0  0  0  0  0
   28.3702   20.8489   19.2870 C   0  0  0  0  0  0
   27.9217   21.0423   20.5632 F   0  0  0  0  0  0
   29.5456   21.5387   19.1906 F   0  0  0  0  0  0
   28.6970   19.5256   19.1922 F   0  0  0  0  0  0
   19.4870   21.0402   16.8132 S   0  0  0  0  0  0
   18.9471   22.2462   16.2105 O   0  0  0  0  0  0
   18.9567   20.5427   18.0702 O   0  0  0  0  0  0
   19.3192   19.8171   15.6810 N   0  0  0  0  0  0
   25.6836   24.4211   11.2858 N   0  0  0  0  0  0
   21.4565   19.5569   18.3625 H   0  0  0  0  0  0
   23.8907   19.7442   18.5076 H   0  0  0  0  0  0
   23.7707   23.0766   15.7231 H   0  0  0  0  0  0
   21.3580   22.8432   15.5654 H   0  0  0  0  0  0
   26.7840   24.7314   15.7012 H   0  0  0  0  0  0
   26.4823   25.7101   13.4713 H   0  0  0  0  0  0
   25.3099   21.8673   11.9302 H   0  0  0  0  0  0
   25.6148   20.8745   14.1519 H   0  0  0  0  0  0
   28.5610   22.4787   16.8055 H   0  0  0  0  0  0
   18.8433   20.1559   14.8407 H   0  0  0  0  0  0
   18.8389   19.0067   16.0809 H   0  0  0  0  0  0
   25.5243   23.8328   10.4714 H   0  0  0  0  0  0
   25.9955   25.3688   11.0875 H   0  0  0  0  0  0
  1  2  2  0  0  0
  1  6  1  0  0  0
  1 22  1  0  0  0
  2  3  1  0  0  0
  2 27  1  0  0  0
  3  4  2  0  0  0
  3 28  1  0  0  0
  4  5  1  0  0  0
  4  7  1  0  0  0
  5  6  2  0  0  0
  5 29  1  0  0  0
  6 30  1  0  0  0
  7 14  1  0  0  0
  7 15  1  0  0  0
  8  9  2  0  0  0
  8 13  1  0  0  0
  8 14  1  0  0  0
  9 10  1  0  0  0
  9 31  1  0  0  0
 10 11  2  0  0  0
 10 32  1  0  0  0
 11 12  1  0  0  0
 11 26  1  0  0  0
 12 13  2  0  0  0
 12 33  1  0  0  0
 13 34  1  0  0  0
 14 17  2  0  0  0
 15 16  2  0  0  0
 16 17  1  0  0  0
 16 18  1  0  0  0
 17 35  1  0  0  0
 18 19  1  0  0  0
 18 20  1  0  0  0
 18 21  1  0  0  0
 22 23  2  0  0  0
 22 24  2  0  0  0
 22 25  1  0  0  0
 25 36  1  0  0  0
 25 37  1  0  0  0
 26 38  1  0  0  0
 26 39  1  0  0  0
M  END
>  <Name>
8-1r

>  <Family>
E.1

>  <IC50_uM>
0.340000

>  <set>
0

$$$$
8-1s
  Cerius2 12120216093D 1   1.00000                          
 Structure written by MMmdl.
 45 47  0  0  0  0  0  0  0  0999 V2000
   21.2398   21.1868   16.9466 C   0  0  0  0  0  0
   21.9595   20.3227   17.7718 C   0  0  0  0  0  0
   23.3516   20.4407   17.8525 C   0  0  0  0  0  0
   24.0402   21.4101   17.0973 C   0  0  0  0  0  0
   23.2986   22.2745   16.2799 C   0  0  0  0  0  0
   21.9040   22.1593   16.1981 C   0  0  0  0  0  0
   25.4679   21.4966   17.2172 N   0  0  0  0  0  0
   26.2116   22.7759   15.1149 C   0  0  0  0  0  0
   26.4703   24.1530   14.8826 C   0  0  0  0  0  0
   26.3035   24.6390   13.5720 C   0  0  0  0  0  0
   25.9070   23.8034   12.5237 C   0  0  0  0  0  0
   25.6739   22.4545   12.7589 C   0  0  0  0  0  0
   25.8315   21.9416   14.0446 C   0  0  0  0  0  0
   26.4160   22.1536   16.4305 C   0  0  0  0  0  0
   26.0693   20.8598   18.2737 N   0  0  0  0  0  0
   27.3645   21.2195   18.2305 C   0  0  0  0  0  0
   27.6195   22.0203   17.1002 C   0  0  0  0  0  0
   19.4802   21.0188   16.8263 S   0  0  0  0  0  0
   18.9139   22.2745   16.3660 O   0  0  0  0  0  0
   18.9730   20.3789   18.0272 O   0  0  0  0  0  0
   19.3179   19.9128   15.5791 N   0  0  0  0  0  0
   28.3826   20.7717   19.2449 C   0  0  0  0  0  0
   29.6116   21.3297   19.0319 F   0  0  0  0  0  0
   28.5700   19.4180   19.2257 F   0  0  0  0  0  0
   28.0405   21.0905   20.5292 F   0  0  0  0  0  0
   21.4502   19.5600   18.3576 H   0  0  0  0  0  0
   23.8851   19.7512   18.5059 H   0  0  0  0  0  0
   23.7563   23.0767   15.7123 H   0  0  0  0  0  0
   21.3507   22.8430   15.5577 H   0  0  0  0  0  0
   26.8613   25.0164   15.9157 N   0  0  0  0  0  0
   26.4645   25.6923   13.3480 H   0  0  0  0  0  0
   25.3744   21.8000   11.9425 H   0  0  0  0  0  0
   25.6608   20.8782   14.2084 H   0  0  0  0  0  0
   28.5755   22.4193   16.7838 H   0  0  0  0  0  0
   18.8177   20.3217   14.7853 H   0  0  0  0  0  0
   18.8652   19.0543   15.9035 H   0  0  0  0  0  0
   25.7829   24.2121   11.5223 H   0  0  0  0  0  0
   25.7922   25.4429   16.8204 C   0  0  0  0  0  0
   27.9043   26.0042   15.6386 C   0  0  0  0  0  0
   26.2098   25.9969   17.6680 H   0  0  0  0  0  0
   25.0860   26.0993   16.2993 H   0  0  0  0  0  0
   25.2391   24.5958   17.2352 H   0  0  0  0  0  0
   27.5094   26.8557   15.0745 H   0  0  0  0  0  0
   28.3165   26.3861   16.5791 H   0  0  0  0  0  0
   28.7342   25.5556   15.0814 H   0  0  0  0  0  0
  1  2  2  0  0  0
  1  6  1  0  0  0
  1 18  1  0  0  0
  2  3  1  0  0  0
  2 26  1  0  0  0
  3  4  2  0  0  0
  3 27  1  0  0  0
  4  5  1  0  0  0
  4  7  1  0  0  0
  5  6  2  0  0  0
  5 28  1  0  0  0
  6 29  1  0  0  0
  7 14  1  0  0  0
  7 15  1  0  0  0
  8  9  2  0  0  0
  8 13  1  0  0  0
  8 14  1  0  0  0
  9 10  1  0  0  0
  9 30  1  0  0  0
 10 11  2  0  0  0
 10 31  1  0  0  0
 11 12  1  0  0  0
 11 37  1  0  0  0
 12 13  2  0  0  0
 12 32  1  0  0  0
 13 33  1  0  0  0
 14 17  2  0  0  0
 15 16  2  0  0  0
 16 17  1  0  0  0
 16 22  1  0  0  0
 17 34  1  0  0  0
 18 19  2  0  0  0
 18 20  2  0  0  0
 18 21  1  0  0  0
 21 35  1  0  0  0
 21 36  1  0  0  0
 22 23  1  0  0  0
 22 24  1  0  0  0
 22 25  1  0  0  0
 30 38  1  0  0  0
 30 39  1  0  0  0
 38 40  1  0  0  0
 38 41  1  0  0  0
 38 42  1  0  0  0
 39 43  1  0  0  0
 39 44  1  0  0  0
 39 45  1  0  0  0
M  END
>  <Name>
8-1s

>  <Family>
E.1

>  <IC50_uM>
14.300000

>  <set>
0

$$$$
8-1t
  Cerius2 12120216093D 1   1.00000                          
 Structure written by MMmdl.
 42 44  0  0  0  0  0  0  0  0999 V2000
   21.2484   21.1868   16.9486 C   0  0  0  0  0  0
   21.9639   20.3214   17.7756 C   0  0  0  0  0  0
   23.3565   20.4361   17.8567 C   0  0  0  0  0  0
   24.0467   21.4021   17.0994 C   0  0  0  0  0  0
   23.3101   22.2725   16.2845 C   0  0  0  0  0  0
   21.9162   22.1601   16.2022 C   0  0  0  0  0  0
   25.4722   21.4879   17.2169 N   0  0  0  0  0  0
   26.2117   22.7296   15.1000 C   0  0  0  0  0  0
   26.4684   24.0853   14.8794 C   0  0  0  0  0  0
   26.2943   24.6453   13.6061 C   0  0  0  0  0  0
   25.8725   23.8695   12.5213 C   0  0  0  0  0  0
   25.6363   22.5083   12.7523 C   0  0  0  0  0  0
   25.8070   21.9394   14.0210 C   0  0  0  0  0  0
   26.4149   22.1444   16.4232 C   0  0  0  0  0  0
   26.0776   20.8664   18.2789 N   0  0  0  0  0  0
   27.3631   21.2642   18.2500 C   0  0  0  0  0  0
   27.6104   22.0621   17.1144 C   0  0  0  0  0  0
   28.3695   20.8511   19.2902 C   0  0  0  0  0  0
   27.9327   21.0825   20.5643 F   0  0  0  0  0  0
   29.5579   21.5149   19.1716 F   0  0  0  0  0  0
   28.6697   19.5199   19.2238 F   0  0  0  0  0  0
   19.4884   21.0389   16.8090 S   0  0  0  0  0  0
   18.9321   22.2956   16.3389 O   0  0  0  0  0  0
   18.9717   20.4077   18.0103 O   0  0  0  0  0  0
   19.3249   19.9382   15.5569 N   0  0  0  0  0  0
   25.6871   24.3757   11.2520 N   0  0  0  0  0  0
   25.8932   25.7617   10.8858 C   0  0  0  0  0  0
   21.4556   19.5592   18.3622 H   0  0  0  0  0  0
   23.8901   19.7456   18.5090 H   0  0  0  0  0  0
   23.7737   23.0783   15.7249 H   0  0  0  0  0  0
   21.3607   22.8458   15.5652 H   0  0  0  0  0  0
   26.7992   24.7260   15.6956 H   0  0  0  0  0  0
   26.4998   25.7072   13.4867 H   0  0  0  0  0  0
   25.3141   21.8641   11.9350 H   0  0  0  0  0  0
   25.6200   20.8746   14.1501 H   0  0  0  0  0  0
   28.5616   22.4785   16.8056 H   0  0  0  0  0  0
   18.8414   20.3575   14.7584 H   0  0  0  0  0  0
   18.8535   19.0867   15.8733 H   0  0  0  0  0  0
   25.3718   23.7477   10.5115 H   0  0  0  0  0  0
   25.6745   25.8951    9.8217 H   0  0  0  0  0  0
   26.9321   26.0630   11.0536 H   0  0  0  0  0  0
   25.2256   26.4212   11.4494 H   0  0  0  0  0  0
  1  2  2  0  0  0
  1  6  1  0  0  0
  1 22  1  0  0  0
  2  3  1  0  0  0
  2 28  1  0  0  0
  3  4  2  0  0  0
  3 29  1  0  0  0
  4  5  1  0  0  0
  4  7  1  0  0  0
  5  6  2  0  0  0
  5 30  1  0  0  0
  6 31  1  0  0  0
  7 14  1  0  0  0
  7 15  1  0  0  0
  8  9  2  0  0  0
  8 13  1  0  0  0
  8 14  1  0  0  0
  9 10  1  0  0  0
  9 32  1  0  0  0
 10 11  2  0  0  0
 10 33  1  0  0  0
 11 12  1  0  0  0
 11 26  1  0  0  0
 12 13  2  0  0  0
 12 34  1  0  0  0
 13 35  1  0  0  0
 14 17  2  0  0  0
 15 16  2  0  0  0
 16 17  1  0  0  0
 16 18  1  0  0  0
 17 36  1  0  0  0
 18 19  1  0  0  0
 18 20  1  0  0  0
 18 21  1  0  0  0
 22 23  2  0  0  0
 22 24  2  0  0  0
 22 25  1  0  0  0
 25 37  1  0  0  0
 25 38  1  0  0  0
 26 27  1  0  0  0
 26 39  1  0  0  0
 27 40  1  0  0  0
 27 41  1  0  0  0
 27 42  1  0  0  0
M  END
>  <Name>
8-1t

>  <Family>
E.1

>  <IC50_uM>
0.016000

>  <set>
1

$$$$
8-1u
  Cerius2 12120216093D 1   1.00000                          
 Structure written by MMmdl.
 45 47  0  0  0  0  0  0  0  0999 V2000
   21.2434   21.1842   16.9487 C   0  0  0  0  0  0
   21.9625   20.3219   17.7758 C   0  0  0  0  0  0
   23.3546   20.4414   17.8568 C   0  0  0  0  0  0
   24.0431   21.4106   17.1012 C   0  0  0  0  0  0
   23.3021   22.2774   16.2869 C   0  0  0  0  0  0
   21.9085   22.1586   16.2019 C   0  0  0  0  0  0
   25.4696   21.4961   17.2191 N   0  0  0  0  0  0
   26.2174   22.7283   15.0984 C   0  0  0  0  0  0
   26.4767   24.0813   14.8846 C   0  0  0  0  0  0
   26.3009   24.6487   13.6125 C   0  0  0  0  0  0
   25.8755   23.8945   12.5050 C   0  0  0  0  0  0
   25.6417   22.5295   12.7465 C   0  0  0  0  0  0
   25.8117   21.9506   14.0146 C   0  0  0  0  0  0
   26.4176   22.1354   16.4176 C   0  0  0  0  0  0
   26.0709   20.8876   18.2919 N   0  0  0  0  0  0
   27.3635   21.2580   18.2473 C   0  0  0  0  0  0
   27.6168   22.0364   17.1005 C   0  0  0  0  0  0
   28.3676   20.8421   19.2888 C   0  0  0  0  0  0
   28.0033   21.2258   20.5488 F   0  0  0  0  0  0
   29.6076   21.3745   19.0741 F   0  0  0  0  0  0
   28.5396   19.4872   19.3359 F   0  0  0  0  0  0
   19.4843   21.0235   16.8132 S   0  0  0  0  0  0
   18.9002   22.3276   16.5540 O   0  0  0  0  0  0
   18.9952   20.2021   17.9062 O   0  0  0  0  0  0
   19.3227   20.1261   15.4084 N   0  0  0  0  0  0
   25.7016   24.4626   11.2493 N   0  0  0  0  0  0
   25.8806   25.9001   11.0332 C   0  0  0  0  0  0
   25.2877   23.6563   10.0992 C   0  0  0  0  0  0
   21.4561   19.5587   18.3628 H   0  0  0  0  0  0
   23.8888   19.7530   18.5110 H   0  0  0  0  0  0
   23.7597   23.0857   15.7268 H   0  0  0  0  0  0
   21.3525   22.8411   15.5616 H   0  0  0  0  0  0
   26.8110   24.7174   15.7031 H   0  0  0  0  0  0
   26.5138   25.7120   13.5197 H   0  0  0  0  0  0
   25.3149   21.8663   11.9476 H   0  0  0  0  0  0
   25.6207   20.8854   14.1357 H   0  0  0  0  0  0
   28.5724   22.4350   16.7815 H   0  0  0  0  0  0
   18.8177   20.6522   14.6905 H   0  0  0  0  0  0
   18.8750   19.2253   15.5956 H   0  0  0  0  0  0
   25.6653   26.1872    9.9985 H   0  0  0  0  0  0
   26.9146   26.1970   11.2395 H   0  0  0  0  0  0
   25.2011   26.4763   11.6707 H   0  0  0  0  0  0
   25.2483   24.2481    9.1784 H   0  0  0  0  0  0
   24.2869   23.2411   10.2593 H   0  0  0  0  0  0
   25.9964   22.8404    9.9200 H   0  0  0  0  0  0
  1  2  2  0  0  0
  1  6  1  0  0  0
  1 22  1  0  0  0
  2  3  1  0  0  0
  2 29  1  0  0  0
  3  4  2  0  0  0
  3 30  1  0  0  0
  4  5  1  0  0  0
  4  7  1  0  0  0
  5  6  2  0  0  0
  5 31  1  0  0  0
  6 32  1  0  0  0
  7 14  1  0  0  0
  7 15  1  0  0  0
  8  9  2  0  0  0
  8 13  1  0  0  0
  8 14  1  0  0  0
  9 10  1  0  0  0
  9 33  1  0  0  0
 10 11  2  0  0  0
 10 34  1  0  0  0
 11 12  1  0  0  0
 11 26  1  0  0  0
 12 13  2  0  0  0
 12 35  1  0  0  0
 13 36  1  0  0  0
 14 17  2  0  0  0
 15 16  2  0  0  0
 16 17  1  0  0  0
 16 18  1  0  0  0
 17 37  1  0  0  0
 18 19  1  0  0  0
 18 20  1  0  0  0
 18 21  1  0  0  0
 22 23  2  0  0  0
 22 24  2  0  0  0
 22 25  1  0  0  0
 25 38  1  0  0  0
 25 39  1  0  0  0
 26 27  1  0  0  0
 26 28  1  0  0  0
 27 40  1  0  0  0
 27 41  1  0  0  0
 27 42  1  0  0  0
 28 43  1  0  0  0
 28 44  1  0  0  0
 28 45  1  0  0  0
M  END
>  <Name>
8-1u

>  <Family>
E.1

>  <IC50_uM>
0.004700

>  <set>
1

$$$$
8-1v
  Cerius2 12120216093D 1   1.00000                          
 Structure written by MMmdl.
 41 43  0  0  0  0  0  0  0  0999 V2000
   21.2479   21.1857   16.9486 C   0  0  0  0  0  0
   21.9648   20.3199   17.7739 C   0  0  0  0  0  0
   23.3570   20.4351   17.8537 C   0  0  0  0  0  0
   24.0462   21.4023   17.0967 C   0  0  0  0  0  0
   23.3086   22.2715   16.2813 C   0  0  0  0  0  0
   21.9146   22.1586   16.2005 C   0  0  0  0  0  0
   25.4713   21.4893   17.2155 N   0  0  0  0  0  0
   26.2113   22.7306   15.0988 C   0  0  0  0  0  0
   26.4698   24.0888   14.8809 C   0  0  0  0  0  0
   26.2990   24.6475   13.6107 C   0  0  0  0  0  0
   25.8717   23.8570   12.5355 C   0  0  0  0  0  0
   25.6386   22.4921   12.7504 C   0  0  0  0  0  0
   25.8086   21.9329   14.0205 C   0  0  0  0  0  0
   26.4142   22.1460   16.4228 C   0  0  0  0  0  0
   26.0762   20.8681   18.2781 N   0  0  0  0  0  0
   27.3621   21.2643   18.2486 C   0  0  0  0  0  0
   27.6097   22.0633   17.1139 C   0  0  0  0  0  0
   19.4874   21.0393   16.8152 S   0  0  0  0  0  0
   18.9495   22.2278   16.1770 O   0  0  0  0  0  0
   18.9543   20.5792   18.0853 O   0  0  0  0  0  0
   19.3210   19.7831   15.7195 N   0  0  0  0  0  0
   28.3682   20.8489   19.2881 C   0  0  0  0  0  0
   29.5655   21.4936   19.1551 F   0  0  0  0  0  0
   28.6483   19.5126   19.2360 F   0  0  0  0  0  0
   27.9420   21.1015   20.5618 F   0  0  0  0  0  0
   25.7029   24.4558   11.1657 C   0  0  0  0  0  0
   26.9437   24.3591   10.4719 O   0  0  0  0  0  0
   21.4576   19.5572   18.3608 H   0  0  0  0  0  0
   23.8915   19.7443   18.5053 H   0  0  0  0  0  0
   23.7714   23.0765   15.7202 H   0  0  0  0  0  0
   21.3581   22.8436   15.5636 H   0  0  0  0  0  0
   26.8018   24.7270   15.6986 H   0  0  0  0  0  0
   26.5053   25.7073   13.4645 H   0  0  0  0  0  0
   25.3259   21.8523   11.9257 H   0  0  0  0  0  0
   25.6269   20.8678   14.1561 H   0  0  0  0  0  0
   28.5611   22.4789   16.8049 H   0  0  0  0  0  0
   18.8485   20.0965   14.8677 H   0  0  0  0  0  0
   18.8389   18.9856   16.1422 H   0  0  0  0  0  0
   25.4106   25.5091   11.2334 H   0  0  0  0  0  0
   24.9323   23.9229   10.5986 H   0  0  0  0  0  0
   26.7735   24.7612    9.5941 H   0  0  0  0  0  0
  1  2  2  0  0  0
  1  6  1  0  0  0
  1 18  1  0  0  0
  2  3  1  0  0  0
  2 28  1  0  0  0
  3  4  2  0  0  0
  3 29  1  0  0  0
  4  5  1  0  0  0
  4  7  1  0  0  0
  5  6  2  0  0  0
  5 30  1  0  0  0
  6 31  1  0  0  0
  7 14  1  0  0  0
  7 15  1  0  0  0
  8  9  2  0  0  0
  8 13  1  0  0  0
  8 14  1  0  0  0
  9 10  1  0  0  0
  9 32  1  0  0  0
 10 11  2  0  0  0
 10 33  1  0  0  0
 11 12  1  0  0  0
 11 26  1  0  0  0
 12 13  2  0  0  0
 12 34  1  0  0  0
 13 35  1  0  0  0
 14 17  2  0  0  0
 15 16  2  0  0  0
 16 17  1  0  0  0
 16 22  1  0  0  0
 17 36  1  0  0  0
 18 19  2  0  0  0
 18 20  2  0  0  0
 18 21  1  0  0  0
 21 37  1  0  0  0
 21 38  1  0  0  0
 22 23  1  0  0  0
 22 24  1  0  0  0
 22 25  1  0  0  0
 26 27  1  0  0  0
 26 39  1  0  0  0
 26 40  1  0  0  0
 27 41  1  0  0  0
M  END
>  <Name>
8-1v

>  <Family>
E.1

>  <IC50_uM>
93.300000

>  <set>
2

$$$$
8-1w
  Cerius2 12120216093D 1   1.00000                          
 Structure written by MMmdl.
 40 42  0  0  0  0  0  0  0  0999 V2000
   21.2509   21.1866   16.9450 C   0  0  0  0  0  0
   21.9658   20.3219   17.7733 C   0  0  0  0  0  0
   23.3580   20.4376   17.8560 C   0  0  0  0  0  0
   24.0483   21.4041   17.0994 C   0  0  0  0  0  0
   23.3123   22.2743   16.2836 C   0  0  0  0  0  0
   21.9188   22.1607   16.1995 C   0  0  0  0  0  0
   25.4733   21.4895   17.2178 N   0  0  0  0  0  0
   26.2105   22.7281   15.0996 C   0  0  0  0  0  0
   26.4683   24.0870   14.8808 C   0  0  0  0  0  0
   26.2898   24.6486   13.6117 C   0  0  0  0  0  0
   25.8623   23.8526   12.5417 C   0  0  0  0  0  0
   25.6207   22.4896   12.7543 C   0  0  0  0  0  0
   25.7991   21.9302   14.0240 C   0  0  0  0  0  0
   26.4159   22.1446   16.4233 C   0  0  0  0  0  0
   26.0788   20.8676   18.2795 N   0  0  0  0  0  0
   27.3649   21.2630   18.2485 C   0  0  0  0  0  0
   27.6119   22.0615   17.1130 C   0  0  0  0  0  0
   19.4911   21.0408   16.8056 S   0  0  0  0  0  0
   18.9357   22.2981   16.3365 O   0  0  0  0  0  0
   18.9744   20.4081   18.0061 O   0  0  0  0  0  0
   19.3269   19.9423   15.5520 N   0  0  0  0  0  0
   28.3726   20.8458   19.2857 C   0  0  0  0  0  0
   29.5525   21.5270   19.1832 F   0  0  0  0  0  0
   28.6903   19.5199   19.1978 F   0  0  0  0  0  0
   27.9281   21.0495   20.5619 F   0  0  0  0  0  0
   25.6580   24.4053   11.1765 C   0  0  0  0  0  0
   25.2979   23.7695   10.1995 O   0  0  0  0  0  0
   25.9156   25.7252   11.1128 O   0  0  0  0  0  0
   21.4574   19.5597   18.3597 H   0  0  0  0  0  0
   23.8915   19.7477   18.5094 H   0  0  0  0  0  0
   23.7755   23.0814   15.7258 H   0  0  0  0  0  0
   21.3630   22.8461   15.5620 H   0  0  0  0  0  0
   26.8020   24.7249   15.6983 H   0  0  0  0  0  0
   26.4899   25.7091   13.4746 H   0  0  0  0  0  0
   25.2942   21.8511   11.9352 H   0  0  0  0  0  0
   25.6135   20.8659   14.1618 H   0  0  0  0  0  0
   28.5634   22.4765   16.8037 H   0  0  0  0  0  0
   18.8407   20.3624   14.7557 H   0  0  0  0  0  0
   18.8574   19.0896   15.8678 H   0  0  0  0  0  0
   25.7516   25.9945   10.1768 H   0  0  0  0  0  0
  1  2  2  0  0  0
  1  6  1  0  0  0
  1 18  1  0  0  0
  2  3  1  0  0  0
  2 29  1  0  0  0
  3  4  2  0  0  0
  3 30  1  0  0  0
  4  5  1  0  0  0
  4  7  1  0  0  0
  5  6  2  0  0  0
  5 31  1  0  0  0
  6 32  1  0  0  0
  7 14  1  0  0  0
  7 15  1  0  0  0
  8  9  2  0  0  0
  8 13  1  0  0  0
  8 14  1  0  0  0
  9 10  1  0  0  0
  9 33  1  0  0  0
 10 11  2  0  0  0
 10 34  1  0  0  0
 11 12  1  0  0  0
 11 26  1  0  0  0
 12 13  2  0  0  0
 12 35  1  0  0  0
 13 36  1  0  0  0
 14 17  2  0  0  0
 15 16  2  0  0  0
 16 17  1  0  0  0
 16 22  1  0  0  0
 17 37  1  0  0  0
 18 19  2  0  0  0
 18 20  2  0  0  0
 18 21  1  0  0  0
 21 38  1  0  0  0
 21 39  1  0  0  0
 22 23  1  0  0  0
 22 24  1  0  0  0
 22 25  1  0  0  0
 26 27  2  0  0  0
 26 28  1  0  0  0
 28 40  1  0  0  0
M  END
>  <Name>
8-1w

>  <Family>
E.1

>  <IC50_uM>
11.200000

>  <set>
0

$$$$
8-1x
  Cerius2 12120216093D 1   1.00000                          
 Structure written by MMmdl.
 44 46  0  0  0  0  0  0  0  0999 V2000
   21.2495   21.1841   16.9470 C   0  0  0  0  0  0
   21.9646   20.3177   17.7732 C   0  0  0  0  0  0
   23.3572   20.4316   17.8534 C   0  0  0  0  0  0
   24.0473   21.3984   17.0967 C   0  0  0  0  0  0
   23.3110   22.2693   16.2821 C   0  0  0  0  0  0
   21.9174   22.1573   16.2000 C   0  0  0  0  0  0
   25.4724   21.4858   17.2161 N   0  0  0  0  0  0
   26.2110   22.7272   15.0987 C   0  0  0  0  0  0
   26.4674   24.0851   14.8776 C   0  0  0  0  0  0
   26.2960   24.6543   13.6038 C   0  0  0  0  0  0
   25.8695   23.8469   12.5335 C   0  0  0  0  0  0
   25.6308   22.4877   12.7516 C   0  0  0  0  0  0
   25.8060   21.9310   14.0234 C   0  0  0  0  0  0
   26.4142   22.1451   16.4238 C   0  0  0  0  0  0
   26.0779   20.8651   18.2782 N   0  0  0  0  0  0
   27.3614   21.2695   18.2533 C   0  0  0  0  0  0
   27.6080   22.0695   17.1188 C   0  0  0  0  0  0
   28.3668   20.8610   19.2963 C   0  0  0  0  0  0
   27.9344   21.1107   20.5684 F   0  0  0  0  0  0
   29.5600   21.5142   19.1676 F   0  0  0  0  0  0
   28.6566   19.5270   19.2449 F   0  0  0  0  0  0
   19.4884   21.0463   16.8140 S   0  0  0  0  0  0
   18.9363   22.3063   16.3484 O   0  0  0  0  0  0
   18.9748   20.4142   18.0163 O   0  0  0  0  0  0
   19.3139   19.9507   15.5588 N   0  0  0  0  0  0
   26.5676   26.1214   13.4059 C   0  0  0  0  0  0
   25.7249   24.4833   11.3284 O   0  0  0  0  0  0
   26.0130   25.8796   11.2892 C   0  0  0  0  0  0
   21.4563   19.5559   18.3601 H   0  0  0  0  0  0
   23.8910   19.7411   18.5056 H   0  0  0  0  0  0
   23.7746   23.0764   15.7245 H   0  0  0  0  0  0
   21.3608   22.8436   15.5641 H   0  0  0  0  0  0
   26.7960   24.7118   15.7065 H   0  0  0  0  0  0
   25.3082   21.8240   11.9538 H   0  0  0  0  0  0
   25.6207   20.8666   14.1609 H   0  0  0  0  0  0
   28.5579   22.4907   16.8134 H   0  0  0  0  0  0
   18.8274   20.3751   14.7648 H   0  0  0  0  0  0
   18.8412   19.0997   15.8743 H   0  0  0  0  0  0
   27.3468   26.2646   12.6502 H   0  0  0  0  0  0
   26.9131   26.5952   14.3307 H   0  0  0  0  0  0
   25.6540   26.6350   13.0896 H   0  0  0  0  0  0
   25.8582   26.2219   10.2613 H   0  0  0  0  0  0
   27.0582   26.0736   11.5517 H   0  0  0  0  0  0
   25.3285   26.4404   11.9339 H   0  0  0  0  0  0
  1  2  2  0  0  0
  1  6  1  0  0  0
  1 22  1  0  0  0
  2  3  1  0  0  0
  2 29  1  0  0  0
  3  4  2  0  0  0
  3 30  1  0  0  0
  4  5  1  0  0  0
  4  7  1  0  0  0
  5  6  2  0  0  0
  5 31  1  0  0  0
  6 32  1  0  0  0
  7 14  1  0  0  0
  7 15  1  0  0  0
  8  9  2  0  0  0
  8 13  1  0  0  0
  8 14  1  0  0  0
  9 10  1  0  0  0
  9 33  1  0  0  0
 10 11  2  0  0  0
 10 26  1  0  0  0
 11 12  1  0  0  0
 11 27  1  0  0  0
 12 13  2  0  0  0
 12 34  1  0  0  0
 13 35  1  0  0  0
 14 17  2  0  0  0
 15 16  2  0  0  0
 16 17  1  0  0  0
 16 18  1  0  0  0
 17 36  1  0  0  0
 18 19  1  0  0  0
 18 20  1  0  0  0
 18 21  1  0  0  0
 22 23  2  0  0  0
 22 24  2  0  0  0
 22 25  1  0  0  0
 25 37  1  0  0  0
 25 38  1  0  0  0
 26 39  1  0  0  0
 26 40  1  0  0  0
 26 41  1  0  0  0
 27 28  1  0  0  0
 28 42  1  0  0  0
 28 43  1  0  0  0
 28 44  1  0  0  0
M  END
>  <Name>
8-1x

>  <Family>
E.1

>  <IC50_uM>
0.009300

>  <set>
0

$$$$
8-1y
  Cerius2 12120216093D 1   1.00000                          
 Structure written by MMmdl.
 47 49  0  0  0  0  0  0  0  0999 V2000
   21.2486   21.1850   16.9486 C   0  0  0  0  0  0
   21.9645   20.3195   17.7751 C   0  0  0  0  0  0
   23.3564   20.4348   17.8553 C   0  0  0  0  0  0
   24.0458   21.4012   17.0976 C   0  0  0  0  0  0
   23.3089   22.2713   16.2822 C   0  0  0  0  0  0
   21.9151   22.1588   16.2014 C   0  0  0  0  0  0
   25.4707   21.4875   17.2162 N   0  0  0  0  0  0
   26.2110   22.7281   15.0990 C   0  0  0  0  0  0
   26.4691   24.0853   14.8763 C   0  0  0  0  0  0
   26.3006   24.6563   13.6009 C   0  0  0  0  0  0
   25.8895   23.8436   12.5275 C   0  0  0  0  0  0
   25.6478   22.4849   12.7482 C   0  0  0  0  0  0
   25.8107   21.9312   14.0229 C   0  0  0  0  0  0
   26.4131   22.1464   16.4243 C   0  0  0  0  0  0
   26.0757   20.8634   18.2765 N   0  0  0  0  0  0
   27.3609   21.2619   18.2489 C   0  0  0  0  0  0
   27.6077   22.0653   17.1171 C   0  0  0  0  0  0
   28.3683   20.8400   19.2842 C   0  0  0  0  0  0
   27.9037   20.9845   20.5611 F   0  0  0  0  0  0
   29.5281   21.5596   19.2206 F   0  0  0  0  0  0
   28.7271   19.5281   19.1538 F   0  0  0  0  0  0
   19.4884   21.0400   16.8158 S   0  0  0  0  0  0
   18.9323   22.2983   16.3491 O   0  0  0  0  0  0
   18.9759   20.4076   18.0178 O   0  0  0  0  0  0
   19.3202   19.9418   15.5621 N   0  0  0  0  0  0
   25.7626   24.4701   11.3156 O   0  0  0  0  0  0
   25.3094   23.6845   10.2155 C   0  0  0  0  0  0
   28.0129   26.3714   12.9255 C   0  0  0  0  0  0
   26.5934   26.1292   13.4161 C   0  0  0  0  0  0
   21.4571   19.5566   18.3615 H   0  0  0  0  0  0
   23.8903   19.7440   18.5071 H   0  0  0  0  0  0
   23.7729   23.0767   15.7223 H   0  0  0  0  0  0
   21.3585   22.8445   15.5657 H   0  0  0  0  0  0
   26.7998   24.7124   15.7043 H   0  0  0  0  0  0
   25.3348   21.8184   11.9488 H   0  0  0  0  0  0
   25.6249   20.8667   14.1606 H   0  0  0  0  0  0
   28.5590   22.4824   16.8095 H   0  0  0  0  0  0
   18.8353   20.3633   14.7657 H   0  0  0  0  0  0
   18.8480   19.0909   15.8783 H   0  0  0  0  0  0
   25.2386   24.3443    9.3456 H   0  0  0  0  0  0
   24.3112   23.2768   10.4058 H   0  0  0  0  0  0
   26.0257   22.8918    9.9756 H   0  0  0  0  0  0
   28.1948   27.4451   12.8125 H   0  0  0  0  0  0
   28.1899   25.8948   11.9555 H   0  0  0  0  0  0
   28.7488   25.9749   13.6330 H   0  0  0  0  0  0
   26.4428   26.6574   14.3655 H   0  0  0  0  0  0
   25.8723   26.5712   12.7182 H   0  0  0  0  0  0
  1  2  2  0  0  0
  1  6  1  0  0  0
  1 22  1  0  0  0
  2  3  1  0  0  0
  2 30  1  0  0  0
  3  4  2  0  0  0
  3 31  1  0  0  0
  4  5  1  0  0  0
  4  7  1  0  0  0
  5  6  2  0  0  0
  5 32  1  0  0  0
  6 33  1  0  0  0
  7 14  1  0  0  0
  7 15  1  0  0  0
  8  9  2  0  0  0
  8 13  1  0  0  0
  8 14  1  0  0  0
  9 10  1  0  0  0
  9 34  1  0  0  0
 10 11  2  0  0  0
 10 29  1  0  0  0
 11 12  1  0  0  0
 11 26  1  0  0  0
 12 13  2  0  0  0
 12 35  1  0  0  0
 13 36  1  0  0  0
 14 17  2  0  0  0
 15 16  2  0  0  0
 16 17  1  0  0  0
 16 18  1  0  0  0
 17 37  1  0  0  0
 18 19  1  0  0  0
 18 20  1  0  0  0
 18 21  1  0  0  0
 22 23  2  0  0  0
 22 24  2  0  0  0
 22 25  1  0  0  0
 25 38  1  0  0  0
 25 39  1  0  0  0
 26 27  1  0  0  0
 27 40  1  0  0  0
 27 41  1  0  0  0
 27 42  1  0  0  0
 28 29  1  0  0  0
 28 43  1  0  0  0
 28 44  1  0  0  0
 28 45  1  0  0  0
 29 46  1  0  0  0
 29 47  1  0  0  0
M  END
>  <Name>
8-1y

>  <Family>
E.1

>  <IC50_uM>
0.430000

>  <set>
1

$$$$
8-1z
  Cerius2 12120216093D 1   1.00000                          
 Structure written by MMmdl.
 45 47  0  0  0  0  0  0  0  0999 V2000
   21.2509   21.1884   16.9449 C   0  0  0  0  0  0
   21.9656   20.3234   17.7732 C   0  0  0  0  0  0
   23.3578   20.4387   17.8571 C   0  0  0  0  0  0
   24.0485   21.4051   17.1010 C   0  0  0  0  0  0
   23.3125   22.2757   16.2853 C   0  0  0  0  0  0
   21.9192   22.1619   16.1994 C   0  0  0  0  0  0
   25.4738   21.4897   17.2184 N   0  0  0  0  0  0
   26.2088   22.7312   15.1002 C   0  0  0  0  0  0
   26.4647   24.0922   14.8843 C   0  0  0  0  0  0
   26.2887   24.6433   13.6140 C   0  0  0  0  0  0
   25.8167   23.8519   12.5630 C   0  0  0  0  0  0
   25.6007   22.4895   12.7579 C   0  0  0  0  0  0
   25.7988   21.9302   14.0232 C   0  0  0  0  0  0
   26.4160   22.1459   16.4234 C   0  0  0  0  0  0
   26.0802   20.8656   18.2778 N   0  0  0  0  0  0
   27.3662   21.2611   18.2467 C   0  0  0  0  0  0
   27.6125   22.0616   17.1123 C   0  0  0  0  0  0
   28.3745   20.8421   19.2826 C   0  0  0  0  0  0
   27.9281   21.0364   20.5595 F   0  0  0  0  0  0
   29.5516   21.5289   19.1850 F   0  0  0  0  0  0
   28.6977   19.5181   19.1872 F   0  0  0  0  0  0
   19.4912   21.0396   16.8038 S   0  0  0  0  0  0
   18.9348   22.2960   16.3335 O   0  0  0  0  0  0
   18.9731   20.4073   18.0039 O   0  0  0  0  0  0
   19.3307   19.9391   15.5513 N   0  0  0  0  0  0
   25.6143   24.3656   11.3095 O   0  0  0  0  0  0
   25.8852   25.7719   11.3078 C   0  0  0  0  0  0
   26.5280   25.9831   13.4532 O   0  0  0  0  0  0
   27.0026   26.5475   14.6809 C   0  0  0  0  0  0
   21.4563   19.5610   18.3587 H   0  0  0  0  0  0
   23.8907   19.7480   18.5098 H   0  0  0  0  0  0
   23.7761   23.0832   15.7283 H   0  0  0  0  0  0
   21.3643   22.8472   15.5613 H   0  0  0  0  0  0
   26.8000   24.7266   15.7023 H   0  0  0  0  0  0
   25.2707   21.8608   11.9342 H   0  0  0  0  0  0
   25.6239   20.8641   14.1607 H   0  0  0  0  0  0
   28.5641   22.4766   16.8027 H   0  0  0  0  0  0
   18.8474   20.3579   14.7524 H   0  0  0  0  0  0
   18.8605   19.0866   15.8668 H   0  0  0  0  0  0
   25.6178   26.1610   10.3208 H   0  0  0  0  0  0
   26.9492   25.9704   11.4735 H   0  0  0  0  0  0
   25.2777   26.2948   12.0552 H   0  0  0  0  0  0
   27.0971   27.6277   14.5356 H   0  0  0  0  0  0
   27.9897   26.1537   14.9437 H   0  0  0  0  0  0
   26.2919   26.3752   15.4970 H   0  0  0  0  0  0
  1  2  2  0  0  0
  1  6  1  0  0  0
  1 22  1  0  0  0
  2  3  1  0  0  0
  2 30  1  0  0  0
  3  4  2  0  0  0
  3 31  1  0  0  0
  4  5  1  0  0  0
  4  7  1  0  0  0
  5  6  2  0  0  0
  5 32  1  0  0  0
  6 33  1  0  0  0
  7 14  1  0  0  0
  7 15  1  0  0  0
  8  9  2  0  0  0
  8 13  1  0  0  0
  8 14  1  0  0  0
  9 10  1  0  0  0
  9 34  1  0  0  0
 10 11  2  0  0  0
 10 28  1  0  0  0
 11 12  1  0  0  0
 11 26  1  0  0  0
 12 13  2  0  0  0
 12 35  1  0  0  0
 13 36  1  0  0  0
 14 17  2  0  0  0
 15 16  2  0  0  0
 16 17  1  0  0  0
 16 18  1  0  0  0
 17 37  1  0  0  0
 18 19  1  0  0  0
 18 20  1  0  0  0
 18 21  1  0  0  0
 22 23  2  0  0  0
 22 24  2  0  0  0
 22 25  1  0  0  0
 25 38  1  0  0  0
 25 39  1  0  0  0
 26 27  1  0  0  0
 27 40  1  0  0  0
 27 41  1  0  0  0
 27 42  1  0  0  0
 28 29  1  0  0  0
 29 43  1  0  0  0
 29 44  1  0  0  0
 29 45  1  0  0  0
M  END
>  <Name>
8-1z

>  <Family>
E.1

>  <IC50_uM>
0.600000

>  <set>
1

$$$$
8-1aa
  Cerius2 12120216093D 1   1.00000                          
 Structure written by MMmdl.
 44 46  0  0  0  0  0  0  0  0999 V2000
   21.2487   21.1822   16.9458 C   0  0  0  0  0  0
   21.9651   20.3186   17.7736 C   0  0  0  0  0  0
   23.3570   20.4366   17.8551 C   0  0  0  0  0  0
   24.0465   21.4047   17.0989 C   0  0  0  0  0  0
   23.3087   22.2725   16.2826 C   0  0  0  0  0  0
   21.9151   22.1568   16.1998 C   0  0  0  0  0  0
   25.4720   21.4920   17.2189 N   0  0  0  0  0  0
   26.2130   22.7239   15.0976 C   0  0  0  0  0  0
   26.4702   24.0836   14.8783 C   0  0  0  0  0  0
   26.2952   24.6645   13.6082 C   0  0  0  0  0  0
   25.8705   23.8531   12.5394 C   0  0  0  0  0  0
   25.6249   22.4905   12.7591 C   0  0  0  0  0  0
   25.8014   21.9281   14.0253 C   0  0  0  0  0  0
   26.4167   22.1406   16.4215 C   0  0  0  0  0  0
   26.0753   20.8784   18.2869 N   0  0  0  0  0  0
   27.3645   21.2629   18.2492 C   0  0  0  0  0  0
   27.6144   22.0509   17.1074 C   0  0  0  0  0  0
   19.4885   21.0389   16.8086 S   0  0  0  0  0  0
   18.9340   22.2970   16.3412 O   0  0  0  0  0  0
   18.9747   20.4066   18.0105 O   0  0  0  0  0  0
   19.3200   19.9421   15.5538 N   0  0  0  0  0  0
   28.3715   20.8459   19.2872 C   0  0  0  0  0  0
   29.5615   21.5065   19.1670 F   0  0  0  0  0  0
   28.6672   19.5139   19.2184 F   0  0  0  0  0  0
   27.9378   21.0766   20.5625 F   0  0  0  0  0  0
   26.5714   26.1351   13.4400 C   0  0  0  0  0  0
   25.5984   24.5063   10.8942 S   0  0  0  0  0  0
   25.0539   22.9800   10.0761 C   0  0  0  0  0  0
   21.4585   19.5554   18.3600 H   0  0  0  0  0  0
   23.8919   19.7470   18.5079 H   0  0  0  0  0  0
   23.7688   23.0794   15.7224 H   0  0  0  0  0  0
   21.3576   22.8412   15.5622 H   0  0  0  0  0  0
   26.8017   24.7043   15.7112 H   0  0  0  0  0  0
   25.2911   21.8486   11.9450 H   0  0  0  0  0  0
   25.6115   20.8645   14.1625 H   0  0  0  0  0  0
   28.5679   22.4570   16.7927 H   0  0  0  0  0  0
   18.8391   20.3656   14.7560 H   0  0  0  0  0  0
   18.8448   19.0921   15.8679 H   0  0  0  0  0  0
   27.3663   26.2932   12.7041 H   0  0  0  0  0  0
   26.9021   26.5915   14.3792 H   0  0  0  0  0  0
   25.6641   26.6600   13.1245 H   0  0  0  0  0  0
   24.8617   23.1895    9.0205 H   0  0  0  0  0  0
   24.1324   22.6051   10.5292 H   0  0  0  0  0  0
   25.8307   22.2130   10.1435 H   0  0  0  0  0  0
  1  2  2  0  0  0
  1  6  1  0  0  0
  1 18  1  0  0  0
  2  3  1  0  0  0
  2 29  1  0  0  0
  3  4  2  0  0  0
  3 30  1  0  0  0
  4  5  1  0  0  0
  4  7  1  0  0  0
  5  6  2  0  0  0
  5 31  1  0  0  0
  6 32  1  0  0  0
  7 14  1  0  0  0
  7 15  1  0  0  0
  8  9  2  0  0  0
  8 13  1  0  0  0
  8 14  1  0  0  0
  9 10  1  0  0  0
  9 33  1  0  0  0
 10 11  2  0  0  0
 10 26  1  0  0  0
 11 12  1  0  0  0
 11 27  1  0  0  0
 12 13  2  0  0  0
 12 34  1  0  0  0
 13 35  1  0  0  0
 14 17  2  0  0  0
 15 16  2  0  0  0
 16 17  1  0  0  0
 16 22  1  0  0  0
 17 36  1  0  0  0
 18 19  2  0  0  0
 18 20  2  0  0  0
 18 21  1  0  0  0
 21 37  1  0  0  0
 21 38  1  0  0  0
 22 23  1  0  0  0
 22 24  1  0  0  0
 22 25  1  0  0  0
 26 39  1  0  0  0
 26 40  1  0  0  0
 26 41  1  0  0  0
 27 28  1  0  0  0
 28 42  1  0  0  0
 28 43  1  0  0  0
 28 44  1  0  0  0
M  END
>  <Name>
8-1aa

>  <Family>
E.1

>  <IC50_uM>
0.003700

>  <set>
1

$$$$
8-1ab
  Cerius2 12120216093D 1   1.00000                          
 Structure written by MMmdl.
 45 47  0  0  0  0  0  0  0  0999 V2000
   21.2365   21.1753   16.9487 C   0  0  0  0  0  0
   21.9613   20.3234   17.7821 C   0  0  0  0  0  0
   23.3508   20.4603   17.8709 C   0  0  0  0  0  0
   24.0329   21.4383   17.1179 C   0  0  0  0  0  0
   23.2845   22.2924   16.2963 C   0  0  0  0  0  0
   21.8926   22.1570   16.2053 C   0  0  0  0  0  0
   25.4608   21.5258   17.2329 N   0  0  0  0  0  0
   26.2131   22.7357   15.0996 C   0  0  0  0  0  0
   26.4725   24.0898   14.9054 C   0  0  0  0  0  0
   26.3253   24.6562   13.6351 C   0  0  0  0  0  0
   25.9274   23.9115   12.5006 C   0  0  0  0  0  0
   25.6866   22.5434   12.7354 C   0  0  0  0  0  0
   25.8266   21.9615   14.0057 C   0  0  0  0  0  0
   26.4139   22.1263   16.4076 C   0  0  0  0  0  0
   26.0635   20.9388   18.3183 N   0  0  0  0  0  0
   27.3768   21.2046   18.2024 C   0  0  0  0  0  0
   27.6323   21.9544   17.0381 C   0  0  0  0  0  0
   19.4810   20.9802   16.8042 S   0  0  0  0  0  0
   18.9016   22.2249   16.3271 O   0  0  0  0  0  0
   18.9640   20.3370   17.9982 O   0  0  0  0  0  0
   19.3548   19.8690   15.5580 N   0  0  0  0  0  0
   28.4062   20.7340   19.1955 C   0  0  0  0  0  0
   29.6248   20.5130   18.6172 F   0  0  0  0  0  0
   28.0614   19.5628   19.8102 F   0  0  0  0  0  0
   28.6168   21.6432   20.1930 F   0  0  0  0  0  0
   26.6071   25.9656   13.5314 F   0  0  0  0  0  0
   25.7808   24.4622   11.2280 N   0  0  0  0  0  0
   25.9529   25.8968   10.9916 C   0  0  0  0  0  0
   25.5022   23.6196   10.0621 C   0  0  0  0  0  0
   21.4570   19.5546   18.3650 H   0  0  0  0  0  0
   23.8878   19.7780   18.5298 H   0  0  0  0  0  0
   23.7290   23.0968   15.7246 H   0  0  0  0  0  0
   21.3339   22.8311   15.5596 H   0  0  0  0  0  0
   26.7924   24.7239   15.7292 H   0  0  0  0  0  0
   25.3863   21.8784   11.9283 H   0  0  0  0  0  0
   25.6358   20.8952   14.1205 H   0  0  0  0  0  0
   28.5979   22.2887   16.6754 H   0  0  0  0  0  0
   18.8493   20.2658   14.7614 H   0  0  0  0  0  0
   18.9164   19.0032   15.8838 H   0  0  0  0  0  0
   25.6935   26.1706    9.9624 H   0  0  0  0  0  0
   26.9947   26.1921   11.1522 H   0  0  0  0  0  0
   25.2961   26.4846   11.6424 H   0  0  0  0  0  0
   25.4761   24.2009    9.1339 H   0  0  0  0  0  0
   24.5271   23.1307   10.1605 H   0  0  0  0  0  0
   26.2812   22.8587    9.9380 H   0  0  0  0  0  0
  1  2  2  0  0  0
  1  6  1  0  0  0
  1 18  1  0  0  0
  2  3  1  0  0  0
  2 30  1  0  0  0
  3  4  2  0  0  0
  3 31  1  0  0  0
  4  5  1  0  0  0
  4  7  1  0  0  0
  5  6  2  0  0  0
  5 32  1  0  0  0
  6 33  1  0  0  0
  7 14  1  0  0  0
  7 15  1  0  0  0
  8  9  2  0  0  0
  8 13  1  0  0  0
  8 14  1  0  0  0
  9 10  1  0  0  0
  9 34  1  0  0  0
 10 11  2  0  0  0
 10 26  1  0  0  0
 11 12  1  0  0  0
 11 27  1  0  0  0
 12 13  2  0  0  0
 12 35  1  0  0  0
 13 36  1  0  0  0
 14 17  2  0  0  0
 15 16  2  0  0  0
 16 17  1  0  0  0
 16 22  1  0  0  0
 17 37  1  0  0  0
 18 19  2  0  0  0
 18 20  2  0  0  0
 18 21  1  0  0  0
 21 38  1  0  0  0
 21 39  1  0  0  0
 22 23  1  0  0  0
 22 24  1  0  0  0
 22 25  1  0  0  0
 27 28  1  0  0  0
 27 29  1  0  0  0
 28 40  1  0  0  0
 28 41  1  0  0  0
 28 42  1  0  0  0
 29 43  1  0  0  0
 29 44  1  0  0  0
 29 45  1  0  0  0
M  END
>  <Name>
8-1ab

>  <Family>
E.1

>  <IC50_uM>
0.005700

>  <set>
2

$$$$
8-1ac
  Cerius2 12120216093D 1   1.00000                          
 Structure written by MMmdl.
 42 44  0  0  0  0  0  0  0  0999 V2000
   21.2468   21.1854   16.9509 C   0  0  0  0  0  0
   21.9630   20.3197   17.7770 C   0  0  0  0  0  0
   23.3555   20.4340   17.8561 C   0  0  0  0  0  0
   24.0450   21.4004   17.0987 C   0  0  0  0  0  0
   23.3079   22.2713   16.2847 C   0  0  0  0  0  0
   21.9139   22.1587   16.2037 C   0  0  0  0  0  0
   25.4704   21.4864   17.2162 N   0  0  0  0  0  0
   26.2108   22.7285   15.0989 C   0  0  0  0  0  0
   26.4655   24.0832   14.8747 C   0  0  0  0  0  0
   26.3026   24.6532   13.5977 C   0  0  0  0  0  0
   25.8857   23.8739   12.4977 C   0  0  0  0  0  0
   25.6532   22.5063   12.7537 C   0  0  0  0  0  0
   25.8156   21.9378   14.0228 C   0  0  0  0  0  0
   26.4122   22.1460   16.4238 C   0  0  0  0  0  0
   26.0765   20.8623   18.2758 N   0  0  0  0  0  0
   27.3612   21.2620   18.2485 C   0  0  0  0  0  0
   27.6070   22.0659   17.1166 C   0  0  0  0  0  0
   19.4864   21.0387   16.8156 S   0  0  0  0  0  0
   18.9299   22.2958   16.3468 O   0  0  0  0  0  0
   18.9720   20.4072   18.0177 O   0  0  0  0  0  0
   19.3201   19.9390   15.5630 N   0  0  0  0  0  0
   26.6561   26.3482   13.5088 Cl  0  0  0  0  0  0
   25.6776   24.2847   11.1926 N   0  0  0  0  0  0
   25.2530   23.4895   10.0628 C   0  0  0  0  0  0
   28.3688   20.8443   19.2860 C   0  0  0  0  0  0
   29.5602   21.5017   19.1630 F   0  0  0  0  0  0
   28.6614   19.5114   19.2192 F   0  0  0  0  0  0
   27.9371   21.0785   20.5611 F   0  0  0  0  0  0
   21.4550   19.5581   18.3646 H   0  0  0  0  0  0
   23.8895   19.7432   18.5077 H   0  0  0  0  0  0
   23.7707   23.0779   15.7258 H   0  0  0  0  0  0
   21.3575   22.8446   15.5676 H   0  0  0  0  0  0
   26.7899   24.7109   15.7038 H   0  0  0  0  0  0
   25.3360   21.8493   11.9430 H   0  0  0  0  0  0
   25.6297   20.8724   14.1501 H   0  0  0  0  0  0
   28.5579   22.4844   16.8099 H   0  0  0  0  0  0
   18.8357   20.3593   14.7654 H   0  0  0  0  0  0
   18.8490   19.0876   15.8796 H   0  0  0  0  0  0
   25.8485   25.2691   10.9798 H   0  0  0  0  0  0
   25.2015   24.1274    9.1742 H   0  0  0  0  0  0
   24.2520   23.0774   10.2188 H   0  0  0  0  0  0
   25.9699   22.6931    9.8435 H   0  0  0  0  0  0
  1  2  2  0  0  0
  1  6  1  0  0  0
  1 18  1  0  0  0
  2  3  1  0  0  0
  2 29  1  0  0  0
  3  4  2  0  0  0
  3 30  1  0  0  0
  4  5  1  0  0  0
  4  7  1  0  0  0
  5  6  2  0  0  0
  5 31  1  0  0  0
  6 32  1  0  0  0
  7 14  1  0  0  0
  7 15  1  0  0  0
  8  9  2  0  0  0
  8 13  1  0  0  0
  8 14  1  0  0  0
  9 10  1  0  0  0
  9 33  1  0  0  0
 10 11  2  0  0  0
 10 22  1  0  0  0
 11 12  1  0  0  0
 11 23  1  0  0  0
 12 13  2  0  0  0
 12 34  1  0  0  0
 13 35  1  0  0  0
 14 17  2  0  0  0
 15 16  2  0  0  0
 16 17  1  0  0  0
 16 25  1  0  0  0
 17 36  1  0  0  0
 18 19  2  0  0  0
 18 20  2  0  0  0
 18 21  1  0  0  0
 21 37  1  0  0  0
 21 38  1  0  0  0
 23 24  1  0  0  0
 23 39  1  0  0  0
 24 40  1  0  0  0
 24 41  1  0  0  0
 24 42  1  0  0  0
 25 26  1  0  0  0
 25 27  1  0  0  0
 25 28  1  0  0  0
M  END
>  <Name>
8-1ac

>  <Family>
E.1

>  <IC50_uM>
0.027000

>  <set>
1

$$$$
8-1ad
  Cerius2 12120216093D 1   1.00000                          
 Structure written by MMmdl.
 44 46  0  0  0  0  0  0  0  0999 V2000
   21.2490   21.1879   16.9468 C   0  0  0  0  0  0
   21.9646   20.3227   17.7742 C   0  0  0  0  0  0
   23.3568   20.4384   17.8568 C   0  0  0  0  0  0
   24.0468   21.4051   17.1002 C   0  0  0  0  0  0
   23.3104   22.2750   16.2847 C   0  0  0  0  0  0
   21.9168   22.1613   16.2005 C   0  0  0  0  0  0
   25.4721   21.4907   17.2181 N   0  0  0  0  0  0
   26.2104   22.7318   15.0986 C   0  0  0  0  0  0
   26.4594   24.0921   14.8859 C   0  0  0  0  0  0
   26.2953   24.6449   13.6147 C   0  0  0  0  0  0
   25.9048   23.8358   12.5374 C   0  0  0  0  0  0
   25.6170   22.4768   12.7398 C   0  0  0  0  0  0
   25.8041   21.9308   14.0205 C   0  0  0  0  0  0
   26.4141   22.1468   16.4229 C   0  0  0  0  0  0
   26.0785   20.8673   18.2781 N   0  0  0  0  0  0
   27.3655   21.2594   18.2446 C   0  0  0  0  0  0
   27.6114   22.0599   17.1103 C   0  0  0  0  0  0
   19.4891   21.0362   16.8086 S   0  0  0  0  0  0
   18.9321   22.2893   16.3302 O   0  0  0  0  0  0
   18.9713   20.4123   18.0134 O   0  0  0  0  0  0
   19.3289   19.9258   15.5650 N   0  0  0  0  0  0
   26.5708   26.3401   13.4176 Cl  0  0  0  0  0  0
   25.1614   21.5845   11.6196 C   0  0  0  0  0  0
   25.7255   24.3808   11.2885 O   0  0  0  0  0  0
   26.9469   24.3206   10.5422 C   0  0  0  0  0  0
   28.3744   20.8389   19.2796 C   0  0  0  0  0  0
   29.5838   21.4550   19.1226 F   0  0  0  0  0  0
   28.6251   19.4962   19.2467 F   0  0  0  0  0  0
   27.9680   21.1219   20.5532 F   0  0  0  0  0  0
   21.4557   19.5605   18.3603 H   0  0  0  0  0  0
   23.8906   19.7482   18.5094 H   0  0  0  0  0  0
   23.7734   23.0823   15.7270 H   0  0  0  0  0  0
   21.3617   22.8471   15.5630 H   0  0  0  0  0  0
   26.7725   24.7247   15.7141 H   0  0  0  0  0  0
   25.6224   20.8672   14.1786 H   0  0  0  0  0  0
   28.5635   22.4725   16.7993 H   0  0  0  0  0  0
   18.8429   20.3371   14.7639 H   0  0  0  0  0  0
   18.8616   19.0746   15.8879 H   0  0  0  0  0  0
   24.6083   20.7213   12.0055 H   0  0  0  0  0  0
   26.0242   21.2191   11.0549 H   0  0  0  0  0  0
   24.4860   22.1167   10.9423 H   0  0  0  0  0  0
   27.2505   23.2840   10.3632 H   0  0  0  0  0  0
   27.7528   24.8683   11.0419 H   0  0  0  0  0  0
   26.7670   24.7931    9.5720 H   0  0  0  0  0  0
  1  2  2  0  0  0
  1  6  1  0  0  0
  1 18  1  0  0  0
  2  3  1  0  0  0
  2 30  1  0  0  0
  3  4  2  0  0  0
  3 31  1  0  0  0
  4  5  1  0  0  0
  4  7  1  0  0  0
  5  6  2  0  0  0
  5 32  1  0  0  0
  6 33  1  0  0  0
  7 14  1  0  0  0
  7 15  1  0  0  0
  8  9  2  0  0  0
  8 13  1  0  0  0
  8 14  1  0  0  0
  9 10  1  0  0  0
  9 34  1  0  0  0
 10 11  2  0  0  0
 10 22  1  0  0  0
 11 12  1  0  0  0
 11 24  1  0  0  0
 12 13  2  0  0  0
 12 23  1  0  0  0
 13 35  1  0  0  0
 14 17  2  0  0  0
 15 16  2  0  0  0
 16 17  1  0  0  0
 16 26  1  0  0  0
 17 36  1  0  0  0
 18 19  2  0  0  0
 18 20  2  0  0  0
 18 21  1  0  0  0
 21 37  1  0  0  0
 21 38  1  0  0  0
 23 39  1  0  0  0
 23 40  1  0  0  0
 23 41  1  0  0  0
 24 25  1  0  0  0
 25 42  1  0  0  0
 25 43  1  0  0  0
 25 44  1  0  0  0
 26 27  1  0  0  0
 26 28  1  0  0  0
 26 29  1  0  0  0
M  END
>  <Name>
8-1ad

>  <Family>
E.1

>  <IC50_uM>
0.066000

>  <set>
1

$$$$
8-1ae
  Cerius2 12120216093D 1   1.00000                          
 Structure written by MMmdl.
 37 39  0  0  0  0  0  0  0  0999 V2000
   21.2484   21.1849   16.9486 C   0  0  0  0  0  0
   21.9645   20.3195   17.7750 C   0  0  0  0  0  0
   23.3568   20.4347   17.8556 C   0  0  0  0  0  0
   24.0463   21.4015   17.0984 C   0  0  0  0  0  0
   23.3093   22.2717   16.2837 C   0  0  0  0  0  0
   21.9156   22.1585   16.2016 C   0  0  0  0  0  0
   25.4713   21.4881   17.2166 N   0  0  0  0  0  0
   26.2101   22.7306   15.0981 C   0  0  0  0  0  0
   26.4670   24.0910   14.8810 C   0  0  0  0  0  0
   26.3000   24.6500   13.6088 C   0  0  0  0  0  0
   25.8833   23.8474   12.5412 C   0  0  0  0  0  0
   25.6405   22.4879   12.7499 C   0  0  0  0  0  0
   25.8091   21.9307   14.0206 C   0  0  0  0  0  0
   26.4129   22.1468   16.4229 C   0  0  0  0  0  0
   26.0776   20.8657   18.2770 N   0  0  0  0  0  0
   27.3625   21.2649   18.2484 C   0  0  0  0  0  0
   27.6084   22.0656   17.1143 C   0  0  0  0  0  0
   19.4878   21.0406   16.8134 S   0  0  0  0  0  0
   18.9326   22.2985   16.3456 O   0  0  0  0  0  0
   18.9736   20.4089   18.0155 O   0  0  0  0  0  0
   19.3193   19.9421   15.5598 N   0  0  0  0  0  0
   26.6261   26.3385   13.4216 Cl  0  0  0  0  0  0
   25.6564   24.4730   10.9457 Cl  0  0  0  0  0  0
   28.3696   20.8499   19.2874 C   0  0  0  0  0  0
   29.5641   21.5005   19.1578 F   0  0  0  0  0  0
   28.6558   19.5152   19.2303 F   0  0  0  0  0  0
   27.9411   21.0960   20.5614 F   0  0  0  0  0  0
   21.4568   19.5570   18.3617 H   0  0  0  0  0  0
   23.8908   19.7445   18.5080 H   0  0  0  0  0  0
   23.7716   23.0793   15.7261 H   0  0  0  0  0  0
   21.3590   22.8442   15.5652 H   0  0  0  0  0  0
   26.7927   24.7203   15.7072 H   0  0  0  0  0  0
   25.3226   21.8501   11.9279 H   0  0  0  0  0  0
   25.6257   20.8658   14.1574 H   0  0  0  0  0  0
   28.5595   22.4827   16.8064 H   0  0  0  0  0  0
   18.8339   20.3634   14.7637 H   0  0  0  0  0  0
   18.8480   19.0905   15.8756 H   0  0  0  0  0  0
  1  2  2  0  0  0
  1  6  1  0  0  0
  1 18  1  0  0  0
  2  3  1  0  0  0
  2 28  1  0  0  0
  3  4  2  0  0  0
  3 29  1  0  0  0
  4  5  1  0  0  0
  4  7  1  0  0  0
  5  6  2  0  0  0
  5 30  1  0  0  0
  6 31  1  0  0  0
  7 14  1  0  0  0
  7 15  1  0  0  0
  8  9  2  0  0  0
  8 13  1  0  0  0
  8 14  1  0  0  0
  9 10  1  0  0  0
  9 32  1  0  0  0
 10 11  2  0  0  0
 10 22  1  0  0  0
 11 12  1  0  0  0
 11 23  1  0  0  0
 12 13  2  0  0  0
 12 33  1  0  0  0
 13 34  1  0  0  0
 14 17  2  0  0  0
 15 16  2  0  0  0
 16 17  1  0  0  0
 16 24  1  0  0  0
 17 35  1  0  0  0
 18 19  2  0  0  0
 18 20  2  0  0  0
 18 21  1  0  0  0
 21 36  1  0  0  0
 21 37  1  0  0  0
 24 25  1  0  0  0
 24 26  1  0  0  0
 24 27  1  0  0  0
M  END
>  <Name>
8-1ae

>  <Family>
E.1

>  <IC50_uM>
0.015000

>  <set>
1

$$$$
8-1af
  Cerius2 12120216093D 1   1.00000                          
 Structure written by MMmdl.
 37 39  0  0  0  0  0  0  0  0999 V2000
   21.2386   21.1748   16.9474 C   0  0  0  0  0  0
   21.9627   20.3203   17.7762 C   0  0  0  0  0  0
   23.3538   20.4517   17.8578 C   0  0  0  0  0  0
   24.0390   21.4270   17.1047 C   0  0  0  0  0  0
   23.2914   22.2822   16.2853 C   0  0  0  0  0  0
   21.8978   22.1527   16.2010 C   0  0  0  0  0  0
   25.4667   21.5149   17.2265 N   0  0  0  0  0  0
   26.2240   22.7551   15.1096 C   0  0  0  0  0  0
   26.4733   24.1200   14.8716 C   0  0  0  0  0  0
   26.2970   24.6626   13.5953 C   0  0  0  0  0  0
   25.8802   23.8436   12.5490 C   0  0  0  0  0  0
   25.6392   22.4886   12.7635 C   0  0  0  0  0  0
   25.8139   21.9448   14.0386 C   0  0  0  0  0  0
   26.4234   22.1342   16.4195 C   0  0  0  0  0  0
   26.0636   20.9070   18.3025 N   0  0  0  0  0  0
   27.3701   21.2172   18.2269 C   0  0  0  0  0  0
   27.6340   21.9727   17.0684 C   0  0  0  0  0  0
   19.4812   21.0064   16.8043 S   0  0  0  0  0  0
   18.9099   22.2576   16.3390 O   0  0  0  0  0  0
   18.9715   20.3631   18.0025 O   0  0  0  0  0  0
   19.3330   19.9101   15.5463 N   0  0  0  0  0  0
   25.6609   24.5101   10.9768 Cl  0  0  0  0  0  0
   28.3805   20.7646   19.2471 C   0  0  0  0  0  0
   29.5264   21.5081   19.2185 F   0  0  0  0  0  0
   28.7626   19.4673   19.0569 F   0  0  0  0  0  0
   27.9114   20.8425   20.5282 F   0  0  0  0  0  0
   26.9770   25.1892   16.1372 Cl  0  0  0  0  0  0
   21.4633   19.5528   18.3633 H   0  0  0  0  0  0
   23.8896   19.7660   18.5135 H   0  0  0  0  0  0
   23.7357   23.0864   15.7126 H   0  0  0  0  0  0
   21.3356   22.8278   15.5585 H   0  0  0  0  0  0
   26.4826   25.7188   13.4194 H   0  0  0  0  0  0
   25.3176   21.8466   11.9467 H   0  0  0  0  0  0
   25.6283   20.8822   14.1885 H   0  0  0  0  0  0
   28.5983   22.3309   16.7296 H   0  0  0  0  0  0
   18.8493   20.3296   14.7480 H   0  0  0  0  0  0
   18.8656   19.0543   15.8569 H   0  0  0  0  0  0
  1  2  2  0  0  0
  1  6  1  0  0  0
  1 18  1  0  0  0
  2  3  1  0  0  0
  2 28  1  0  0  0
  3  4  2  0  0  0
  3 29  1  0  0  0
  4  5  1  0  0  0
  4  7  1  0  0  0
  5  6  2  0  0  0
  5 30  1  0  0  0
  6 31  1  0  0  0
  7 14  1  0  0  0
  7 15  1  0  0  0
  8  9  2  0  0  0
  8 13  1  0  0  0
  8 14  1  0  0  0
  9 10  1  0  0  0
  9 27  1  0  0  0
 10 11  2  0  0  0
 10 32  1  0  0  0
 11 12  1  0  0  0
 11 22  1  0  0  0
 12 13  2  0  0  0
 12 33  1  0  0  0
 13 34  1  0  0  0
 14 17  2  0  0  0
 15 16  2  0  0  0
 16 17  1  0  0  0
 16 23  1  0  0  0
 17 35  1  0  0  0
 18 19  2  0  0  0
 18 20  2  0  0  0
 18 21  1  0  0  0
 21 36  1  0  0  0
 21 37  1  0  0  0
 23 24  1  0  0  0
 23 25  1  0  0  0
 23 26  1  0  0  0
M  END
>  <Name>
8-1af

>  <Family>
E.1

>  <IC50_uM>
0.056000

>  <set>
1

$$$$
8-1ag
  Cerius2 12120216093D 1   1.00000                          
 Structure written by MMmdl.
 37 39  0  0  0  0  0  0  0  0999 V2000
   21.2405   21.1762   16.9459 C   0  0  0  0  0  0
   21.9633   20.3198   17.7743 C   0  0  0  0  0  0
   23.3544   20.4495   17.8570 C   0  0  0  0  0  0
   24.0406   21.4239   17.1041 C   0  0  0  0  0  0
   23.2949   22.2803   16.2836 C   0  0  0  0  0  0
   21.9013   22.1531   16.1988 C   0  0  0  0  0  0
   25.4678   21.5125   17.2269 N   0  0  0  0  0  0
   26.2222   22.7547   15.1092 C   0  0  0  0  0  0
   26.4719   24.1200   14.8737 C   0  0  0  0  0  0
   26.2936   24.6607   13.5964 C   0  0  0  0  0  0
   25.8736   23.8469   12.5426 C   0  0  0  0  0  0
   25.6351   22.4933   12.7673 C   0  0  0  0  0  0
   25.8108   21.9443   14.0378 C   0  0  0  0  0  0
   26.4232   22.1340   16.4201 C   0  0  0  0  0  0
   26.0649   20.9056   18.3029 N   0  0  0  0  0  0
   27.3699   21.2229   18.2311 C   0  0  0  0  0  0
   27.6332   21.9780   17.0719 C   0  0  0  0  0  0
   19.4825   21.0110   16.8044 S   0  0  0  0  0  0
   18.9113   22.2717   16.3640 O   0  0  0  0  0  0
   18.9748   20.3458   17.9910 O   0  0  0  0  0  0
   19.3304   19.9383   15.5270 N   0  0  0  0  0  0
   28.3781   20.7776   19.2562 C   0  0  0  0  0  0
   29.5627   21.4517   19.1602 F   0  0  0  0  0  0
   28.6843   19.4515   19.1404 F   0  0  0  0  0  0
   27.9426   20.9601   20.5383 F   0  0  0  0  0  0
   26.9757   25.1894   16.1375 Cl  0  0  0  0  0  0
   25.1222   21.4894   11.4665 Cl  0  0  0  0  0  0
   21.4623   19.5529   18.3610 H   0  0  0  0  0  0
   23.8898   19.7631   18.5124 H   0  0  0  0  0  0
   23.7415   23.0855   15.7139 H   0  0  0  0  0  0
   21.3405   22.8303   15.5571 H   0  0  0  0  0  0
   26.4785   25.7168   13.4124 H   0  0  0  0  0  0
   25.7378   24.2773   11.5531 H   0  0  0  0  0  0
   25.6287   20.8829   14.1947 H   0  0  0  0  0  0
   28.5967   22.3401   16.7345 H   0  0  0  0  0  0
   18.8422   20.3709   14.7386 H   0  0  0  0  0  0
   18.8684   19.0745   15.8232 H   0  0  0  0  0  0
  1  2  2  0  0  0
  1  6  1  0  0  0
  1 18  1  0  0  0
  2  3  1  0  0  0
  2 28  1  0  0  0
  3  4  2  0  0  0
  3 29  1  0  0  0
  4  5  1  0  0  0
  4  7  1  0  0  0
  5  6  2  0  0  0
  5 30  1  0  0  0
  6 31  1  0  0  0
  7 14  1  0  0  0
  7 15  1  0  0  0
  8  9  2  0  0  0
  8 13  1  0  0  0
  8 14  1  0  0  0
  9 10  1  0  0  0
  9 26  1  0  0  0
 10 11  2  0  0  0
 10 32  1  0  0  0
 11 12  1  0  0  0
 11 33  1  0  0  0
 12 13  2  0  0  0
 12 27  1  0  0  0
 13 34  1  0  0  0
 14 17  2  0  0  0
 15 16  2  0  0  0
 16 17  1  0  0  0
 16 22  1  0  0  0
 17 35  1  0  0  0
 18 19  2  0  0  0
 18 20  2  0  0  0
 18 21  1  0  0  0
 21 36  1  0  0  0
 21 37  1  0  0  0
 22 23  1  0  0  0
 22 24  1  0  0  0
 22 25  1  0  0  0
M  END
>  <Name>
8-1ag

>  <Family>
E.1

>  <IC50_uM>
>100

>  <set>
1

$$$$
8-1ah
  Cerius2 12120216093D 1   1.00000                          
 Structure written by MMmdl.
 43 45  0  0  0  0  0  0  0  0999 V2000
   21.2386   21.1789   16.9505 C   0  0  0  0  0  0
   21.9622   20.3213   17.7768 C   0  0  0  0  0  0
   23.3532   20.4497   17.8563 C   0  0  0  0  0  0
   24.0390   21.4229   17.1003 C   0  0  0  0  0  0
   23.2928   22.2812   16.2816 C   0  0  0  0  0  0
   21.8986   22.1555   16.2016 C   0  0  0  0  0  0
   25.4667   21.5084   17.2207 N   0  0  0  0  0  0
   26.2246   22.7608   15.1116 C   0  0  0  0  0  0
   26.4717   24.1292   14.8838 C   0  0  0  0  0  0
   26.2967   24.6489   13.5886 C   0  0  0  0  0  0
   25.8840   23.8327   12.5265 C   0  0  0  0  0  0
   25.6442   22.4782   12.7638 C   0  0  0  0  0  0
   25.8196   21.9461   14.0427 C   0  0  0  0  0  0
   26.4217   22.1442   16.4237 C   0  0  0  0  0  0
   26.0649   20.8872   18.2889 N   0  0  0  0  0  0
   27.3681   21.2126   18.2247 C   0  0  0  0  0  0
   27.6288   21.9918   17.0811 C   0  0  0  0  0  0
   19.4806   21.0106   16.8106 S   0  0  0  0  0  0
   18.9149   22.2448   16.2953 O   0  0  0  0  0  0
   18.9652   20.4177   18.0321 O   0  0  0  0  0  0
   19.3314   19.8646   15.5985 N   0  0  0  0  0  0
   25.6808   24.4252   11.1625 C   0  0  0  0  0  0
   28.3858   20.7471   19.2317 C   0  0  0  0  0  0
   29.3739   21.6673   19.4401 F   0  0  0  0  0  0
   29.0120   19.5986   18.8383 F   0  0  0  0  0  0
   27.8463   20.4871   20.4597 F   0  0  0  0  0  0
   26.9243   25.0513   15.9850 C   0  0  0  0  0  0
   21.4626   19.5546   18.3651 H   0  0  0  0  0  0
   23.8902   19.7660   18.5135 H   0  0  0  0  0  0
   23.7419   23.0833   15.7078 H   0  0  0  0  0  0
   21.3367   22.8332   15.5613 H   0  0  0  0  0  0
   26.4825   25.7071   13.4027 H   0  0  0  0  0  0
   25.3239   21.8221   11.9550 H   0  0  0  0  0  0
   25.6368   20.8830   14.1979 H   0  0  0  0  0  0
   28.5919   22.3610   16.7504 H   0  0  0  0  0  0
   18.8490   20.2516   14.7832 H   0  0  0  0  0  0
   18.8632   19.0228   15.9433 H   0  0  0  0  0  0
   25.5255   23.6484   10.4066 H   0  0  0  0  0  0
   26.5607   25.0052   10.8649 H   0  0  0  0  0  0
   24.8029   25.0792   11.1653 H   0  0  0  0  0  0
   26.9122   26.0971   15.6607 H   0  0  0  0  0  0
   27.9471   24.8065   16.2870 H   0  0  0  0  0  0
   26.2578   24.9747   16.8501 H   0  0  0  0  0  0
  1  2  2  0  0  0
  1  6  1  0  0  0
  1 18  1  0  0  0
  2  3  1  0  0  0
  2 28  1  0  0  0
  3  4  2  0  0  0
  3 29  1  0  0  0
  4  5  1  0  0  0
  4  7  1  0  0  0
  5  6  2  0  0  0
  5 30  1  0  0  0
  6 31  1  0  0  0
  7 14  1  0  0  0
  7 15  1  0  0  0
  8  9  2  0  0  0
  8 13  1  0  0  0
  8 14  1  0  0  0
  9 10  1  0  0  0
  9 27  1  0  0  0
 10 11  2  0  0  0
 10 32  1  0  0  0
 11 12  1  0  0  0
 11 22  1  0  0  0
 12 13  2  0  0  0
 12 33  1  0  0  0
 13 34  1  0  0  0
 14 17  2  0  0  0
 15 16  2  0  0  0
 16 17  1  0  0  0
 16 23  1  0  0  0
 17 35  1  0  0  0
 18 19  2  0  0  0
 18 20  2  0  0  0
 18 21  1  0  0  0
 21 36  1  0  0  0
 21 37  1  0  0  0
 22 38  1  0  0  0
 22 39  1  0  0  0
 22 40  1  0  0  0
 23 24  1  0  0  0
 23 25  1  0  0  0
 23 26  1  0  0  0
 27 41  1  0  0  0
 27 42  1  0  0  0
 27 43  1  0  0  0
M  END
>  <Name>
8-1ah

>  <Family>
E.1

>  <IC50_uM>
0.120000

>  <set>
0

$$$$
8-2a
  Cerius2 12120216093D 1   1.00000                          
 Structure written by MMmdl.
 37 39  0  0  0  0  0  0  0  0999 V2000
   21.2470   21.1927   16.9443 C   0  0  0  0  0  0
   21.9627   20.3257   17.7709 C   0  0  0  0  0  0
   23.3546   20.4389   17.8532 C   0  0  0  0  0  0
   24.0453   21.4046   17.0963 C   0  0  0  0  0  0
   23.3093   22.2750   16.2804 C   0  0  0  0  0  0
   21.9151   22.1645   16.1974 C   0  0  0  0  0  0
   25.4706   21.4895   17.2156 N   0  0  0  0  0  0
   26.2131   22.7295   15.0983 C   0  0  0  0  0  0
   26.4713   24.0900   14.8825 C   0  0  0  0  0  0
   26.3009   24.6499   13.6129 C   0  0  0  0  0  0
   25.8827   23.8484   12.5526 C   0  0  0  0  0  0
   25.6379   22.4911   12.7497 C   0  0  0  0  0  0
   25.8086   21.9311   14.0191 C   0  0  0  0  0  0
   26.4149   22.1446   16.4221 C   0  0  0  0  0  0
   26.0748   20.8694   18.2789 N   0  0  0  0  0  0
   27.3579   21.2631   18.2463 C   0  0  0  0  0  0
   27.6102   22.0602   17.1137 C   0  0  0  0  0  0
   19.4871   21.0285   16.8213 S   0  0  0  0  0  0
   18.9245   22.2856   16.3606 O   0  0  0  0  0  0
   18.9768   20.3890   18.0210 O   0  0  0  0  0  0
   19.3241   19.9238   15.5727 N   0  0  0  0  0  0
   25.6734   24.5379   10.9895 Cl  0  0  0  0  0  0
   28.3516   20.8456   19.2906 C   0  0  0  0  0  0
   28.4709   19.4828   19.3475 F   0  0  0  0  0  0
   27.9466   21.2255   20.5424 F   0  0  0  0  0  0
   21.4500   19.5657   18.3569 H   0  0  0  0  0  0
   23.8876   19.7483   18.5060 H   0  0  0  0  0  0
   23.7738   23.0806   15.7212 H   0  0  0  0  0  0
   21.3638   22.8520   15.5590 H   0  0  0  0  0  0
   26.8001   24.7275   15.7018 H   0  0  0  0  0  0
   26.4984   25.7086   13.4631 H   0  0  0  0  0  0
   25.3180   21.8599   11.9239 H   0  0  0  0  0  0
   25.6238   20.8666   14.1551 H   0  0  0  0  0  0
   28.5618   22.4752   16.8044 H   0  0  0  0  0  0
   18.8273   20.3350   14.7784 H   0  0  0  0  0  0
   18.8670   19.0670   15.8958 H   0  0  0  0  0  0
   29.3436   21.2688   19.1094 H   0  0  0  0  0  0
  1  2  2  0  0  0
  1  6  1  0  0  0
  1 18  1  0  0  0
  2  3  1  0  0  0
  2 26  1  0  0  0
  3  4  2  0  0  0
  3 27  1  0  0  0
  4  5  1  0  0  0
  4  7  1  0  0  0
  5  6  2  0  0  0
  5 28  1  0  0  0
  6 29  1  0  0  0
  7 14  1  0  0  0
  7 15  1  0  0  0
  8  9  2  0  0  0
  8 13  1  0  0  0
  8 14  1  0  0  0
  9 10  1  0  0  0
  9 30  1  0  0  0
 10 11  2  0  0  0
 10 31  1  0  0  0
 11 12  1  0  0  0
 11 22  1  0  0  0
 12 13  2  0  0  0
 12 32  1  0  0  0
 13 33  1  0  0  0
 14 17  2  0  0  0
 15 16  2  0  0  0
 16 17  1  0  0  0
 16 23  1  0  0  0
 17 34  1  0  0  0
 18 19  2  0  0  0
 18 20  2  0  0  0
 18 21  1  0  0  0
 21 35  1  0  0  0
 21 36  1  0  0  0
 23 24  1  0  0  0
 23 25  1  0  0  0
 23 37  1  0  0  0
M  END
>  <Name>
8-2a

>  <Family>
E.1

>  <IC50_uM>
0.010000

>  <set>
1

$$$$
8-29
  Cerius2 12120216093D 1   1.00000                          
 Structure written by MMmdl.
 40 42  0  0  0  0  0  0  0  0999 V2000
   21.2562   21.1738   16.9295 C   0  0  0  0  0  0
   21.9676   20.3171   17.7688 C   0  0  0  0  0  0
   23.3590   20.4360   17.8574 C   0  0  0  0  0  0
   24.0500   21.4014   17.1003 C   0  0  0  0  0  0
   23.3158   22.2723   16.2836 C   0  0  0  0  0  0
   21.9231   22.1571   16.1951 C   0  0  0  0  0  0
   25.4748   21.4874   17.2189 N   0  0  0  0  0  0
   26.2071   22.7291   15.1003 C   0  0  0  0  0  0
   26.4639   24.0905   14.8803 C   0  0  0  0  0  0
   26.2868   24.6458   13.6110 C   0  0  0  0  0  0
   25.8638   23.8383   12.5622 C   0  0  0  0  0  0
   25.6187   22.4843   12.7563 C   0  0  0  0  0  0
   25.7966   21.9270   14.0245 C   0  0  0  0  0  0
   26.4144   22.1480   16.4255 C   0  0  0  0  0  0
   26.0822   20.8619   18.2770 N   0  0  0  0  0  0
   27.3657   21.2665   18.2500 C   0  0  0  0  0  0
   27.6096   22.0705   17.1174 C   0  0  0  0  0  0
   19.4913   21.0523   16.8077 S   0  0  0  0  0  0
   18.9690   22.3449   16.3981 O   0  0  0  0  0  0
   18.9718   20.3949   17.9947 O   0  0  0  0  0  0
   25.6942   24.3722   11.3453 F   0  0  0  0  0  0
   28.3739   20.8551   19.2896 C   0  0  0  0  0  0
   29.5759   21.4880   19.1426 F   0  0  0  0  0  0
   28.6425   19.5161   19.2533 F   0  0  0  0  0  0
   27.9558   21.1278   20.5617 F   0  0  0  0  0  0
   19.3012   19.9713   15.5174 N   0  0  0  0  0  0
   17.9070   19.7061   15.1210 C   0  0  0  0  0  0
   21.4586   19.5558   18.3558 H   0  0  0  0  0  0
   23.8918   19.7489   18.5143 H   0  0  0  0  0  0
   23.7812   23.0810   15.7295 H   0  0  0  0  0  0
   21.3669   22.8413   15.5563 H   0  0  0  0  0  0
   26.7964   24.7302   15.6963 H   0  0  0  0  0  0
   26.4785   25.7013   13.4401 H   0  0  0  0  0  0
   25.2946   21.8667   11.9236 H   0  0  0  0  0  0
   25.6123   20.8628   14.1637 H   0  0  0  0  0  0
   28.5591   22.4917   16.8106 H   0  0  0  0  0  0
   19.8035   19.0988   15.7224 H   0  0  0  0  0  0
   17.9102   19.0453   14.2492 H   0  0  0  0  0  0
   17.3975   20.6330   14.8456 H   0  0  0  0  0  0
   17.3678   19.2015   15.9271 H   0  0  0  0  0  0
  1  2  2  0  0  0
  1  6  1  0  0  0
  1 18  1  0  0  0
  2  3  1  0  0  0
  2 28  1  0  0  0
  3  4  2  0  0  0
  3 29  1  0  0  0
  4  5  1  0  0  0
  4  7  1  0  0  0
  5  6  2  0  0  0
  5 30  1  0  0  0
  6 31  1  0  0  0
  7 14  1  0  0  0
  7 15  1  0  0  0
  8  9  2  0  0  0
  8 13  1  0  0  0
  8 14  1  0  0  0
  9 10  1  0  0  0
  9 32  1  0  0  0
 10 11  2  0  0  0
 10 33  1  0  0  0
 11 12  1  0  0  0
 11 21  1  0  0  0
 12 13  2  0  0  0
 12 34  1  0  0  0
 13 35  1  0  0  0
 14 17  2  0  0  0
 15 16  2  0  0  0
 16 17  1  0  0  0
 16 22  1  0  0  0
 17 36  1  0  0  0
 18 19  2  0  0  0
 18 20  2  0  0  0
 18 26  1  0  0  0
 22 23  1  0  0  0
 22 24  1  0  0  0
 22 25  1  0  0  0
 26 27  1  0  0  0
 26 37  1  0  0  0
 27 38  1  0  0  0
 27 39  1  0  0  0
 27 40  1  0  0  0
M  END
>  <Name>
8-29

>  <Family>
E.1

>  <IC50_uM>
>100

>  <set>
0

$$$$
8-2b
  Cerius2 12120216093D 1   1.00000                          
 Structure written by MMmdl.
 40 42  0  0  0  0  0  0  0  0999 V2000
   21.2464   21.1922   16.9461 C   0  0  0  0  0  0
   21.9625   20.3258   17.7728 C   0  0  0  0  0  0
   23.3546   20.4398   17.8547 C   0  0  0  0  0  0
   24.0450   21.4057   17.0976 C   0  0  0  0  0  0
   23.3084   22.2755   16.2819 C   0  0  0  0  0  0
   21.9141   22.1642   16.1992 C   0  0  0  0  0  0
   25.4705   21.4904   17.2160 N   0  0  0  0  0  0
   26.2126   22.7304   15.0988 C   0  0  0  0  0  0
   26.4720   24.0886   14.8813 C   0  0  0  0  0  0
   26.3005   24.6483   13.6118 C   0  0  0  0  0  0
   25.8680   23.8585   12.5406 C   0  0  0  0  0  0
   25.6384   22.4942   12.7507 C   0  0  0  0  0  0
   25.8096   21.9338   14.0198 C   0  0  0  0  0  0
   26.4151   22.1448   16.4221 C   0  0  0  0  0  0
   26.0750   20.8697   18.2791 N   0  0  0  0  0  0
   27.3592   21.2594   18.2437 C   0  0  0  0  0  0
   27.6114   22.0570   17.1116 C   0  0  0  0  0  0
   19.4869   21.0276   16.8180 S   0  0  0  0  0  0
   18.9240   22.2832   16.3537 O   0  0  0  0  0  0
   18.9738   20.3899   18.0178 O   0  0  0  0  0  0
   19.3282   19.9215   15.5703 N   0  0  0  0  0  0
   25.7163   24.4532   11.1710 C   0  0  0  0  0  0
   28.3542   20.8379   19.2849 C   0  0  0  0  0  0
   28.4694   19.4744   19.3397 F   0  0  0  0  0  0
   27.9537   21.2173   20.5382 F   0  0  0  0  0  0
   21.4508   19.5652   18.3589 H   0  0  0  0  0  0
   23.8878   19.7493   18.5076 H   0  0  0  0  0  0
   23.7726   23.0803   15.7212 H   0  0  0  0  0  0
   21.3622   22.8509   15.5602 H   0  0  0  0  0  0
   26.8059   24.7257   15.6991 H   0  0  0  0  0  0
   26.5088   25.7077   13.4664 H   0  0  0  0  0  0
   25.3259   21.8544   11.9262 H   0  0  0  0  0  0
   25.6284   20.8684   14.1545 H   0  0  0  0  0  0
   28.5633   22.4698   16.8005 H   0  0  0  0  0  0
   18.8325   20.3317   14.7746 H   0  0  0  0  0  0
   18.8715   19.0646   15.8931 H   0  0  0  0  0  0
   25.4096   25.5025   11.2334 H   0  0  0  0  0  0
   24.9476   23.9238   10.5982 H   0  0  0  0  0  0
   26.6655   24.3926   10.6298 H   0  0  0  0  0  0
   29.3471   21.2580   19.1015 H   0  0  0  0  0  0
  1  2  2  0  0  0
  1  6  1  0  0  0
  1 18  1  0  0  0
  2  3  1  0  0  0
  2 26  1  0  0  0
  3  4  2  0  0  0
  3 27  1  0  0  0
  4  5  1  0  0  0
  4  7  1  0  0  0
  5  6  2  0  0  0
  5 28  1  0  0  0
  6 29  1  0  0  0
  7 14  1  0  0  0
  7 15  1  0  0  0
  8  9  2  0  0  0
  8 13  1  0  0  0
  8 14  1  0  0  0
  9 10  1  0  0  0
  9 30  1  0  0  0
 10 11  2  0  0  0
 10 31  1  0  0  0
 11 12  1  0  0  0
 11 22  1  0  0  0
 12 13  2  0  0  0
 12 32  1  0  0  0
 13 33  1  0  0  0
 14 17  2  0  0  0
 15 16  2  0  0  0
 16 17  1  0  0  0
 16 23  1  0  0  0
 17 34  1  0  0  0
 18 19  2  0  0  0
 18 20  2  0  0  0
 18 21  1  0  0  0
 21 35  1  0  0  0
 21 36  1  0  0  0
 22 37  1  0  0  0
 22 38  1  0  0  0
 22 39  1  0  0  0
 23 24  1  0  0  0
 23 25  1  0  0  0
 23 40  1  0  0  0
M  END
>  <Name>
8-2b

>  <Family>
E.1

>  <IC50_uM>
0.013000

>  <set>
0

$$$$
8-2c
  Cerius2 12120216093D 1   1.00000                          
 Structure written by MMmdl.
 38 40  0  0  0  0  0  0  0  0999 V2000
   21.2483   21.1943   16.9405 C   0  0  0  0  0  0
   21.9627   20.3283   17.7697 C   0  0  0  0  0  0
   23.3545   20.4412   17.8542 C   0  0  0  0  0  0
   24.0458   21.4062   17.0973 C   0  0  0  0  0  0
   23.3113   22.2771   16.2807 C   0  0  0  0  0  0
   21.9168   22.1673   16.1959 C   0  0  0  0  0  0
   25.4710   21.4898   17.2164 N   0  0  0  0  0  0
   26.2123   22.7291   15.0991 C   0  0  0  0  0  0
   26.4697   24.0888   14.8820 C   0  0  0  0  0  0
   26.2979   24.6489   13.6119 C   0  0  0  0  0  0
   25.8774   23.8521   12.5424 C   0  0  0  0  0  0
   25.6343   22.4908   12.7505 C   0  0  0  0  0  0
   25.8065   21.9313   14.0208 C   0  0  0  0  0  0
   26.4151   22.1452   16.4230 C   0  0  0  0  0  0
   26.0756   20.8668   18.2788 N   0  0  0  0  0  0
   27.3582   21.2586   18.2443 C   0  0  0  0  0  0
   27.6106   22.0587   17.1138 C   0  0  0  0  0  0
   19.4888   21.0260   16.8199 S   0  0  0  0  0  0
   18.9270   22.2851   16.3641 O   0  0  0  0  0  0
   18.9795   20.3808   18.0171 O   0  0  0  0  0  0
   19.3235   19.9225   15.5704 N   0  0  0  0  0  0
   25.7018   24.4267   11.2390 C   0  0  0  0  0  0
   25.5595   24.8930   10.1820 N   0  0  0  0  0  0
   28.3543   20.8368   19.2821 C   0  0  0  0  0  0
   28.9635   21.9229   19.8505 F   0  0  0  0  0  0
   29.3682   20.1063   18.7229 F   0  0  0  0  0  0
   21.4477   19.5686   18.3542 H   0  0  0  0  0  0
   23.8865   19.7507   18.5077 H   0  0  0  0  0  0
   23.7773   23.0825   15.7224 H   0  0  0  0  0  0
   21.3672   22.8550   15.5563 H   0  0  0  0  0  0
   26.7993   24.7270   15.7008 H   0  0  0  0  0  0
   26.4968   25.7098   13.4676 H   0  0  0  0  0  0
   25.3131   21.8537   11.9279 H   0  0  0  0  0  0
   25.6216   20.8667   14.1571 H   0  0  0  0  0  0
   28.5641   22.4710   16.8073 H   0  0  0  0  0  0
   18.8205   20.3329   14.7793 H   0  0  0  0  0  0
   18.8704   19.0645   15.8952 H   0  0  0  0  0  0
   27.9003   20.2413   20.0790 H   0  0  0  0  0  0
  1  2  2  0  0  0
  1  6  1  0  0  0
  1 18  1  0  0  0
  2  3  1  0  0  0
  2 27  1  0  0  0
  3  4  2  0  0  0
  3 28  1  0  0  0
  4  5  1  0  0  0
  4  7  1  0  0  0
  5  6  2  0  0  0
  5 29  1  0  0  0
  6 30  1  0  0  0
  7 14  1  0  0  0
  7 15  1  0  0  0
  8  9  2  0  0  0
  8 13  1  0  0  0
  8 14  1  0  0  0
  9 10  1  0  0  0
  9 31  1  0  0  0
 10 11  2  0  0  0
 10 32  1  0  0  0
 11 12  1  0  0  0
 11 22  1  0  0  0
 12 13  2  0  0  0
 12 33  1  0  0  0
 13 34  1  0  0  0
 14 17  2  0  0  0
 15 16  2  0  0  0
 16 17  1  0  0  0
 16 24  1  0  0  0
 17 35  1  0  0  0
 18 19  2  0  0  0
 18 20  2  0  0  0
 18 21  1  0  0  0
 21 36  1  0  0  0
 21 37  1  0  0  0
 22 23  3  0  0  0
 24 25  1  0  0  0
 24 26  1  0  0  0
 24 38  1  0  0  0
M  END
>  <Name>
8-2c

>  <Family>
E.1

>  <IC50_uM>
29.700000

>  <set>
2

$$$$
8-2d
  Cerius2 12120216093D 1   1.00000                          
 Structure written by MMmdl.
 43 45  0  0  0  0  0  0  0  0999 V2000
   21.2482   21.1919   16.9463 C   0  0  0  0  0  0
   21.9638   20.3253   17.7728 C   0  0  0  0  0  0
   23.3559   20.4390   17.8550 C   0  0  0  0  0  0
   24.0464   21.4048   17.0980 C   0  0  0  0  0  0
   23.3104   22.2754   16.2824 C   0  0  0  0  0  0
   21.9164   22.1640   16.1991 C   0  0  0  0  0  0
   25.4715   21.4896   17.2164 N   0  0  0  0  0  0
   26.2114   22.7291   15.0984 C   0  0  0  0  0  0
   26.4705   24.0899   14.8815 C   0  0  0  0  0  0
   26.2976   24.6512   13.6130 C   0  0  0  0  0  0
   25.8675   23.8464   12.5551 C   0  0  0  0  0  0
   25.6301   22.4838   12.7503 C   0  0  0  0  0  0
   25.8048   21.9282   14.0210 C   0  0  0  0  0  0
   26.4151   22.1452   16.4223 C   0  0  0  0  0  0
   26.0770   20.8680   18.2792 N   0  0  0  0  0  0
   27.3590   21.2614   18.2441 C   0  0  0  0  0  0
   27.6108   22.0604   17.1126 C   0  0  0  0  0  0
   19.4885   21.0317   16.8138 S   0  0  0  0  0  0
   18.9273   22.2872   16.3468 O   0  0  0  0  0  0
   18.9734   20.3969   18.0141 O   0  0  0  0  0  0
   19.3305   19.9264   15.5654 N   0  0  0  0  0  0
   28.3555   20.8438   19.2830 C   0  0  0  0  0  0
   28.9455   21.9333   19.8650 F   0  0  0  0  0  0
   29.3829   20.1337   18.7227 F   0  0  0  0  0  0
   25.6657   24.5552   10.9360 S   0  0  0  0  0  0
   25.3694   25.9750   11.1000 O   0  0  0  0  0  0
   24.7145   23.7280   10.2002 O   0  0  0  0  0  0
   27.2702   24.3836   10.2007 C   0  0  0  0  0  0
   21.4530   19.5643   18.3589 H   0  0  0  0  0  0
   23.8890   19.7482   18.5076 H   0  0  0  0  0  0
   23.7749   23.0813   15.7237 H   0  0  0  0  0  0
   21.3636   22.8510   15.5612 H   0  0  0  0  0  0
   26.8035   24.7261   15.7003 H   0  0  0  0  0  0
   26.4986   25.7102   13.4655 H   0  0  0  0  0  0
   25.3106   21.8468   11.9284 H   0  0  0  0  0  0
   25.6230   20.8634   14.1603 H   0  0  0  0  0  0
   28.5636   22.4737   16.8056 H   0  0  0  0  0  0
   18.8378   20.3379   14.7685 H   0  0  0  0  0  0
   18.8709   19.0705   15.8867 H   0  0  0  0  0  0
   27.9056   20.2343   20.0719 H   0  0  0  0  0  0
   27.2277   24.8024    9.1931 H   0  0  0  0  0  0
   27.5278   23.3240   10.1518 H   0  0  0  0  0  0
   27.9974   24.9333   10.8011 H   0  0  0  0  0  0
  1  2  2  0  0  0
  1  6  1  0  0  0
  1 18  1  0  0  0
  2  3  1  0  0  0
  2 29  1  0  0  0
  3  4  2  0  0  0
  3 30  1  0  0  0
  4  5  1  0  0  0
  4  7  1  0  0  0
  5  6  2  0  0  0
  5 31  1  0  0  0
  6 32  1  0  0  0
  7 14  1  0  0  0
  7 15  1  0  0  0
  8  9  2  0  0  0
  8 13  1  0  0  0
  8 14  1  0  0  0
  9 10  1  0  0  0
  9 33  1  0  0  0
 10 11  2  0  0  0
 10 34  1  0  0  0
 11 12  1  0  0  0
 11 25  1  0  0  0
 12 13  2  0  0  0
 12 35  1  0  0  0
 13 36  1  0  0  0
 14 17  2  0  0  0
 15 16  2  0  0  0
 16 17  1  0  0  0
 16 22  1  0  0  0
 17 37  1  0  0  0
 18 19  2  0  0  0
 18 20  2  0  0  0
 18 21  1  0  0  0
 21 38  1  0  0  0
 21 39  1  0  0  0
 22 23  1  0  0  0
 22 24  1  0  0  0
 22 40  1  0  0  0
 25 26  2  0  0  0
 25 27  2  0  0  0
 25 28  1  0  0  0
 28 41  1  0  0  0
 28 42  1  0  0  0
 28 43  1  0  0  0
M  END
>  <Name>
8-2d

>  <Family>
E.1

>  <IC50_uM>
>100

>  <set>
2

$$$$
8-2e
  Cerius2 12120216093D 1   1.00000                          
 Structure written by MMmdl.
 41 43  0  0  0  0  0  0  0  0999 V2000
   21.2482   21.1850   16.9480 C   0  0  0  0  0  0
   21.9645   20.3202   17.7750 C   0  0  0  0  0  0
   23.3567   20.4362   17.8558 C   0  0  0  0  0  0
   24.0462   21.4032   17.0987 C   0  0  0  0  0  0
   23.3087   22.2728   16.2837 C   0  0  0  0  0  0
   21.9150   22.1588   16.2014 C   0  0  0  0  0  0
   25.4714   21.4898   17.2168 N   0  0  0  0  0  0
   26.2123   22.7284   15.0981 C   0  0  0  0  0  0
   26.4673   24.0881   14.8813 C   0  0  0  0  0  0
   26.2973   24.6517   13.6109 C   0  0  0  0  0  0
   25.8849   23.8555   12.5352 C   0  0  0  0  0  0
   25.6346   22.4936   12.7508 C   0  0  0  0  0  0
   25.8057   21.9322   14.0207 C   0  0  0  0  0  0
   26.4149   22.1444   16.4218 C   0  0  0  0  0  0
   26.0771   20.8709   18.2813 N   0  0  0  0  0  0
   27.3594   21.2631   18.2447 C   0  0  0  0  0  0
   27.6110   22.0596   17.1115 C   0  0  0  0  0  0
   19.4881   21.0384   16.8106 S   0  0  0  0  0  0
   18.9318   22.2955   16.3418 O   0  0  0  0  0  0
   18.9732   20.4066   18.0124 O   0  0  0  0  0  0
   19.3222   19.9391   15.5577 N   0  0  0  0  0  0
   28.3563   20.8463   19.2836 C   0  0  0  0  0  0
   28.9545   21.9362   19.8567 F   0  0  0  0  0  0
   29.3777   20.1266   18.7248 F   0  0  0  0  0  0
   25.6820   24.4046   11.1626 C   0  0  0  0  0  0
   25.3226   23.6879   10.2316 O   0  0  0  0  0  0
   25.9292   25.7323   10.9655 N   0  0  0  0  0  0
   21.4569   19.5575   18.3615 H   0  0  0  0  0  0
   23.8910   19.7460   18.5080 H   0  0  0  0  0  0
   23.7712   23.0796   15.7249 H   0  0  0  0  0  0
   21.3584   22.8439   15.5643 H   0  0  0  0  0  0
   26.7896   24.7270   15.7026 H   0  0  0  0  0  0
   26.4762   25.7169   13.4924 H   0  0  0  0  0  0
   25.3129   21.8553   11.9296 H   0  0  0  0  0  0
   25.6185   20.8679   14.1561 H   0  0  0  0  0  0
   28.5639   22.4719   16.8033 H   0  0  0  0  0  0
   18.8364   20.3592   14.7609 H   0  0  0  0  0  0
   18.8519   19.0871   15.8741 H   0  0  0  0  0  0
   27.9051   20.2447   20.0775 H   0  0  0  0  0  0
   25.8059   26.1403   10.0452 H   0  0  0  0  0  0
   26.2886   26.3584   11.6762 H   0  0  0  0  0  0
  1  2  2  0  0  0
  1  6  1  0  0  0
  1 18  1  0  0  0
  2  3  1  0  0  0
  2 28  1  0  0  0
  3  4  2  0  0  0
  3 29  1  0  0  0
  4  5  1  0  0  0
  4  7  1  0  0  0
  5  6  2  0  0  0
  5 30  1  0  0  0
  6 31  1  0  0  0
  7 14  1  0  0  0
  7 15  1  0  0  0
  8  9  2  0  0  0
  8 13  1  0  0  0
  8 14  1  0  0  0
  9 10  1  0  0  0
  9 32  1  0  0  0
 10 11  2  0  0  0
 10 33  1  0  0  0
 11 12  1  0  0  0
 11 25  1  0  0  0
 12 13  2  0  0  0
 12 34  1  0  0  0
 13 35  1  0  0  0
 14 17  2  0  0  0
 15 16  2  0  0  0
 16 17  1  0  0  0
 16 22  1  0  0  0
 17 36  1  0  0  0
 18 19  2  0  0  0
 18 20  2  0  0  0
 18 21  1  0  0  0
 21 37  1  0  0  0
 21 38  1  0  0  0
 22 23  1  0  0  0
 22 24  1  0  0  0
 22 39  1  0  0  0
 25 26  2  0  0  0
 25 27  1  0  0  0
 27 40  1  0  0  0
 27 41  1  0  0  0
M  END
>  <Name>
8-2e

>  <Family>
E.1

>  <IC50_uM>
>100

>  <set>
1

$$$$
8-2f
  Cerius2 12120216093D 1   1.00000                          
 Structure written by MMmdl.
 40 42  0  0  0  0  0  0  0  0999 V2000
   21.2481   21.1839   16.9479 C   0  0  0  0  0  0
   21.9645   20.3197   17.7751 C   0  0  0  0  0  0
   23.3568   20.4362   17.8558 C   0  0  0  0  0  0
   24.0459   21.4035   17.0989 C   0  0  0  0  0  0
   23.3082   22.2730   16.2839 C   0  0  0  0  0  0
   21.9146   22.1583   16.2014 C   0  0  0  0  0  0
   25.4712   21.4902   17.2170 N   0  0  0  0  0  0
   26.2114   22.7296   15.0983 C   0  0  0  0  0  0
   26.4689   24.0892   14.8814 C   0  0  0  0  0  0
   26.2984   24.6509   13.6112 C   0  0  0  0  0  0
   25.8790   23.8541   12.5384 C   0  0  0  0  0  0
   25.6362   22.4912   12.7496 C   0  0  0  0  0  0
   25.8067   21.9318   14.0203 C   0  0  0  0  0  0
   26.4145   22.1452   16.4219 C   0  0  0  0  0  0
   26.0772   20.8706   18.2807 N   0  0  0  0  0  0
   27.3598   21.2617   18.2434 C   0  0  0  0  0  0
   27.6110   22.0592   17.1108 C   0  0  0  0  0  0
   19.4879   21.0386   16.8110 S   0  0  0  0  0  0
   18.9321   22.2959   16.3424 O   0  0  0  0  0  0
   18.9737   20.4064   18.0128 O   0  0  0  0  0  0
   19.3207   19.9403   15.5571 N   0  0  0  0  0  0
   28.3574   20.8427   19.2807 C   0  0  0  0  0  0
   28.9594   21.9310   19.8528 F   0  0  0  0  0  0
   29.3762   20.1202   18.7204 F   0  0  0  0  0  0
   25.6860   24.4055   11.1710 C   0  0  0  0  0  0
   25.3347   23.7686   10.1915 O   0  0  0  0  0  0
   25.9432   25.7255   11.1080 O   0  0  0  0  0  0
   21.4575   19.5569   18.3620 H   0  0  0  0  0  0
   23.8912   19.7463   18.5082 H   0  0  0  0  0  0
   23.7703   23.0801   15.7253 H   0  0  0  0  0  0
   21.3573   22.8433   15.5648 H   0  0  0  0  0  0
   26.7981   24.7270   15.7008 H   0  0  0  0  0  0
   26.4993   25.7114   13.4752 H   0  0  0  0  0  0
   25.3159   21.8526   11.9282 H   0  0  0  0  0  0
   25.6217   20.8672   14.1567 H   0  0  0  0  0  0
   28.5639   22.4710   16.8020 H   0  0  0  0  0  0
   18.8358   20.3618   14.7606 H   0  0  0  0  0  0
   18.8487   19.0889   15.8728 H   0  0  0  0  0  0
   27.9061   20.2423   20.0755 H   0  0  0  0  0  0
   25.7874   25.9931   10.1702 H   0  0  0  0  0  0
  1  2  2  0  0  0
  1  6  1  0  0  0
  1 18  1  0  0  0
  2  3  1  0  0  0
  2 28  1  0  0  0
  3  4  2  0  0  0
  3 29  1  0  0  0
  4  5  1  0  0  0
  4  7  1  0  0  0
  5  6  2  0  0  0
  5 30  1  0  0  0
  6 31  1  0  0  0
  7 14  1  0  0  0
  7 15  1  0  0  0
  8  9  2  0  0  0
  8 13  1  0  0  0
  8 14  1  0  0  0
  9 10  1  0  0  0
  9 32  1  0  0  0
 10 11  2  0  0  0
 10 33  1  0  0  0
 11 12  1  0  0  0
 11 25  1  0  0  0
 12 13  2  0  0  0
 12 34  1  0  0  0
 13 35  1  0  0  0
 14 17  2  0  0  0
 15 16  2  0  0  0
 16 17  1  0  0  0
 16 22  1  0  0  0
 17 36  1  0  0  0
 18 19  2  0  0  0
 18 20  2  0  0  0
 18 21  1  0  0  0
 21 37  1  0  0  0
 21 38  1  0  0  0
 22 23  1  0  0  0
 22 24  1  0  0  0
 22 39  1  0  0  0
 25 26  2  0  0  0
 25 27  1  0  0  0
 27 40  1  0  0  0
M  END
>  <Name>
8-2f

>  <Family>
E.1

>  <IC50_uM>
46.800000

>  <set>
1

$$$$
8-2g
  Cerius2 12120216093D 1   1.00000                          
 Structure written by MMmdl.
 41 43  0  0  0  0  0  0  0  0999 V2000
   21.2480   21.1847   16.9481 C   0  0  0  0  0  0
   21.9644   20.3197   17.7748 C   0  0  0  0  0  0
   23.3566   20.4357   17.8555 C   0  0  0  0  0  0
   24.0459   21.4029   17.0985 C   0  0  0  0  0  0
   23.3085   22.2722   16.2834 C   0  0  0  0  0  0
   21.9148   22.1584   16.2012 C   0  0  0  0  0  0
   25.4711   21.4895   17.2168 N   0  0  0  0  0  0
   26.2122   22.7286   15.0983 C   0  0  0  0  0  0
   26.4694   24.0870   14.8793 C   0  0  0  0  0  0
   26.2979   24.6514   13.6090 C   0  0  0  0  0  0
   25.8777   23.8596   12.5403 C   0  0  0  0  0  0
   25.6365   22.5001   12.7530 C   0  0  0  0  0  0
   25.8071   21.9344   14.0203 C   0  0  0  0  0  0
   26.4148   22.1442   16.4221 C   0  0  0  0  0  0
   26.0765   20.8709   18.2816 N   0  0  0  0  0  0
   27.3590   21.2627   18.2451 C   0  0  0  0  0  0
   27.6109   22.0591   17.1121 C   0  0  0  0  0  0
   19.4877   21.0385   16.8121 S   0  0  0  0  0  0
   18.9315   22.2957   16.3439 O   0  0  0  0  0  0
   18.9733   20.4063   18.0139 O   0  0  0  0  0  0
   19.3214   19.9392   15.5590 N   0  0  0  0  0  0
   28.3553   20.8455   19.2844 C   0  0  0  0  0  0
   28.9500   21.9351   19.8614 F   0  0  0  0  0  0
   29.3794   20.1298   18.7251 F   0  0  0  0  0  0
   25.6720   24.2854   11.2571 O   0  0  0  0  0  0
   25.8981   25.6699   10.9966 C   0  0  0  0  0  0
   21.4570   19.5572   18.3615 H   0  0  0  0  0  0
   23.8911   19.7456   18.5079 H   0  0  0  0  0  0
   23.7710   23.0788   15.7243 H   0  0  0  0  0  0
   21.3581   22.8435   15.5643 H   0  0  0  0  0  0
   26.7996   24.7247   15.6985 H   0  0  0  0  0  0
   26.5040   25.7122   13.4943 H   0  0  0  0  0  0
   25.3144   21.8679   11.9272 H   0  0  0  0  0  0
   25.6209   20.8698   14.1525 H   0  0  0  0  0  0
   28.5639   22.4713   16.8042 H   0  0  0  0  0  0
   18.8352   20.3593   14.7625 H   0  0  0  0  0  0
   18.8521   19.0868   15.8754 H   0  0  0  0  0  0
   27.9045   20.2405   20.0760 H   0  0  0  0  0  0
   25.6844   25.8482    9.9384 H   0  0  0  0  0  0
   26.9445   25.9377   11.1761 H   0  0  0  0  0  0
   25.2199   26.2969   11.5848 H   0  0  0  0  0  0
  1  2  2  0  0  0
  1  6  1  0  0  0
  1 18  1  0  0  0
  2  3  1  0  0  0
  2 27  1  0  0  0
  3  4  2  0  0  0
  3 28  1  0  0  0
  4  5  1  0  0  0
  4  7  1  0  0  0
  5  6  2  0  0  0
  5 29  1  0  0  0
  6 30  1  0  0  0
  7 14  1  0  0  0
  7 15  1  0  0  0
  8  9  2  0  0  0
  8 13  1  0  0  0
  8 14  1  0  0  0
  9 10  1  0  0  0
  9 31  1  0  0  0
 10 11  2  0  0  0
 10 32  1  0  0  0
 11 12  1  0  0  0
 11 25  1  0  0  0
 12 13  2  0  0  0
 12 33  1  0  0  0
 13 34  1  0  0  0
 14 17  2  0  0  0
 15 16  2  0  0  0
 16 17  1  0  0  0
 16 22  1  0  0  0
 17 35  1  0  0  0
 18 19  2  0  0  0
 18 20  2  0  0  0
 18 21  1  0  0  0
 21 36  1  0  0  0
 21 37  1  0  0  0
 22 23  1  0  0  0
 22 24  1  0  0  0
 22 38  1  0  0  0
 25 26  1  0  0  0
 26 39  1  0  0  0
 26 40  1  0  0  0
 26 41  1  0  0  0
M  END
>  <Name>
8-2g

>  <Family>
E.1

>  <IC50_uM>
0.015000

>  <set>
0

$$$$
8-2h
  Cerius2 12120216093D 1   1.00000                          
 Structure written by MMmdl.
 41 43  0  0  0  0  0  0  0  0999 V2000
   21.2482   21.1847   16.9489 C   0  0  0  0  0  0
   21.9645   20.3201   17.7758 C   0  0  0  0  0  0
   23.3567   20.4360   17.8563 C   0  0  0  0  0  0
   24.0458   21.4028   17.0988 C   0  0  0  0  0  0
   23.3085   22.2727   16.2841 C   0  0  0  0  0  0
   21.9148   22.1588   16.2022 C   0  0  0  0  0  0
   25.4709   21.4889   17.2163 N   0  0  0  0  0  0
   26.2109   22.7324   15.0988 C   0  0  0  0  0  0
   26.4675   24.0895   14.8808 C   0  0  0  0  0  0
   26.2987   24.6428   13.6104 C   0  0  0  0  0  0
   25.8824   23.8594   12.5308 C   0  0  0  0  0  0
   25.6421   22.4995   12.7485 C   0  0  0  0  0  0
   25.8099   21.9371   14.0187 C   0  0  0  0  0  0
   26.4134   22.1471   16.4226 C   0  0  0  0  0  0
   26.0771   20.8668   18.2779 N   0  0  0  0  0  0
   27.3588   21.2614   18.2434 C   0  0  0  0  0  0
   27.6095   22.0622   17.1129 C   0  0  0  0  0  0
   19.4879   21.0386   16.8121 S   0  0  0  0  0  0
   18.9318   22.2957   16.3433 O   0  0  0  0  0  0
   18.9736   20.4067   18.0140 O   0  0  0  0  0  0
   19.3211   19.9397   15.5588 N   0  0  0  0  0  0
   28.3555   20.8423   19.2816 C   0  0  0  0  0  0
   28.9484   21.9311   19.8621 F   0  0  0  0  0  0
   29.3808   20.1299   18.7202 F   0  0  0  0  0  0
   25.6763   24.2656   11.2402 O   0  0  0  0  0  0
   25.8903   25.6444   10.9492 C   0  0  0  0  0  0
   26.5533   25.9517   13.4683 F   0  0  0  0  0  0
   21.4574   19.5575   18.3627 H   0  0  0  0  0  0
   23.8914   19.7460   18.5084 H   0  0  0  0  0  0
   23.7710   23.0799   15.7261 H   0  0  0  0  0  0
   21.3575   22.8442   15.5658 H   0  0  0  0  0  0
   26.7947   24.7337   15.6931 H   0  0  0  0  0  0
   25.3237   21.8636   11.9240 H   0  0  0  0  0  0
   25.6252   20.8719   14.1514 H   0  0  0  0  0  0
   28.5624   22.4759   16.8067 H   0  0  0  0  0  0
   18.8357   20.3606   14.7623 H   0  0  0  0  0  0
   18.8501   19.0880   15.8748 H   0  0  0  0  0  0
   27.9055   20.2342   20.0712 H   0  0  0  0  0  0
   25.6732   25.7964    9.8875 H   0  0  0  0  0  0
   26.9352   25.9242   11.1168 H   0  0  0  0  0  0
   25.2056   26.2787   11.5214 H   0  0  0  0  0  0
  1  2  2  0  0  0
  1  6  1  0  0  0
  1 18  1  0  0  0
  2  3  1  0  0  0
  2 28  1  0  0  0
  3  4  2  0  0  0
  3 29  1  0  0  0
  4  5  1  0  0  0
  4  7  1  0  0  0
  5  6  2  0  0  0
  5 30  1  0  0  0
  6 31  1  0  0  0
  7 14  1  0  0  0
  7 15  1  0  0  0
  8  9  2  0  0  0
  8 13  1  0  0  0
  8 14  1  0  0  0
  9 10  1  0  0  0
  9 32  1  0  0  0
 10 11  2  0  0  0
 10 27  1  0  0  0
 11 12  1  0  0  0
 11 25  1  0  0  0
 12 13  2  0  0  0
 12 33  1  0  0  0
 13 34  1  0  0  0
 14 17  2  0  0  0
 15 16  2  0  0  0
 16 17  1  0  0  0
 16 22  1  0  0  0
 17 35  1  0  0  0
 18 19  2  0  0  0
 18 20  2  0  0  0
 18 21  1  0  0  0
 21 36  1  0  0  0
 21 37  1  0  0  0
 22 23  1  0  0  0
 22 24  1  0  0  0
 22 38  1  0  0  0
 25 26  1  0  0  0
 26 39  1  0  0  0
 26 40  1  0  0  0
 26 41  1  0  0  0
M  END
>  <Name>
8-2h

>  <Family>
E.1

>  <IC50_uM>
0.050000

>  <set>
2

$$$$
8-2i
  Cerius2 12120216093D 1   1.00000                          
 Structure written by MMmdl.
 41 43  0  0  0  0  0  0  0  0999 V2000
   21.2383   21.1840   16.9555 C   0  0  0  0  0  0
   21.9614   20.3225   17.7797 C   0  0  0  0  0  0
   23.3533   20.4429   17.8537 C   0  0  0  0  0  0
   24.0399   21.4141   17.0954 C   0  0  0  0  0  0
   23.2951   22.2785   16.2818 C   0  0  0  0  0  0
   21.9002   22.1589   16.2051 C   0  0  0  0  0  0
   25.4668   21.5000   17.2137 N   0  0  0  0  0  0
   26.2253   22.7264   15.0926 C   0  0  0  0  0  0
   26.4890   24.0844   14.8914 C   0  0  0  0  0  0
   26.3127   24.6560   13.6272 C   0  0  0  0  0  0
   25.8814   23.8802   12.5380 C   0  0  0  0  0  0
   25.6412   22.5180   12.7393 C   0  0  0  0  0  0
   25.8148   21.9439   14.0071 C   0  0  0  0  0  0
   26.4207   22.1308   16.4112 C   0  0  0  0  0  0
   26.0636   20.9016   18.2962 N   0  0  0  0  0  0
   27.3520   21.2705   18.2514 C   0  0  0  0  0  0
   27.6178   22.0310   17.0974 C   0  0  0  0  0  0
   19.4802   21.0125   16.8212 S   0  0  0  0  0  0
   18.9102   22.2624   16.3467 O   0  0  0  0  0  0
   18.9707   20.3803   18.0258 O   0  0  0  0  0  0
   19.3297   19.9016   15.5754 N   0  0  0  0  0  0
   28.3368   20.8704   19.3099 C   0  0  0  0  0  0
   28.9528   21.9670   19.8510 F   0  0  0  0  0  0
   29.3472   20.1104   18.7855 F   0  0  0  0  0  0
   25.7260   24.5293   11.3407 O   0  0  0  0  0  0
   25.2583   23.7629   10.2335 C   0  0  0  0  0  0
   26.6357   26.3488   13.4506 Cl  0  0  0  0  0  0
   21.4589   19.5590   18.3711 H   0  0  0  0  0  0
   23.8889   19.7515   18.5047 H   0  0  0  0  0  0
   23.7502   23.0843   15.7164 H   0  0  0  0  0  0
   21.3401   22.8423   15.5702 H   0  0  0  0  0  0
   26.8198   24.7025   15.7229 H   0  0  0  0  0  0
   25.3163   21.8647   11.9328 H   0  0  0  0  0  0
   25.6250   20.8785   14.1325 H   0  0  0  0  0  0
   28.5769   22.4220   16.7816 H   0  0  0  0  0  0
   18.8378   20.3095   14.7759 H   0  0  0  0  0  0
   18.8666   19.0478   15.8995 H   0  0  0  0  0  0
   27.8655   20.3061   20.1197 H   0  0  0  0  0  0
   25.1528   24.4416    9.3820 H   0  0  0  0  0  0
   24.2750   23.3273   10.4398 H   0  0  0  0  0  0
   25.9841   22.9919    9.9555 H   0  0  0  0  0  0
  1  2  2  0  0  0
  1  6  1  0  0  0
  1 18  1  0  0  0
  2  3  1  0  0  0
  2 28  1  0  0  0
  3  4  2  0  0  0
  3 29  1  0  0  0
  4  5  1  0  0  0
  4  7  1  0  0  0
  5  6  2  0  0  0
  5 30  1  0  0  0
  6 31  1  0  0  0
  7 14  1  0  0  0
  7 15  1  0  0  0
  8  9  2  0  0  0
  8 13  1  0  0  0
  8 14  1  0  0  0
  9 10  1  0  0  0
  9 32  1  0  0  0
 10 11  2  0  0  0
 10 27  1  0  0  0
 11 12  1  0  0  0
 11 25  1  0  0  0
 12 13  2  0  0  0
 12 33  1  0  0  0
 13 34  1  0  0  0
 14 17  2  0  0  0
 15 16  2  0  0  0
 16 17  1  0  0  0
 16 22  1  0  0  0
 17 35  1  0  0  0
 18 19  2  0  0  0
 18 20  2  0  0  0
 18 21  1  0  0  0
 21 36  1  0  0  0
 21 37  1  0  0  0
 22 23  1  0  0  0
 22 24  1  0  0  0
 22 38  1  0  0  0
 25 26  1  0  0  0
 26 39  1  0  0  0
 26 40  1  0  0  0
 26 41  1  0  0  0
M  END
>  <Name>
8-2i

>  <Family>
E.1

>  <IC50_uM>
0.027000

>  <set>
0

$$$$
8-2j
  Cerius2 12120216093D 1   1.00000                          
 Structure written by MMmdl.
 41 43  0  0  0  0  0  0  0  0999 V2000
   21.2498   21.1831   16.9457 C   0  0  0  0  0  0
   21.9654   20.3190   17.7736 C   0  0  0  0  0  0
   23.3574   20.4357   17.8556 C   0  0  0  0  0  0
   24.0467   21.4031   17.0993 C   0  0  0  0  0  0
   23.3100   22.2731   16.2840 C   0  0  0  0  0  0
   21.9166   22.1579   16.1999 C   0  0  0  0  0  0
   25.4715   21.4901   17.2184 N   0  0  0  0  0  0
   26.2119   22.7296   15.0972 C   0  0  0  0  0  0
   26.4643   24.0904   14.8831 C   0  0  0  0  0  0
   26.2956   24.6490   13.6129 C   0  0  0  0  0  0
   25.9025   23.8476   12.5337 C   0  0  0  0  0  0
   25.6342   22.4904   12.7511 C   0  0  0  0  0  0
   25.8039   21.9309   14.0208 C   0  0  0  0  0  0
   26.4141   22.1460   16.4224 C   0  0  0  0  0  0
   26.0778   20.8695   18.2802 N   0  0  0  0  0  0
   27.3599   21.2626   18.2440 C   0  0  0  0  0  0
   27.6106   22.0610   17.1117 C   0  0  0  0  0  0
   19.4891   21.0414   16.8103 S   0  0  0  0  0  0
   18.9348   22.3002   16.3442 O   0  0  0  0  0  0
   18.9761   20.4080   18.0119 O   0  0  0  0  0  0
   19.3182   19.9458   15.5547 N   0  0  0  0  0  0
   28.3573   20.8437   19.2818 C   0  0  0  0  0  0
   28.9750   21.9312   19.8383 F   0  0  0  0  0  0
   29.3645   20.1027   18.7249 F   0  0  0  0  0  0
   25.7043   24.4041   11.2919 O   0  0  0  0  0  0
   26.9112   24.3427   10.5225 C   0  0  0  0  0  0
   26.5683   26.3458   13.4245 Cl  0  0  0  0  0  0
   25.0736   21.4658   11.4765 Cl  0  0  0  0  0  0
   21.4579   19.5565   18.3603 H   0  0  0  0  0  0
   23.8917   19.7460   18.5085 H   0  0  0  0  0  0
   23.7716   23.0832   15.7296 H   0  0  0  0  0  0
   21.3591   22.8436   15.5643 H   0  0  0  0  0  0
   26.7802   24.7218   15.7119 H   0  0  0  0  0  0
   25.6118   20.8701   14.1708 H   0  0  0  0  0  0
   28.5637   22.4732   16.8042 H   0  0  0  0  0  0
   18.8328   20.3694   14.7596 H   0  0  0  0  0  0
   18.8460   19.0944   15.8695 H   0  0  0  0  0  0
   27.9026   20.2581   20.0857 H   0  0  0  0  0  0
   27.2295   23.3079   10.3587 H   0  0  0  0  0  0
   27.7168   24.9136   10.9960 H   0  0  0  0  0  0
   26.7058   24.7926    9.5466 H   0  0  0  0  0  0
  1  2  2  0  0  0
  1  6  1  0  0  0
  1 18  1  0  0  0
  2  3  1  0  0  0
  2 29  1  0  0  0
  3  4  2  0  0  0
  3 30  1  0  0  0
  4  5  1  0  0  0
  4  7  1  0  0  0
  5  6  2  0  0  0
  5 31  1  0  0  0
  6 32  1  0  0  0
  7 14  1  0  0  0
  7 15  1  0  0  0
  8  9  2  0  0  0
  8 13  1  0  0  0
  8 14  1  0  0  0
  9 10  1  0  0  0
  9 33  1  0  0  0
 10 11  2  0  0  0
 10 27  1  0  0  0
 11 12  1  0  0  0
 11 25  1  0  0  0
 12 13  2  0  0  0
 12 28  1  0  0  0
 13 34  1  0  0  0
 14 17  2  0  0  0
 15 16  2  0  0  0
 16 17  1  0  0  0
 16 22  1  0  0  0
 17 35  1  0  0  0
 18 19  2  0  0  0
 18 20  2  0  0  0
 18 21  1  0  0  0
 21 36  1  0  0  0
 21 37  1  0  0  0
 22 23  1  0  0  0
 22 24  1  0  0  0
 22 38  1  0  0  0
 25 26  1  0  0  0
 26 39  1  0  0  0
 26 40  1  0  0  0
 26 41  1  0  0  0
M  END
>  <Name>
8-2j

>  <Family>
E.1

>  <IC50_uM>
0.021000

>  <set>
0

$$$$
8-2k
  Cerius2 12120216093D 1   1.00000                          
 Structure written by MMmdl.
 41 43  0  0  0  0  0  0  0  0999 V2000
   21.2496   21.1847   16.9473 C   0  0  0  0  0  0
   21.9649   20.3196   17.7750 C   0  0  0  0  0  0
   23.3570   20.4352   17.8571 C   0  0  0  0  0  0
   24.0465   21.4017   17.1001 C   0  0  0  0  0  0
   23.3107   22.2726   16.2848 C   0  0  0  0  0  0
   21.9172   22.1589   16.2013 C   0  0  0  0  0  0
   25.4711   21.4880   17.2181 N   0  0  0  0  0  0
   26.2080   22.7318   15.0994 C   0  0  0  0  0  0
   26.4637   24.0894   14.8785 C   0  0  0  0  0  0
   26.2977   24.6437   13.6064 C   0  0  0  0  0  0
   25.8853   23.8646   12.5246 C   0  0  0  0  0  0
   25.6498   22.5065   12.7582 C   0  0  0  0  0  0
   25.8101   21.9364   14.0209 C   0  0  0  0  0  0
   26.4118   22.1487   16.4242 C   0  0  0  0  0  0
   26.0790   20.8623   18.2761 N   0  0  0  0  0  0
   27.3599   21.2599   18.2422 C   0  0  0  0  0  0
   27.6081   22.0650   17.1140 C   0  0  0  0  0  0
   19.4890   21.0415   16.8113 S   0  0  0  0  0  0
   18.9344   22.3000   16.3444 O   0  0  0  0  0  0
   18.9749   20.4086   18.0127 O   0  0  0  0  0  0
   19.3204   19.9445   15.5565 N   0  0  0  0  0  0
   28.3587   20.8386   19.2776 C   0  0  0  0  0  0
   28.9531   21.9261   19.8590 F   0  0  0  0  0  0
   29.3826   20.1272   18.7125 F   0  0  0  0  0  0
   25.6838   24.2782   11.2345 O   0  0  0  0  0  0
   25.8962   25.6584   10.9501 C   0  0  0  0  0  0
   26.5533   25.9531   13.4683 F   0  0  0  0  0  0
   25.2604   21.7147   11.7457 F   0  0  0  0  0  0
   21.4567   19.5573   18.3615 H   0  0  0  0  0  0
   23.8913   19.7452   18.5096 H   0  0  0  0  0  0
   23.7740   23.0819   15.7307 H   0  0  0  0  0  0
   21.3604   22.8452   15.5657 H   0  0  0  0  0  0
   26.7893   24.7351   15.6910 H   0  0  0  0  0  0
   25.6244   20.8724   14.1436 H   0  0  0  0  0  0
   28.5604   22.4805   16.8082 H   0  0  0  0  0  0
   18.8360   20.3669   14.7602 H   0  0  0  0  0  0
   18.8481   19.0932   15.8716 H   0  0  0  0  0  0
   27.9101   20.2289   20.0669 H   0  0  0  0  0  0
   25.6793   25.8151    9.8890 H   0  0  0  0  0  0
   26.9408   25.9385   11.1194 H   0  0  0  0  0  0
   25.2104   26.2894   11.5247 H   0  0  0  0  0  0
  1  2  2  0  0  0
  1  6  1  0  0  0
  1 18  1  0  0  0
  2  3  1  0  0  0
  2 29  1  0  0  0
  3  4  2  0  0  0
  3 30  1  0  0  0
  4  5  1  0  0  0
  4  7  1  0  0  0
  5  6  2  0  0  0
  5 31  1  0  0  0
  6 32  1  0  0  0
  7 14  1  0  0  0
  7 15  1  0  0  0
  8  9  2  0  0  0
  8 13  1  0  0  0
  8 14  1  0  0  0
  9 10  1  0  0  0
  9 33  1  0  0  0
 10 11  2  0  0  0
 10 27  1  0  0  0
 11 12  1  0  0  0
 11 25  1  0  0  0
 12 13  2  0  0  0
 12 28  1  0  0  0
 13 34  1  0  0  0
 14 17  2  0  0  0
 15 16  2  0  0  0
 16 17  1  0  0  0
 16 22  1  0  0  0
 17 35  1  0  0  0
 18 19  2  0  0  0
 18 20  2  0  0  0
 18 21  1  0  0  0
 21 36  1  0  0  0
 21 37  1  0  0  0
 22 23  1  0  0  0
 22 24  1  0  0  0
 22 38  1  0  0  0
 25 26  1  0  0  0
 26 39  1  0  0  0
 26 40  1  0  0  0
 26 41  1  0  0  0
M  END
>  <Name>
8-2k

>  <Family>
E.1

>  <IC50_uM>
0.350000

>  <set>
0

$$$$
8-2l
  Cerius2 12120216093D 1   1.00000                          
 Structure written by MMmdl.
 43 45  0  0  0  0  0  0  0  0999 V2000
   21.2371   21.1853   16.9416 C   0  0  0  0  0  0
   21.9604   20.3279   17.7695 C   0  0  0  0  0  0
   23.3520   20.4521   17.8501 C   0  0  0  0  0  0
   24.0392   21.4245   17.0969 C   0  0  0  0  0  0
   23.2928   22.2826   16.2788 C   0  0  0  0  0  0
   21.8978   22.1601   16.1947 C   0  0  0  0  0  0
   25.4677   21.5114   17.2207 N   0  0  0  0  0  0
   26.2312   22.7596   15.1113 C   0  0  0  0  0  0
   26.4793   24.1287   14.8855 C   0  0  0  0  0  0
   26.2917   24.6513   13.5950 C   0  0  0  0  0  0
   25.8583   23.8362   12.5469 C   0  0  0  0  0  0
   25.6296   22.4745   12.7574 C   0  0  0  0  0  0
   25.8134   21.9476   14.0423 C   0  0  0  0  0  0
   26.4271   22.1413   16.4229 C   0  0  0  0  0  0
   26.0601   20.9016   18.2987 N   0  0  0  0  0  0
   27.3652   21.1976   18.2186 C   0  0  0  0  0  0
   27.6345   21.9740   17.0770 C   0  0  0  0  0  0
   19.4802   20.9983   16.8177 S   0  0  0  0  0  0
   18.9017   22.2465   16.3535 O   0  0  0  0  0  0
   18.9769   20.3561   18.0199 O   0  0  0  0  0  0
   19.3336   19.8863   15.5726 N   0  0  0  0  0  0
   26.9451   25.0451   15.9839 C   0  0  0  0  0  0
   25.1363   21.5973   11.6442 C   0  0  0  0  0  0
   28.3503   20.7073   19.2393 C   0  0  0  0  0  0
   29.0081   21.7415   19.8477 F   0  0  0  0  0  0
   29.3337   19.9546   18.6553 F   0  0  0  0  0  0
   21.4550   19.5646   18.3589 H   0  0  0  0  0  0
   23.8848   19.7641   18.5068 H   0  0  0  0  0  0
   23.7418   23.0832   15.7023 H   0  0  0  0  0  0
   21.3424   22.8394   15.5506 H   0  0  0  0  0  0
   26.4752   25.7071   13.3966 H   0  0  0  0  0  0
   25.7104   24.2749   11.5604 H   0  0  0  0  0  0
   25.6305   20.8869   14.2130 H   0  0  0  0  0  0
   28.6009   22.3318   16.7444 H   0  0  0  0  0  0
   18.8278   20.2859   14.7777 H   0  0  0  0  0  0
   18.8897   19.0244   15.8996 H   0  0  0  0  0  0
   27.9703   24.7977   16.2758 H   0  0  0  0  0  0
   26.2866   24.9684   16.8548 H   0  0  0  0  0  0
   26.9311   26.0919   15.6642 H   0  0  0  0  0  0
   25.5088   20.5755   11.7642 H   0  0  0  0  0  0
   25.4914   21.9580   10.6733 H   0  0  0  0  0  0
   24.0419   21.5785   11.6375 H   0  0  0  0  0  0
   27.8644   20.1060   20.0131 H   0  0  0  0  0  0
  1  2  2  0  0  0
  1  6  1  0  0  0
  1 18  1  0  0  0
  2  3  1  0  0  0
  2 27  1  0  0  0
  3  4  2  0  0  0
  3 28  1  0  0  0
  4  5  1  0  0  0
  4  7  1  0  0  0
  5  6  2  0  0  0
  5 29  1  0  0  0
  6 30  1  0  0  0
  7 14  1  0  0  0
  7 15  1  0  0  0
  8  9  2  0  0  0
  8 13  1  0  0  0
  8 14  1  0  0  0
  9 10  1  0  0  0
  9 22  1  0  0  0
 10 11  2  0  0  0
 10 31  1  0  0  0
 11 12  1  0  0  0
 11 32  1  0  0  0
 12 13  2  0  0  0
 12 23  1  0  0  0
 13 33  1  0  0  0
 14 17  2  0  0  0
 15 16  2  0  0  0
 16 17  1  0  0  0
 16 24  1  0  0  0
 17 34  1  0  0  0
 18 19  2  0  0  0
 18 20  2  0  0  0
 18 21  1  0  0  0
 21 35  1  0  0  0
 21 36  1  0  0  0
 22 37  1  0  0  0
 22 38  1  0  0  0
 22 39  1  0  0  0
 23 40  1  0  0  0
 23 41  1  0  0  0
 23 42  1  0  0  0
 24 25  1  0  0  0
 24 26  1  0  0  0
 24 43  1  0  0  0
M  END
>  <Name>
8-2l

>  <Family>
E.1

>  <IC50_uM>
>100

>  <set>
1

$$$$
8-2o
  Cerius2 12120216093D 1   1.00000                          
 Structure written by MMmdl.
 37 39  0  0  0  0  0  0  0  0999 V2000
   21.2465   21.1926   16.9428 C   0  0  0  0  0  0
   21.9622   20.3263   17.7703 C   0  0  0  0  0  0
   23.3541   20.4398   17.8533 C   0  0  0  0  0  0
   24.0451   21.4056   17.0965 C   0  0  0  0  0  0
   23.3087   22.2756   16.2806 C   0  0  0  0  0  0
   21.9143   22.1647   16.1968 C   0  0  0  0  0  0
   25.4705   21.4906   17.2158 N   0  0  0  0  0  0
   26.2144   22.7292   15.0979 C   0  0  0  0  0  0
   26.4731   24.0892   14.8824 C   0  0  0  0  0  0
   26.3005   24.6493   13.6146 C   0  0  0  0  0  0
   25.8798   23.8529   12.5507 C   0  0  0  0  0  0
   25.6363   22.4951   12.7512 C   0  0  0  0  0  0
   25.8081   21.9329   14.0183 C   0  0  0  0  0  0
   26.4158   22.1434   16.4215 C   0  0  0  0  0  0
   26.0740   20.8724   18.2809 N   0  0  0  0  0  0
   27.3582   21.2623   18.2462 C   0  0  0  0  0  0
   27.6116   22.0569   17.1123 C   0  0  0  0  0  0
   19.4868   21.0263   16.8218 S   0  0  0  0  0  0
   18.9241   22.2842   16.3640 O   0  0  0  0  0  0
   18.9775   20.3836   18.0207 O   0  0  0  0  0  0
   19.3223   19.9220   15.5729 N   0  0  0  0  0  0
   28.3519   20.8439   19.2899 C   0  0  0  0  0  0
   28.9050   21.9302   19.9136 F   0  0  0  0  0  0
   29.4065   20.1717   18.7319 F   0  0  0  0  0  0
   21.4487   19.5663   18.3559 H   0  0  0  0  0  0
   23.8867   19.7495   18.5069 H   0  0  0  0  0  0
   23.7732   23.0807   15.7204 H   0  0  0  0  0  0
   21.3639   22.8518   15.5572 H   0  0  0  0  0  0
   26.8033   24.7259   15.7020 H   0  0  0  0  0  0
   26.4962   25.7085   13.4574 H   0  0  0  0  0  0
   25.7458   24.2901   11.5628 H   0  0  0  0  0  0
   25.3146   21.8713   11.9191 H   0  0  0  0  0  0
   25.6219   20.8685   14.1532 H   0  0  0  0  0  0
   28.5636   22.4695   16.8016 H   0  0  0  0  0  0
   18.8228   20.3334   14.7801 H   0  0  0  0  0  0
   18.8668   19.0649   15.8964 H   0  0  0  0  0  0
   27.9035   20.2022   20.0535 H   0  0  0  0  0  0
  1  2  2  0  0  0
  1  6  1  0  0  0
  1 18  1  0  0  0
  2  3  1  0  0  0
  2 25  1  0  0  0
  3  4  2  0  0  0
  3 26  1  0  0  0
  4  5  1  0  0  0
  4  7  1  0  0  0
  5  6  2  0  0  0
  5 27  1  0  0  0
  6 28  1  0  0  0
  7 14  1  0  0  0
  7 15  1  0  0  0
  8  9  2  0  0  0
  8 13  1  0  0  0
  8 14  1  0  0  0
  9 10  1  0  0  0
  9 29  1  0  0  0
 10 11  2  0  0  0
 10 30  1  0  0  0
 11 12  1  0  0  0
 11 31  1  0  0  0
 12 13  2  0  0  0
 12 32  1  0  0  0
 13 33  1  0  0  0
 14 17  2  0  0  0
 15 16  2  0  0  0
 16 17  1  0  0  0
 16 22  1  0  0  0
 17 34  1  0  0  0
 18 19  2  0  0  0
 18 20  2  0  0  0
 18 21  1  0  0  0
 21 35  1  0  0  0
 21 36  1  0  0  0
 22 23  1  0  0  0
 22 24  1  0  0  0
 22 37  1  0  0  0
M  END
>  <Name>
8-2o

>  <Family>
E.1

>  <IC50_uM>
0.130000

>  <set>
0

$$$$
8-3a
  Cerius2 12120216093D 1   1.00000                          
 Structure written by MMmdl.
 40 42  0  0  0  0  0  0  0  0999 V2000
   21.2489   21.1847   16.9487 C   0  0  0  0  0  0
   21.9653   20.3207   17.7763 C   0  0  0  0  0  0
   23.3575   20.4377   17.8573 C   0  0  0  0  0  0
   24.0466   21.4049   17.1000 C   0  0  0  0  0  0
   23.3087   22.2745   16.2856 C   0  0  0  0  0  0
   21.9152   22.1594   16.2025 C   0  0  0  0  0  0
   25.4719   21.4908   17.2171 N   0  0  0  0  0  0
   26.2106   22.7305   15.0982 C   0  0  0  0  0  0
   26.4687   24.0923   14.8827 C   0  0  0  0  0  0
   26.2999   24.6496   13.6132 C   0  0  0  0  0  0
   25.8849   23.8435   12.5599 C   0  0  0  0  0  0
   25.6390   22.4891   12.7500 C   0  0  0  0  0  0
   25.8072   21.9296   14.0187 C   0  0  0  0  0  0
   26.4131   22.1460   16.4216 C   0  0  0  0  0  0
   26.0763   20.8692   18.2771 N   0  0  0  0  0  0
   27.3620   21.2581   18.2458 C   0  0  0  0  0  0
   27.6082   22.0600   17.1117 C   0  0  0  0  0  0
   19.4890   21.0369   16.8104 S   0  0  0  0  0  0
   18.9321   22.2936   16.3413 O   0  0  0  0  0  0
   18.9740   20.4045   18.0120 O   0  0  0  0  0  0
   19.3250   19.9378   15.5570 N   0  0  0  0  0  0
   25.7242   24.3790   11.3425 F   0  0  0  0  0  0
   28.3523   20.8550   19.2574 C   0  0  0  0  0  0
   28.0837   20.1295   20.2136 O   0  0  0  0  0  0
   29.5987   21.3725   19.0201 O   0  0  0  0  0  0
   30.5860   21.0034   19.9860 C   0  0  0  0  0  0
   21.4583   19.5582   18.3633 H   0  0  0  0  0  0
   23.8919   19.7481   18.5100 H   0  0  0  0  0  0
   23.7706   23.0821   15.7274 H   0  0  0  0  0  0
   21.3582   22.8441   15.5655 H   0  0  0  0  0  0
   26.7964   24.7304   15.7020 H   0  0  0  0  0  0
   26.4926   25.7054   13.4451 H   0  0  0  0  0  0
   25.3218   21.8725   11.9138 H   0  0  0  0  0  0
   25.6227   20.8652   14.1553 H   0  0  0  0  0  0
   28.5606   22.4734   16.8039 H   0  0  0  0  0  0
   18.8392   20.3579   14.7604 H   0  0  0  0  0  0
   18.8559   19.0848   15.8726 H   0  0  0  0  0  0
   31.5322   21.4698   19.6982 H   0  0  0  0  0  0
   30.7229   19.9177   19.9969 H   0  0  0  0  0  0
   30.3058   21.3705   20.9782 H   0  0  0  0  0  0
  1  2  2  0  0  0
  1  6  1  0  0  0
  1 18  1  0  0  0
  2  3  1  0  0  0
  2 27  1  0  0  0
  3  4  2  0  0  0
  3 28  1  0  0  0
  4  5  1  0  0  0
  4  7  1  0  0  0
  5  6  2  0  0  0
  5 29  1  0  0  0
  6 30  1  0  0  0
  7 14  1  0  0  0
  7 15  1  0  0  0
  8  9  2  0  0  0
  8 13  1  0  0  0
  8 14  1  0  0  0
  9 10  1  0  0  0
  9 31  1  0  0  0
 10 11  2  0  0  0
 10 32  1  0  0  0
 11 12  1  0  0  0
 11 22  1  0  0  0
 12 13  2  0  0  0
 12 33  1  0  0  0
 13 34  1  0  0  0
 14 17  2  0  0  0
 15 16  2  0  0  0
 16 17  1  0  0  0
 16 23  1  0  0  0
 17 35  1  0  0  0
 18 19  2  0  0  0
 18 20  2  0  0  0
 18 21  1  0  0  0
 21 36  1  0  0  0
 21 37  1  0  0  0
 23 24  2  0  0  0
 23 25  1  0  0  0
 25 26  1  0  0  0
 26 38  1  0  0  0
 26 39  1  0  0  0
 26 40  1  0  0  0
M  END
>  <Name>
8-3a

>  <Family>
E.1

>  <IC50_uM>
100.000000

>  <set>
2

$$$$
8-8a
  Cerius2 12120216093D 1   1.00000                          
 Structure written by MMmdl.
 37 39  0  0  0  0  0  0  0  0999 V2000
   21.2458   21.1841   16.9497 C   0  0  0  0  0  0
   21.9636   20.3194   17.7754 C   0  0  0  0  0  0
   23.3559   20.4359   17.8543 C   0  0  0  0  0  0
   24.0444   21.4036   17.0968 C   0  0  0  0  0  0
   23.3052   22.2721   16.2821 C   0  0  0  0  0  0
   21.9115   22.1577   16.2018 C   0  0  0  0  0  0
   25.4697   21.4908   17.2151 N   0  0  0  0  0  0
   26.2148   22.7303   15.0971 C   0  0  0  0  0  0
   26.4731   24.0904   14.8819 C   0  0  0  0  0  0
   26.3013   24.6501   13.6136 C   0  0  0  0  0  0
   25.8817   23.8532   12.5497 C   0  0  0  0  0  0
   25.6378   22.4955   12.7504 C   0  0  0  0  0  0
   25.8090   21.9337   14.0177 C   0  0  0  0  0  0
   26.4158   22.1442   16.4206 C   0  0  0  0  0  0
   26.0760   20.8750   18.2818 N   0  0  0  0  0  0
   27.3510   21.2661   18.2402 C   0  0  0  0  0  0
   27.6118   22.0569   17.1115 C   0  0  0  0  0  0
   19.4855   21.0358   16.8153 S   0  0  0  0  0  0
   18.9405   22.2470   16.2278 O   0  0  0  0  0  0
   18.9586   20.5218   18.0671 O   0  0  0  0  0  0
   19.3207   19.8251   15.6694 N   0  0  0  0  0  0
   28.3069   20.8307   19.2877 C   0  0  0  0  0  0
   21.4571   19.5568   18.3630 H   0  0  0  0  0  0
   23.8915   19.7464   18.5063 H   0  0  0  0  0  0
   23.7666   23.0779   15.7209 H   0  0  0  0  0  0
   21.3541   22.8424   15.5649 H   0  0  0  0  0  0
   26.8032   24.7270   15.7015 H   0  0  0  0  0  0
   26.4972   25.7093   13.4563 H   0  0  0  0  0  0
   25.7489   24.2900   11.5615 H   0  0  0  0  0  0
   25.3168   21.8712   11.9184 H   0  0  0  0  0  0
   25.6233   20.8692   14.1530 H   0  0  0  0  0  0
   28.5647   22.4674   16.8016 H   0  0  0  0  0  0
   18.8426   20.1717   14.8335 H   0  0  0  0  0  0
   18.8430   19.0092   16.0607 H   0  0  0  0  0  0
   28.5391   19.7671   19.1729 H   0  0  0  0  0  0
   27.8863   20.9880   20.2862 H   0  0  0  0  0  0
   29.2437   21.3935   19.2244 H   0  0  0  0  0  0
  1  2  2  0  0  0
  1  6  1  0  0  0
  1 18  1  0  0  0
  2  3  1  0  0  0
  2 23  1  0  0  0
  3  4  2  0  0  0
  3 24  1  0  0  0
  4  5  1  0  0  0
  4  7  1  0  0  0
  5  6  2  0  0  0
  5 25  1  0  0  0
  6 26  1  0  0  0
  7 14  1  0  0  0
  7 15  1  0  0  0
  8  9  2  0  0  0
  8 13  1  0  0  0
  8 14  1  0  0  0
  9 10  1  0  0  0
  9 27  1  0  0  0
 10 11  2  0  0  0
 10 28  1  0  0  0
 11 12  1  0  0  0
 11 29  1  0  0  0
 12 13  2  0  0  0
 12 30  1  0  0  0
 13 31  1  0  0  0
 14 17  2  0  0  0
 15 16  2  0  0  0
 16 17  1  0  0  0
 16 22  1  0  0  0
 17 32  1  0  0  0
 18 19  2  0  0  0
 18 20  2  0  0  0
 18 21  1  0  0  0
 21 33  1  0  0  0
 21 34  1  0  0  0
 22 35  1  0  0  0
 22 36  1  0  0  0
 22 37  1  0  0  0
M  END
>  <Name>
8-8a

>  <Family>
E.1

>  <IC50_uM>
62.800000

>  <set>
1

$$$$
8-9a
  Cerius2 12120216093D 1   1.00000                          
 Structure written by MMmdl.
 48 51  0  0  0  0  0  0  0  0999 V2000
   21.2479   21.1878   16.9505 C   0  0  0  0  0  0
   21.9650   20.3221   17.7761 C   0  0  0  0  0  0
   23.3574   20.4373   17.8561 C   0  0  0  0  0  0
   24.0464   21.4037   17.0982 C   0  0  0  0  0  0
   23.3083   22.2736   16.2838 C   0  0  0  0  0  0
   21.9145   22.1607   16.2027 C   0  0  0  0  0  0
   25.4719   21.4898   17.2147 N   0  0  0  0  0  0
   26.2112   22.7302   15.0981 C   0  0  0  0  0  0
   26.4681   24.0909   14.8821 C   0  0  0  0  0  0
   26.3035   24.6489   13.6111 C   0  0  0  0  0  0
   25.8920   23.8457   12.5495 C   0  0  0  0  0  0
   25.6469   22.4884   12.7472 C   0  0  0  0  0  0
   25.8115   21.9303   14.0182 C   0  0  0  0  0  0
   26.4111   22.1466   16.4220 C   0  0  0  0  0  0
   26.0773   20.8673   18.2711 N   0  0  0  0  0  0
   27.3573   21.2613   18.2541 C   0  0  0  0  0  0
   27.6033   22.0630   17.1182 C   0  0  0  0  0  0
   19.4878   21.0349   16.8162 S   0  0  0  0  0  0
   18.9261   22.2983   16.3720 O   0  0  0  0  0  0
   18.9756   20.3796   18.0068 O   0  0  0  0  0  0
   19.3252   19.9549   15.5463 N   0  0  0  0  0  0
   25.6915   24.5327   10.9842 Cl  0  0  0  0  0  0
   28.3060   20.8422   19.2948 C   0  0  0  0  0  0
   27.8950   20.0097   20.3458 C   0  0  0  0  0  0
   28.7965   19.6095   21.3390 C   0  0  0  0  0  0
   30.1258   20.0323   21.3063 C   0  0  0  0  0  0
   30.5465   20.8611   20.2682 C   0  0  0  0  0  0
   29.6438   21.2622   19.2718 C   0  0  0  0  0  0
   30.9014   19.5726   22.3340 O   0  0  0  0  0  0
   32.2675   19.9849   22.3408 C   0  0  0  0  0  0
   21.4569   19.5603   18.3636 H   0  0  0  0  0  0
   23.8922   19.7478   18.5087 H   0  0  0  0  0  0
   23.7708   23.0800   15.7242 H   0  0  0  0  0  0
   21.3587   22.8467   15.5661 H   0  0  0  0  0  0
   26.7928   24.7296   15.7022 H   0  0  0  0  0  0
   26.5009   25.7077   13.4609 H   0  0  0  0  0  0
   25.3321   21.8560   11.9206 H   0  0  0  0  0  0
   25.6272   20.8657   14.1546 H   0  0  0  0  0  0
   28.5478   22.4842   16.7986 H   0  0  0  0  0  0
   18.8350   20.3845   14.7574 H   0  0  0  0  0  0
   18.8615   19.0948   15.8501 H   0  0  0  0  0  0
   26.8656   19.6587   20.4046 H   0  0  0  0  0  0
   28.4493   18.9616   22.1423 H   0  0  0  0  0  0
   31.5700   21.2204   20.1969 H   0  0  0  0  0  0
   30.0138   21.9156   18.4836 H   0  0  0  0  0  0
   32.7449   19.5388   23.2185 H   0  0  0  0  0  0
   32.3495   21.0729   22.4326 H   0  0  0  0  0  0
   32.7928   19.6192   21.4523 H   0  0  0  0  0  0
  1  2  2  0  0  0
  1  6  1  0  0  0
  1 18  1  0  0  0
  2  3  1  0  0  0
  2 31  1  0  0  0
  3  4  2  0  0  0
  3 32  1  0  0  0
  4  5  1  0  0  0
  4  7  1  0  0  0
  5  6  2  0  0  0
  5 33  1  0  0  0
  6 34  1  0  0  0
  7 14  1  0  0  0
  7 15  1  0  0  0
  8  9  2  0  0  0
  8 13  1  0  0  0
  8 14  1  0  0  0
  9 10  1  0  0  0
  9 35  1  0  0  0
 10 11  2  0  0  0
 10 36  1  0  0  0
 11 12  1  0  0  0
 11 22  1  0  0  0
 12 13  2  0  0  0
 12 37  1  0  0  0
 13 38  1  0  0  0
 14 17  2  0  0  0
 15 16  2  0  0  0
 16 17  1  0  0  0
 16 23  1  0  0  0
 17 39  1  0  0  0
 18 19  2  0  0  0
 18 20  2  0  0  0
 18 21  1  0  0  0
 21 40  1  0  0  0
 21 41  1  0  0  0
 23 24  2  0  0  0
 23 28  1  0  0  0
 24 25  1  0  0  0
 24 42  1  0  0  0
 25 26  2  0  0  0
 25 43  1  0  0  0
 26 27  1  0  0  0
 26 29  1  0  0  0
 27 28  2  0  0  0
 27 44  1  0  0  0
 28 45  1  0  0  0
 29 30  1  0  0  0
 30 46  1  0  0  0
 30 47  1  0  0  0
 30 48  1  0  0  0
M  END
>  <Name>
8-9a

>  <Family>
E.1

>  <IC50_uM>
0.100000

>  <set>
2

$$$$
8-9b
  Cerius2 12120216093D 1   1.00000                          
 Structure written by MMmdl.
 41 44  0  0  0  0  0  0  0  0999 V2000
   21.2474   21.1878   16.9494 C   0  0  0  0  0  0
   21.9645   20.3223   17.7752 C   0  0  0  0  0  0
   23.3566   20.4379   17.8557 C   0  0  0  0  0  0
   24.0457   21.4048   17.0983 C   0  0  0  0  0  0
   23.3080   22.2742   16.2834 C   0  0  0  0  0  0
   21.9141   22.1606   16.2016 C   0  0  0  0  0  0
   25.4710   21.4907   17.2162 N   0  0  0  0  0  0
   26.2125   22.7300   15.0979 C   0  0  0  0  0  0
   26.4706   24.0906   14.8825 C   0  0  0  0  0  0
   26.3014   24.6503   13.6128 C   0  0  0  0  0  0
   25.8847   23.8488   12.5519 C   0  0  0  0  0  0
   25.6398   22.4914   12.7488 C   0  0  0  0  0  0
   25.8090   21.9315   14.0185 C   0  0  0  0  0  0
   26.4138   22.1452   16.4210 C   0  0  0  0  0  0
   26.0744   20.8720   18.2774 N   0  0  0  0  0  0
   27.3508   21.2616   18.2408 C   0  0  0  0  0  0
   27.6094   22.0575   17.1129 C   0  0  0  0  0  0
   19.4875   21.0328   16.8150 S   0  0  0  0  0  0
   18.9207   22.3075   16.4111 O   0  0  0  0  0  0
   18.9803   20.3397   17.9860 O   0  0  0  0  0  0
   19.3257   19.9913   15.5133 N   0  0  0  0  0  0
   25.6771   24.5381   10.9885 Cl  0  0  0  0  0  0
   28.3393   20.8452   19.2771 C   0  0  0  0  0  0
   29.9879   21.3228   19.2678 S   0  0  0  0  0  0
   30.3013   20.4558   20.6850 C   0  0  0  0  0  0
   29.2033   19.8052   21.1822 C   0  0  0  0  0  0
   28.0562   20.0319   20.3596 C   0  0  0  0  0  0
   31.8836   20.4584   21.3529 Cl  0  0  0  0  0  0
   21.4562   19.5604   18.3623 H   0  0  0  0  0  0
   23.8913   19.7481   18.5083 H   0  0  0  0  0  0
   23.7703   23.0806   15.7239 H   0  0  0  0  0  0
   21.3587   22.8464   15.5643 H   0  0  0  0  0  0
   26.7987   24.7282   15.7021 H   0  0  0  0  0  0
   26.4989   25.7092   13.4631 H   0  0  0  0  0  0
   25.3210   21.8601   11.9228 H   0  0  0  0  0  0
   25.6241   20.8670   14.1543 H   0  0  0  0  0  0
   28.5567   22.4736   16.7960 H   0  0  0  0  0  0
   18.8317   20.4426   14.7391 H   0  0  0  0  0  0
   18.8663   19.1205   15.7921 H   0  0  0  0  0  0
   29.2084   19.1996   22.0805 H   0  0  0  0  0  0
   27.0795   19.6100   20.5683 H   0  0  0  0  0  0
  1  2  2  0  0  0
  1  6  1  0  0  0
  1 18  1  0  0  0
  2  3  1  0  0  0
  2 29  1  0  0  0
  3  4  2  0  0  0
  3 30  1  0  0  0
  4  5  1  0  0  0
  4  7  1  0  0  0
  5  6  2  0  0  0
  5 31  1  0  0  0
  6 32  1  0  0  0
  7 14  1  0  0  0
  7 15  1  0  0  0
  8  9  2  0  0  0
  8 13  1  0  0  0
  8 14  1  0  0  0
  9 10  1  0  0  0
  9 33  1  0  0  0
 10 11  2  0  0  0
 10 34  1  0  0  0
 11 12  1  0  0  0
 11 22  1  0  0  0
 12 13  2  0  0  0
 12 35  1  0  0  0
 13 36  1  0  0  0
 14 17  2  0  0  0
 15 16  2  0  0  0
 16 17  1  0  0  0
 16 23  1  0  0  0
 17 37  1  0  0  0
 18 19  2  0  0  0
 18 20  2  0  0  0
 18 21  1  0  0  0
 21 38  1  0  0  0
 21 39  1  0  0  0
 23 24  1  0  0  0
 23 27  2  0  0  0
 24 25  1  0  0  0
 25 26  2  0  0  0
 25 28  1  0  0  0
 26 27  1  0  0  0
 26 40  1  0  0  0
 27 41  1  0  0  0
M  END
>  <Name>
8-9b

>  <Family>
E.1

>  <IC50_uM>
0.052000

>  <set>
2

$$$$
8-10a
  Cerius2 12120216093D 1   1.00000                          
 Structure written by MMmdl.
 37 39  0  0  0  0  0  0  0  0999 V2000
   21.2481   21.1935   16.9433 C   0  0  0  0  0  0
   21.9631   20.3268   17.7711 C   0  0  0  0  0  0
   23.3550   20.4395   17.8542 C   0  0  0  0  0  0
   24.0461   21.4047   17.0968 C   0  0  0  0  0  0
   23.3107   22.2758   16.2810 C   0  0  0  0  0  0
   21.9164   22.1659   16.1975 C   0  0  0  0  0  0
   25.4714   21.4893   17.2158 N   0  0  0  0  0  0
   26.2117   22.7304   15.0982 C   0  0  0  0  0  0
   26.4693   24.0923   14.8826 C   0  0  0  0  0  0
   26.3029   24.6492   13.6125 C   0  0  0  0  0  0
   25.8905   23.8425   12.5586 C   0  0  0  0  0  0
   25.6443   22.4881   12.7489 C   0  0  0  0  0  0
   25.8103   21.9293   14.0181 C   0  0  0  0  0  0
   26.4129   22.1465   16.4225 C   0  0  0  0  0  0
   26.0739   20.8661   18.2755 N   0  0  0  0  0  0
   27.3586   21.2589   18.2484 C   0  0  0  0  0  0
   27.6064   22.0622   17.1157 C   0  0  0  0  0  0
   19.4883   21.0273   16.8230 S   0  0  0  0  0  0
   18.9262   22.2858   16.3658 O   0  0  0  0  0  0
   18.9792   20.3841   18.0215 O   0  0  0  0  0  0
   19.3230   19.9236   15.5739 N   0  0  0  0  0  0
   25.7329   24.3773   11.3405 F   0  0  0  0  0  0
   28.3453   20.8597   19.2602 C   0  0  0  0  0  0
   28.1098   20.1366   20.2242 O   0  0  0  0  0  0
   29.5950   21.3557   19.0633 O   0  0  0  0  0  0
   21.4490   19.5672   18.3563 H   0  0  0  0  0  0
   23.8876   19.7493   18.5078 H   0  0  0  0  0  0
   23.7763   23.0815   15.7228 H   0  0  0  0  0  0
   21.3659   22.8537   15.5588 H   0  0  0  0  0  0
   26.7949   24.7310   15.7022 H   0  0  0  0  0  0
   26.4955   25.7050   13.4446 H   0  0  0  0  0  0
   25.3290   21.8711   11.9124 H   0  0  0  0  0  0
   25.6260   20.8648   14.1545 H   0  0  0  0  0  0
   28.5590   22.4775   16.8114 H   0  0  0  0  0  0
   18.8227   20.3347   14.7814 H   0  0  0  0  0  0
   18.8684   19.0659   15.8977 H   0  0  0  0  0  0
   30.1211   20.9975   19.8154 H   0  0  0  0  0  0
  1  2  2  0  0  0
  1  6  1  0  0  0
  1 18  1  0  0  0
  2  3  1  0  0  0
  2 26  1  0  0  0
  3  4  2  0  0  0
  3 27  1  0  0  0
  4  5  1  0  0  0
  4  7  1  0  0  0
  5  6  2  0  0  0
  5 28  1  0  0  0
  6 29  1  0  0  0
  7 14  1  0  0  0
  7 15  1  0  0  0
  8  9  2  0  0  0
  8 13  1  0  0  0
  8 14  1  0  0  0
  9 10  1  0  0  0
  9 30  1  0  0  0
 10 11  2  0  0  0
 10 31  1  0  0  0
 11 12  1  0  0  0
 11 22  1  0  0  0
 12 13  2  0  0  0
 12 32  1  0  0  0
 13 33  1  0  0  0
 14 17  2  0  0  0
 15 16  2  0  0  0
 16 17  1  0  0  0
 16 23  1  0  0  0
 17 34  1  0  0  0
 18 19  2  0  0  0
 18 20  2  0  0  0
 18 21  1  0  0  0
 21 35  1  0  0  0
 21 36  1  0  0  0
 23 24  2  0  0  0
 23 25  1  0  0  0
 25 37  1  0  0  0
M  END
>  <Name>
8-10a

>  <Family>
E.1

>  <IC50_uM>
>100

>  <set>
1

$$$$
8-11a
  Cerius2 12120216093D 1   1.00000                          
 Structure written by MMmdl.
 39 41  0  0  0  0  0  0  0  0999 V2000
   21.2490   21.1834   16.9478 C   0  0  0  0  0  0
   21.9656   20.3193   17.7750 C   0  0  0  0  0  0
   23.3579   20.4362   17.8560 C   0  0  0  0  0  0
   24.0467   21.4036   17.0990 C   0  0  0  0  0  0
   23.3088   22.2728   16.2841 C   0  0  0  0  0  0
   21.9153   22.1578   16.2014 C   0  0  0  0  0  0
   25.4719   21.4907   17.2168 N   0  0  0  0  0  0
   26.2106   22.7302   15.0981 C   0  0  0  0  0  0
   26.4687   24.0922   14.8832 C   0  0  0  0  0  0
   26.2998   24.6500   13.6139 C   0  0  0  0  0  0
   25.8847   23.8442   12.5603 C   0  0  0  0  0  0
   25.6385   22.4897   12.7501 C   0  0  0  0  0  0
   25.8068   21.9298   14.0184 C   0  0  0  0  0  0
   26.4132   22.1455   16.4215 C   0  0  0  0  0  0
   26.0764   20.8713   18.2789 N   0  0  0  0  0  0
   27.3622   21.2598   18.2476 C   0  0  0  0  0  0
   27.6083   22.0600   17.1117 C   0  0  0  0  0  0
   19.4886   21.0392   16.8120 S   0  0  0  0  0  0
   18.9331   22.2971   16.3446 O   0  0  0  0  0  0
   18.9749   20.4066   18.0139 O   0  0  0  0  0  0
   19.3199   19.9418   15.5576 N   0  0  0  0  0  0
   25.7247   24.3800   11.3429 F   0  0  0  0  0  0
   28.3518   20.8617   19.2587 C   0  0  0  0  0  0
   28.0936   20.1378   20.2243 O   0  0  0  0  0  0
   29.6159   21.3806   19.0124 O   0  0  0  0  0  0
   30.6087   20.9947   20.0434 N   0  0  0  0  0  0
   21.4586   19.5566   18.3620 H   0  0  0  0  0  0
   23.8922   19.7467   18.5090 H   0  0  0  0  0  0
   23.7704   23.0806   15.7260 H   0  0  0  0  0  0
   21.3580   22.8428   15.5650 H   0  0  0  0  0  0
   26.7964   24.7298   15.7028 H   0  0  0  0  0  0
   26.4926   25.7058   13.4465 H   0  0  0  0  0  0
   25.3213   21.8735   11.9137 H   0  0  0  0  0  0
   25.6219   20.8653   14.1547 H   0  0  0  0  0  0
   28.5607   22.4734   16.8037 H   0  0  0  0  0  0
   18.8354   20.3641   14.7614 H   0  0  0  0  0  0
   18.8478   19.0903   15.8726 H   0  0  0  0  0  0
   31.1805   20.3331   19.5032 H   0  0  0  0  0  0
   30.0572   20.3746   20.6568 H   0  0  0  0  0  0
  1  2  2  0  0  0
  1  6  1  0  0  0
  1 18  1  0  0  0
  2  3  1  0  0  0
  2 27  1  0  0  0
  3  4  2  0  0  0
  3 28  1  0  0  0
  4  5  1  0  0  0
  4  7  1  0  0  0
  5  6  2  0  0  0
  5 29  1  0  0  0
  6 30  1  0  0  0
  7 14  1  0  0  0
  7 15  1  0  0  0
  8  9  2  0  0  0
  8 13  1  0  0  0
  8 14  1  0  0  0
  9 10  1  0  0  0
  9 31  1  0  0  0
 10 11  2  0  0  0
 10 32  1  0  0  0
 11 12  1  0  0  0
 11 22  1  0  0  0
 12 13  2  0  0  0
 12 33  1  0  0  0
 13 34  1  0  0  0
 14 17  2  0  0  0
 15 16  2  0  0  0
 16 17  1  0  0  0
 16 23  1  0  0  0
 17 35  1  0  0  0
 18 19  2  0  0  0
 18 20  2  0  0  0
 18 21  1  0  0  0
 21 36  1  0  0  0
 21 37  1  0  0  0
 23 24  2  0  0  0
 23 25  1  0  0  0
 25 26  1  0  0  0
 26 38  1  0  0  0
 26 39  1  0  0  0
M  END
>  <Name>
8-11a

>  <Family>
E.1

>  <IC50_uM>
>100

>  <set>
1

$$$$
8-12a
  Cerius2 12120216093D 1   1.00000                          
 Structure written by MMmdl.
 48 51  0  0  0  0  0  0  0  0999 V2000
   21.2479   21.1928   16.9429 C   0  0  0  0  0  0
   21.9632   20.3250   17.7695 C   0  0  0  0  0  0
   23.3551   20.4368   17.8516 C   0  0  0  0  0  0
   24.0458   21.4024   17.0944 C   0  0  0  0  0  0
   23.3105   22.2734   16.2785 C   0  0  0  0  0  0
   21.9160   22.1643   16.1961 C   0  0  0  0  0  0
   25.4706   21.4883   17.2146 N   0  0  0  0  0  0
   26.2122   22.7307   15.0983 C   0  0  0  0  0  0
   26.4699   24.0926   14.8825 C   0  0  0  0  0  0
   26.3046   24.6493   13.6123 C   0  0  0  0  0  0
   25.8932   23.8421   12.5583 C   0  0  0  0  0  0
   25.6472   22.4876   12.7486 C   0  0  0  0  0  0
   25.8120   21.9292   14.0182 C   0  0  0  0  0  0
   26.4128   22.1471   16.4227 C   0  0  0  0  0  0
   26.0722   20.8660   18.2765 N   0  0  0  0  0  0
   27.3558   21.2638   18.2467 C   0  0  0  0  0  0
   27.6064   22.0655   17.1163 C   0  0  0  0  0  0
   19.4876   21.0298   16.8279 S   0  0  0  0  0  0
   18.9267   22.2898   16.3737 O   0  0  0  0  0  0
   18.9807   20.3860   18.0271 O   0  0  0  0  0  0
   19.3168   19.9274   15.5783 N   0  0  0  0  0  0
   25.7364   24.3766   11.3398 F   0  0  0  0  0  0
   28.3280   20.8508   19.2804 C   0  0  0  0  0  0
   28.0028   20.1226   20.2159 O   0  0  0  0  0  0
   29.5855   21.3745   19.0514 N   0  0  0  0  0  0
   30.7638   21.2172   19.8014 C   0  0  0  0  0  0
   31.9099   21.8698   19.3298 C   0  0  0  0  0  0
   33.1176   21.7614   20.0213 C   0  0  0  0  0  0
   33.1993   21.0053   21.1867 C   0  0  0  0  0  0
   32.0630   20.3535   21.6618 C   0  0  0  0  0  0
   30.8502   20.4589   20.9719 C   0  0  0  0  0  0
   34.5182   22.5695   19.4285 Cl  0  0  0  0  0  0
   21.4490   19.5657   18.3551 H   0  0  0  0  0  0
   23.8875   19.7453   18.5039 H   0  0  0  0  0  0
   23.7762   23.0786   15.7198 H   0  0  0  0  0  0
   21.3655   22.8527   15.5580 H   0  0  0  0  0  0
   26.7949   24.7315   15.7023 H   0  0  0  0  0  0
   26.4971   25.7050   13.4442 H   0  0  0  0  0  0
   25.3329   21.8704   11.9120 H   0  0  0  0  0  0
   25.6279   20.8647   14.1548 H   0  0  0  0  0  0
   28.5590   22.4815   16.8135 H   0  0  0  0  0  0
   18.8145   20.3398   14.7879 H   0  0  0  0  0  0
   18.8623   19.0700   15.9030 H   0  0  0  0  0  0
   29.6329   21.9537   18.2126 H   0  0  0  0  0  0
   31.8676   22.4662   18.4209 H   0  0  0  0  0  0
   34.1377   20.9179   21.7291 H   0  0  0  0  0  0
   32.1183   19.7601   22.5730 H   0  0  0  0  0  0
   29.9922   19.9336   21.3807 H   0  0  0  0  0  0
  1  2  2  0  0  0
  1  6  1  0  0  0
  1 18  1  0  0  0
  2  3  1  0  0  0
  2 33  1  0  0  0
  3  4  2  0  0  0
  3 34  1  0  0  0
  4  5  1  0  0  0
  4  7  1  0  0  0
  5  6  2  0  0  0
  5 35  1  0  0  0
  6 36  1  0  0  0
  7 14  1  0  0  0
  7 15  1  0  0  0
  8  9  2  0  0  0
  8 13  1  0  0  0
  8 14  1  0  0  0
  9 10  1  0  0  0
  9 37  1  0  0  0
 10 11  2  0  0  0
 10 38  1  0  0  0
 11 12  1  0  0  0
 11 22  1  0  0  0
 12 13  2  0  0  0
 12 39  1  0  0  0
 13 40  1  0  0  0
 14 17  2  0  0  0
 15 16  2  0  0  0
 16 17  1  0  0  0
 16 23  1  0  0  0
 17 41  1  0  0  0
 18 19  2  0  0  0
 18 20  2  0  0  0
 18 21  1  0  0  0
 21 42  1  0  0  0
 21 43  1  0  0  0
 23 24  2  0  0  0
 23 25  1  0  0  0
 25 26  1  0  0  0
 25 44  1  0  0  0
 26 27  2  0  0  0
 26 31  1  0  0  0
 27 28  1  0  0  0
 27 45  1  0  0  0
 28 29  2  0  0  0
 28 32  1  0  0  0
 29 30  1  0  0  0
 29 46  1  0  0  0
 30 31  2  0  0  0
 30 47  1  0  0  0
 31 48  1  0  0  0
M  END
>  <Name>
8-12a

>  <Family>
E.1

>  <IC50_uM>
0.056000

>  <set>
2

$$$$
8-13a
  Cerius2 12120216093D 1   1.00000                          
 Structure written by MMmdl.
 35 37  0  0  0  0  0  0  0  0999 V2000
   21.2505   21.1669   16.9228 C   0  0  0  0  0  0
   21.9647   20.3124   17.7628 C   0  0  0  0  0  0
   23.3562   20.4317   17.8503 C   0  0  0  0  0  0
   24.0461   21.3993   17.0951 C   0  0  0  0  0  0
   23.3099   22.2685   16.2786 C   0  0  0  0  0  0
   21.9168   22.1515   16.1902 C   0  0  0  0  0  0
   25.4704   21.4888   17.2176 N   0  0  0  0  0  0
   26.2119   22.7316   15.0987 C   0  0  0  0  0  0
   26.4697   24.0932   14.8816 C   0  0  0  0  0  0
   26.2993   24.6494   13.6118 C   0  0  0  0  0  0
   25.8833   23.8422   12.5597 C   0  0  0  0  0  0
   25.6377   22.4879   12.7514 C   0  0  0  0  0  0
   25.8075   21.9297   14.0204 C   0  0  0  0  0  0
   26.4150   22.1487   16.4233 C   0  0  0  0  0  0
   26.0743   20.8701   18.2832 N   0  0  0  0  0  0
   27.3477   21.2715   18.2341 C   0  0  0  0  0  0
   27.6124   22.0666   17.1142 C   0  0  0  0  0  0
   25.7212   24.3766   11.3419 F   0  0  0  0  0  0
   19.4849   21.0493   16.8295 S   0  0  0  0  0  0
   18.9437   22.3321   16.4163 O   0  0  0  0  0  0
   18.9820   20.3877   18.0207 O   0  0  0  0  0  0
   19.2717   19.9863   15.5530 N   0  0  0  0  0  0
   28.2718   20.8485   19.2478 C   0  0  0  0  0  0
   29.0244   20.5064   20.0695 N   0  0  0  0  0  0
   21.4555   19.5502   18.3487 H   0  0  0  0  0  0
   23.8887   19.7443   18.5069 H   0  0  0  0  0  0
   23.7728   23.0782   15.7240 H   0  0  0  0  0  0
   21.3626   22.8372   15.5517 H   0  0  0  0  0  0
   26.7979   24.7324   15.6999 H   0  0  0  0  0  0
   26.4916   25.7051   13.4425 H   0  0  0  0  0  0
   25.3196   21.8707   11.9162 H   0  0  0  0  0  0
   25.6229   20.8654   14.1580 H   0  0  0  0  0  0
   28.5645   22.4802   16.8081 H   0  0  0  0  0  0
   18.7701   20.4327   14.7808 H   0  0  0  0  0  0
   18.8002   19.1315   15.8599 H   0  0  0  0  0  0
  1  2  2  0  0  0
  1  6  1  0  0  0
  1 19  1  0  0  0
  2  3  1  0  0  0
  2 25  1  0  0  0
  3  4  2  0  0  0
  3 26  1  0  0  0
  4  5  1  0  0  0
  4  7  1  0  0  0
  5  6  2  0  0  0
  5 27  1  0  0  0
  6 28  1  0  0  0
  7 14  1  0  0  0
  7 15  1  0  0  0
  8  9  2  0  0  0
  8 13  1  0  0  0
  8 14  1  0  0  0
  9 10  1  0  0  0
  9 29  1  0  0  0
 10 11  2  0  0  0
 10 30  1  0  0  0
 11 12  1  0  0  0
 11 18  1  0  0  0
 12 13  2  0  0  0
 12 31  1  0  0  0
 13 32  1  0  0  0
 14 17  2  0  0  0
 15 16  2  0  0  0
 16 17  1  0  0  0
 16 23  1  0  0  0
 17 33  1  0  0  0
 19 20  2  0  0  0
 19 21  2  0  0  0
 19 22  1  0  0  0
 22 34  1  0  0  0
 22 35  1  0  0  0
 23 24  3  0  0  0
M  END
>  <Name>
8-13a

>  <Family>
E.1

>  <IC50_uM>
0.340000

>  <set>
1

$$$$
8-14a
  Cerius2 12120216093D 1   1.00000                          
 Structure written by MMmdl.
 38 40  0  0  0  0  0  0  0  0999 V2000
   21.2474   21.1931   16.9427 C   0  0  0  0  0  0
   21.9627   20.3270   17.7709 C   0  0  0  0  0  0
   23.3545   20.4409   17.8546 C   0  0  0  0  0  0
   24.0453   21.4066   17.0978 C   0  0  0  0  0  0
   23.3094   22.2768   16.2815 C   0  0  0  0  0  0
   21.9153   22.1656   16.1970 C   0  0  0  0  0  0
   25.4705   21.4905   17.2167 N   0  0  0  0  0  0
   26.2126   22.7297   15.0985 C   0  0  0  0  0  0
   26.4703   24.0903   14.8831 C   0  0  0  0  0  0
   26.2998   24.6506   13.6137 C   0  0  0  0  0  0
   25.8818   23.8496   12.5531 C   0  0  0  0  0  0
   25.6368   22.4922   12.7498 C   0  0  0  0  0  0
   25.8072   21.9318   14.0193 C   0  0  0  0  0  0
   26.4152   22.1445   16.4220 C   0  0  0  0  0  0
   26.0746   20.8726   18.2819 N   0  0  0  0  0  0
   27.3544   21.2589   18.2404 C   0  0  0  0  0  0
   27.6121   22.0535   17.1100 C   0  0  0  0  0  0
   19.4880   21.0253   16.8189 S   0  0  0  0  0  0
   18.9247   22.2823   16.3591 O   0  0  0  0  0  0
   18.9776   20.3836   18.0175 O   0  0  0  0  0  0
   19.3263   19.9202   15.5705 N   0  0  0  0  0  0
   25.6728   24.5393   10.9902 Cl  0  0  0  0  0  0
   28.3330   20.8257   19.2851 C   0  0  0  0  0  0
   29.0452   19.6494   18.8814 O   0  0  0  0  0  0
   21.4493   19.5668   18.3562 H   0  0  0  0  0  0
   23.8876   19.7507   18.5079 H   0  0  0  0  0  0
   23.7745   23.0825   15.7229 H   0  0  0  0  0  0
   21.3648   22.8531   15.5578 H   0  0  0  0  0  0
   26.7992   24.7274   15.7029 H   0  0  0  0  0  0
   26.4973   25.7095   13.4642 H   0  0  0  0  0  0
   25.3169   21.8613   11.9238 H   0  0  0  0  0  0
   25.6222   20.8673   14.1551 H   0  0  0  0  0  0
   28.5666   22.4598   16.7995 H   0  0  0  0  0  0
   18.8269   20.3306   14.7772 H   0  0  0  0  0  0
   18.8713   19.0627   15.8942 H   0  0  0  0  0  0
   27.8173   20.6069   20.2264 H   0  0  0  0  0  0
   29.0633   21.6205   19.4702 H   0  0  0  0  0  0
   29.6350   19.4477   19.6377 H   0  0  0  0  0  0
  1  2  2  0  0  0
  1  6  1  0  0  0
  1 18  1  0  0  0
  2  3  1  0  0  0
  2 25  1  0  0  0
  3  4  2  0  0  0
  3 26  1  0  0  0
  4  5  1  0  0  0
  4  7  1  0  0  0
  5  6  2  0  0  0
  5 27  1  0  0  0
  6 28  1  0  0  0
  7 14  1  0  0  0
  7 15  1  0  0  0
  8  9  2  0  0  0
  8 13  1  0  0  0
  8 14  1  0  0  0
  9 10  1  0  0  0
  9 29  1  0  0  0
 10 11  2  0  0  0
 10 30  1  0  0  0
 11 12  1  0  0  0
 11 22  1  0  0  0
 12 13  2  0  0  0
 12 31  1  0  0  0
 13 32  1  0  0  0
 14 17  2  0  0  0
 15 16  2  0  0  0
 16 17  1  0  0  0
 16 23  1  0  0  0
 17 33  1  0  0  0
 18 19  2  0  0  0
 18 20  2  0  0  0
 18 21  1  0  0  0
 21 34  1  0  0  0
 21 35  1  0  0  0
 23 24  1  0  0  0
 23 36  1  0  0  0
 23 37  1  0  0  0
 24 38  1  0  0  0
M  END
>  <Name>
8-14a

>  <Family>
E.1

>  <IC50_uM>
0.830000

>  <set>
2

$$$$
8-15a
  Cerius2 12120216093D 1   1.00000                          
 Structure written by MMmdl.
 51 54  0  0  0  0  0  0  0  0999 V2000
   21.2462   21.1891   16.9503 C   0  0  0  0  0  0
   21.9627   20.3221   17.7753 C   0  0  0  0  0  0
   23.3554   20.4354   17.8551 C   0  0  0  0  0  0
   24.0457   21.4007   17.0972 C   0  0  0  0  0  0
   23.3084   22.2710   16.2822 C   0  0  0  0  0  0
   21.9141   22.1608   16.2021 C   0  0  0  0  0  0
   25.4713   21.4869   17.2150 N   0  0  0  0  0  0
   26.2116   22.7306   15.0983 C   0  0  0  0  0  0
   26.4691   24.0912   14.8814 C   0  0  0  0  0  0
   26.3011   24.6493   13.6109 C   0  0  0  0  0  0
   25.8858   23.8461   12.5507 C   0  0  0  0  0  0
   25.6412   22.4889   12.7490 C   0  0  0  0  0  0
   25.8094   21.9307   14.0195 C   0  0  0  0  0  0
   26.4137   22.1469   16.4222 C   0  0  0  0  0  0
   26.0789   20.8672   18.2781 N   0  0  0  0  0  0
   27.3559   21.2623   18.2394 C   0  0  0  0  0  0
   27.6089   22.0655   17.1138 C   0  0  0  0  0  0
   19.4861   21.0367   16.8142 S   0  0  0  0  0  0
   18.9282   22.2922   16.3433 O   0  0  0  0  0  0
   18.9703   20.4068   18.0168 O   0  0  0  0  0  0
   19.3236   19.9320   15.5659 N   0  0  0  0  0  0
   25.6796   24.5332   10.9862 Cl  0  0  0  0  0  0
   28.3380   20.8391   19.2888 C   0  0  0  0  0  0
   29.4734   20.1861   18.6997 O   0  0  0  0  0  0
   30.4113   19.7991   19.7055 C   0  0  0  0  0  0
   31.6109   19.2036   19.0159 C   0  0  0  0  0  0
   31.7231   17.8164   18.8473 C   0  0  0  0  0  0
   32.8293   17.2702   18.1931 C   0  0  0  0  0  0
   33.8295   18.1044   17.6960 C   0  0  0  0  0  0
   33.7234   19.4857   17.8485 C   0  0  0  0  0  0
   32.6185   20.0337   18.5025 C   0  0  0  0  0  0
   21.4534   19.5609   18.3622 H   0  0  0  0  0  0
   23.8893   19.7445   18.5071 H   0  0  0  0  0  0
   23.7721   23.0759   15.7215 H   0  0  0  0  0  0
   21.3592   22.8478   15.5655 H   0  0  0  0  0  0
   26.7963   24.7296   15.7007 H   0  0  0  0  0  0
   26.4983   25.7080   13.4600 H   0  0  0  0  0  0
   25.3233   21.8564   11.9234 H   0  0  0  0  0  0
   25.6259   20.8661   14.1568 H   0  0  0  0  0  0
   28.5617   22.4795   16.8078 H   0  0  0  0  0  0
   18.8358   20.3467   14.7675 H   0  0  0  0  0  0
   18.8575   19.0792   15.8860 H   0  0  0  0  0  0
   27.8598   20.1533   19.9988 H   0  0  0  0  0  0
   28.6755   21.7281   19.8351 H   0  0  0  0  0  0
   29.9538   19.0671   20.3817 H   0  0  0  0  0  0
   30.7174   20.6695   20.2987 H   0  0  0  0  0  0
   30.9469   17.1513   19.2244 H   0  0  0  0  0  0
   32.9093   16.1915   18.0691 H   0  0  0  0  0  0
   34.6910   17.6775   17.1857 H   0  0  0  0  0  0
   34.5012   20.1382   17.4552 H   0  0  0  0  0  0
   32.5449   21.1156   18.6089 H   0  0  0  0  0  0
  1  2  2  0  0  0
  1  6  1  0  0  0
  1 18  1  0  0  0
  2  3  1  0  0  0
  2 32  1  0  0  0
  3  4  2  0  0  0
  3 33  1  0  0  0
  4  5  1  0  0  0
  4  7  1  0  0  0
  5  6  2  0  0  0
  5 34  1  0  0  0
  6 35  1  0  0  0
  7 14  1  0  0  0
  7 15  1  0  0  0
  8  9  2  0  0  0
  8 13  1  0  0  0
  8 14  1  0  0  0
  9 10  1  0  0  0
  9 36  1  0  0  0
 10 11  2  0  0  0
 10 37  1  0  0  0
 11 12  1  0  0  0
 11 22  1  0  0  0
 12 13  2  0  0  0
 12 38  1  0  0  0
 13 39  1  0  0  0
 14 17  2  0  0  0
 15 16  2  0  0  0
 16 17  1  0  0  0
 16 23  1  0  0  0
 17 40  1  0  0  0
 18 19  2  0  0  0
 18 20  2  0  0  0
 18 21  1  0  0  0
 21 41  1  0  0  0
 21 42  1  0  0  0
 23 24  1  0  0  0
 23 43  1  0  0  0
 23 44  1  0  0  0
 24 25  1  0  0  0
 25 26  1  0  0  0
 25 45  1  0  0  0
 25 46  1  0  0  0
 26 27  2  0  0  0
 26 31  1  0  0  0
 27 28  1  0  0  0
 27 47  1  0  0  0
 28 29  2  0  0  0
 28 48  1  0  0  0
 29 30  1  0  0  0
 29 49  1  0  0  0
 30 31  2  0  0  0
 30 50  1  0  0  0
 31 51  1  0  0  0
M  END
>  <Name>
8-15a

>  <Family>
E.1

>  <IC50_uM>
0.029000

>  <set>
1

$$$$
8-16a
  Cerius2 12120216093D 1   1.00000                          
 Structure written by MMmdl.
 37 39  0  0  0  0  0  0  0  0999 V2000
   21.2461   21.1926   16.9432 C   0  0  0  0  0  0
   21.9620   20.3261   17.7703 C   0  0  0  0  0  0
   23.3539   20.4389   17.8524 C   0  0  0  0  0  0
   24.0446   21.4046   17.0953 C   0  0  0  0  0  0
   23.3082   22.2749   16.2796 C   0  0  0  0  0  0
   21.9137   22.1647   16.1969 C   0  0  0  0  0  0
   25.4698   21.4897   17.2145 N   0  0  0  0  0  0
   26.2149   22.7298   15.0977 C   0  0  0  0  0  0
   26.4733   24.0897   14.8820 C   0  0  0  0  0  0
   26.3019   24.6492   13.6137 C   0  0  0  0  0  0
   25.8823   23.8521   12.5499 C   0  0  0  0  0  0
   25.6389   22.4944   12.7507 C   0  0  0  0  0  0
   25.8097   21.9329   14.0182 C   0  0  0  0  0  0
   26.4156   22.1445   16.4218 C   0  0  0  0  0  0
   26.0741   20.8714   18.2803 N   0  0  0  0  0  0
   27.3527   21.2650   18.2447 C   0  0  0  0  0  0
   27.6107   22.0583   17.1138 C   0  0  0  0  0  0
   19.4863   21.0265   16.8241 S   0  0  0  0  0  0
   18.9239   22.2850   16.3670 O   0  0  0  0  0  0
   18.9778   20.3838   18.0230 O   0  0  0  0  0  0
   19.3198   19.9226   15.5752 N   0  0  0  0  0  0
   28.3312   20.8375   19.2870 C   0  0  0  0  0  0
   28.3484   21.7306   20.3247 F   0  0  0  0  0  0
   21.4483   19.5664   18.3562 H   0  0  0  0  0  0
   23.8868   19.7484   18.5055 H   0  0  0  0  0  0
   23.7730   23.0795   15.7191 H   0  0  0  0  0  0
   21.3632   22.8522   15.5578 H   0  0  0  0  0  0
   26.8031   24.7268   15.7014 H   0  0  0  0  0  0
   26.4977   25.7083   13.4563 H   0  0  0  0  0  0
   25.7497   24.2887   11.5615 H   0  0  0  0  0  0
   25.3180   21.8700   11.9187 H   0  0  0  0  0  0
   25.6240   20.8684   14.1534 H   0  0  0  0  0  0
   28.5642   22.4690   16.8053 H   0  0  0  0  0  0
   18.8170   20.3334   14.7842 H   0  0  0  0  0  0
   18.8664   19.0647   15.9000 H   0  0  0  0  0  0
   29.3462   20.7788   18.8821 H   0  0  0  0  0  0
   28.0643   19.8581   19.6955 H   0  0  0  0  0  0
  1  2  2  0  0  0
  1  6  1  0  0  0
  1 18  1  0  0  0
  2  3  1  0  0  0
  2 24  1  0  0  0
  3  4  2  0  0  0
  3 25  1  0  0  0
  4  5  1  0  0  0
  4  7  1  0  0  0
  5  6  2  0  0  0
  5 26  1  0  0  0
  6 27  1  0  0  0
  7 14  1  0  0  0
  7 15  1  0  0  0
  8  9  2  0  0  0
  8 13  1  0  0  0
  8 14  1  0  0  0
  9 10  1  0  0  0
  9 28  1  0  0  0
 10 11  2  0  0  0
 10 29  1  0  0  0
 11 12  1  0  0  0
 11 30  1  0  0  0
 12 13  2  0  0  0
 12 31  1  0  0  0
 13 32  1  0  0  0
 14 17  2  0  0  0
 15 16  2  0  0  0
 16 17  1  0  0  0
 16 22  1  0  0  0
 17 33  1  0  0  0
 18 19  2  0  0  0
 18 20  2  0  0  0
 18 21  1  0  0  0
 21 34  1  0  0  0
 21 35  1  0  0  0
 22 23  1  0  0  0
 22 36  1  0  0  0
 22 37  1  0  0  0
M  END
>  <Name>
8-16a

>  <Family>
E.1

>  <IC50_uM>
0.200000

>  <set>
1

$$$$
8-17a
  Cerius2 12120216093D 1   1.00000                          
 Structure written by MMmdl.
 38 40  0  0  0  0  0  0  0  0999 V2000
   21.2476   21.1932   16.9409 C   0  0  0  0  0  0
   21.9627   20.3277   17.7699 C   0  0  0  0  0  0
   23.3542   20.4417   17.8545 C   0  0  0  0  0  0
   24.0448   21.4072   17.0974 C   0  0  0  0  0  0
   23.3096   22.2774   16.2807 C   0  0  0  0  0  0
   21.9154   22.1664   16.1959 C   0  0  0  0  0  0
   25.4698   21.4912   17.2163 N   0  0  0  0  0  0
   26.2127   22.7294   15.0987 C   0  0  0  0  0  0
   26.4708   24.0902   14.8838 C   0  0  0  0  0  0
   26.3001   24.6506   13.6146 C   0  0  0  0  0  0
   25.8818   23.8497   12.5538 C   0  0  0  0  0  0
   25.6366   22.4923   12.7501 C   0  0  0  0  0  0
   25.8073   21.9318   14.0192 C   0  0  0  0  0  0
   26.4155   22.1434   16.4217 C   0  0  0  0  0  0
   26.0744   20.8734   18.2822 N   0  0  0  0  0  0
   27.3567   21.2524   18.2381 C   0  0  0  0  0  0
   27.6123   22.0529   17.1099 C   0  0  0  0  0  0
   19.4884   21.0236   16.8207 S   0  0  0  0  0  0
   18.9254   22.2821   16.3641 O   0  0  0  0  0  0
   18.9799   20.3788   18.0184 O   0  0  0  0  0  0
   19.3243   19.9197   15.5715 N   0  0  0  0  0  0
   25.6732   24.5398   10.9908 Cl  0  0  0  0  0  0
   28.3285   20.8278   19.2934 C   0  0  0  0  0  0
   29.6661   21.3746   19.0160 C   0  0  0  0  0  0
   30.7310   21.8034   18.8140 N   0  0  0  0  0  0
   21.4482   19.5676   18.3545 H   0  0  0  0  0  0
   23.8869   19.7514   18.5079 H   0  0  0  0  0  0
   23.7749   23.0829   15.7222 H   0  0  0  0  0  0
   21.3652   22.8535   15.5562 H   0  0  0  0  0  0
   26.7999   24.7269   15.7035 H   0  0  0  0  0  0
   26.4977   25.7094   13.4651 H   0  0  0  0  0  0
   25.3165   21.8615   11.9243 H   0  0  0  0  0  0
   25.6223   20.8673   14.1549 H   0  0  0  0  0  0
   28.5647   22.4653   16.7994 H   0  0  0  0  0  0
   18.8218   20.3299   14.7799 H   0  0  0  0  0  0
   18.8715   19.0615   15.8965 H   0  0  0  0  0  0
   28.3759   19.7336   19.3427 H   0  0  0  0  0  0
   27.9796   21.1746   20.2730 H   0  0  0  0  0  0
  1  2  2  0  0  0
  1  6  1  0  0  0
  1 18  1  0  0  0
  2  3  1  0  0  0
  2 26  1  0  0  0
  3  4  2  0  0  0
  3 27  1  0  0  0
  4  5  1  0  0  0
  4  7  1  0  0  0
  5  6  2  0  0  0
  5 28  1  0  0  0
  6 29  1  0  0  0
  7 14  1  0  0  0
  7 15  1  0  0  0
  8  9  2  0  0  0
  8 13  1  0  0  0
  8 14  1  0  0  0
  9 10  1  0  0  0
  9 30  1  0  0  0
 10 11  2  0  0  0
 10 31  1  0  0  0
 11 12  1  0  0  0
 11 22  1  0  0  0
 12 13  2  0  0  0
 12 32  1  0  0  0
 13 33  1  0  0  0
 14 17  2  0  0  0
 15 16  2  0  0  0
 16 17  1  0  0  0
 16 23  1  0  0  0
 17 34  1  0  0  0
 18 19  2  0  0  0
 18 20  2  0  0  0
 18 21  1  0  0  0
 21 35  1  0  0  0
 21 36  1  0  0  0
 23 24  1  0  0  0
 23 37  1  0  0  0
 23 38  1  0  0  0
 24 25  3  0  0  0
M  END
>  <Name>
8-17a

>  <Family>
E.1

>  <IC50_uM>
0.120000

>  <set>
2

$$$$
8-19
  Cerius2 12120216093D 1   1.00000                          
 Structure written by MMmdl.
 38 40  0  0  0  0  0  0  0  0999 V2000
   21.2455   21.1919   16.9426 C   0  0  0  0  0  0
   21.9612   20.3253   17.7695 C   0  0  0  0  0  0
   23.3530   20.4385   17.8520 C   0  0  0  0  0  0
   24.0438   21.4046   17.0954 C   0  0  0  0  0  0
   23.3075   22.2744   16.2792 C   0  0  0  0  0  0
   21.9131   22.1638   16.1960 C   0  0  0  0  0  0
   25.4688   21.4897   17.2159 N   0  0  0  0  0  0
   26.2153   22.7308   15.0978 C   0  0  0  0  0  0
   26.4739   24.0907   14.8820 C   0  0  0  0  0  0
   26.3020   24.6495   13.6134 C   0  0  0  0  0  0
   25.8824   23.8521   12.5500 C   0  0  0  0  0  0
   25.6392   22.4944   12.7512 C   0  0  0  0  0  0
   25.8100   21.9334   14.0189 C   0  0  0  0  0  0
   26.4167   22.1453   16.4212 C   0  0  0  0  0  0
   26.0717   20.8725   18.2826 N   0  0  0  0  0  0
   27.3367   21.2661   18.2266 C   0  0  0  0  0  0
   27.6153   22.0565   17.1109 C   0  0  0  0  0  0
   19.4856   21.0261   16.8250 S   0  0  0  0  0  0
   18.9229   22.2847   16.3684 O   0  0  0  0  0  0
   18.9779   20.3833   18.0242 O   0  0  0  0  0  0
   19.3189   19.9223   15.5760 N   0  0  0  0  0  0
   28.1145   20.8120   19.2302 O   0  0  0  0  0  0
   29.4683   21.2506   19.1523 C   0  0  0  0  0  0
   21.4477   19.5657   18.3554 H   0  0  0  0  0  0
   23.8855   19.7478   18.5053 H   0  0  0  0  0  0
   23.7719   23.0792   15.7185 H   0  0  0  0  0  0
   21.3626   22.8514   15.5569 H   0  0  0  0  0  0
   26.8040   24.7281   15.7008 H   0  0  0  0  0  0
   26.4979   25.7087   13.4555 H   0  0  0  0  0  0
   25.7495   24.2885   11.5615 H   0  0  0  0  0  0
   25.3191   21.8695   11.9193 H   0  0  0  0  0  0
   25.6247   20.8690   14.1544 H   0  0  0  0  0  0
   28.5638   22.4691   16.7949 H   0  0  0  0  0  0
   18.8173   20.3334   14.7845 H   0  0  0  0  0  0
   18.8649   19.0646   15.9007 H   0  0  0  0  0  0
   30.0033   20.8399   20.0139 H   0  0  0  0  0  0
   29.5332   22.3428   19.2058 H   0  0  0  0  0  0
   29.9530   20.8737   18.2451 H   0  0  0  0  0  0
  1  2  2  0  0  0
  1  6  1  0  0  0
  1 18  1  0  0  0
  2  3  1  0  0  0
  2 24  1  0  0  0
  3  4  2  0  0  0
  3 25  1  0  0  0
  4  5  1  0  0  0
  4  7  1  0  0  0
  5  6  2  0  0  0
  5 26  1  0  0  0
  6 27  1  0  0  0
  7 14  1  0  0  0
  7 15  1  0  0  0
  8  9  2  0  0  0
  8 13  1  0  0  0
  8 14  1  0  0  0
  9 10  1  0  0  0
  9 28  1  0  0  0
 10 11  2  0  0  0
 10 29  1  0  0  0
 11 12  1  0  0  0
 11 30  1  0  0  0
 12 13  2  0  0  0
 12 31  1  0  0  0
 13 32  1  0  0  0
 14 17  2  0  0  0
 15 16  2  0  0  0
 16 17  1  0  0  0
 16 22  1  0  0  0
 17 33  1  0  0  0
 18 19  2  0  0  0
 18 20  2  0  0  0
 18 21  1  0  0  0
 21 34  1  0  0  0
 21 35  1  0  0  0
 22 23  1  0  0  0
 23 36  1  0  0  0
 23 37  1  0  0  0
 23 38  1  0  0  0
M  END
>  <Name>
8-19

>  <Family>
E.1

>  <IC50_uM>
>100

>  <set>
2

$$$$
8-20a
  Cerius2 12120216093D 1   1.00000                          
 Structure written by MMmdl.
 37 39  0  0  0  0  0  0  0  0999 V2000
   21.2521   21.1842   16.9383 C   0  0  0  0  0  0
   21.9691   20.3229   17.7673 C   0  0  0  0  0  0
   23.3611   20.4441   17.8515 C   0  0  0  0  0  0
   24.0515   21.4140   17.0977 C   0  0  0  0  0  0
   23.3120   22.2780   16.2792 C   0  0  0  0  0  0
   21.9185   22.1589   16.1929 C   0  0  0  0  0  0
   25.4782   21.5017   17.2224 N   0  0  0  0  0  0
   26.2099   22.7305   15.1018 C   0  0  0  0  0  0
   26.4643   24.0916   14.8836 C   0  0  0  0  0  0
   26.2736   24.6518   13.6174 C   0  0  0  0  0  0
   25.8370   23.8510   12.5639 C   0  0  0  0  0  0
   25.5926   22.4940   12.7648 C   0  0  0  0  0  0
   25.7833   21.9329   14.0306 C   0  0  0  0  0  0
   26.4280   22.1407   16.4215 C   0  0  0  0  0  0
   26.0701   20.8906   18.2978 N   0  0  0  0  0  0
   27.3662   21.2504   18.2489 C   0  0  0  0  0  0
   27.6282   22.0200   17.1005 C   0  0  0  0  0  0
   19.4928   21.0336   16.7968 S   0  0  0  0  0  0
   18.9350   22.2890   16.3255 O   0  0  0  0  0  0
   18.9765   20.4013   17.9977 O   0  0  0  0  0  0
   19.3326   19.9331   15.5441 N   0  0  0  0  0  0
   25.6024   24.5412   11.0048 Cl  0  0  0  0  0  0
   28.3689   20.8380   19.2829 C   0  0  0  0  0  0
   28.9782   21.9076   19.8742 F   0  0  0  0  0  0
   29.3682   20.0663   18.7629 F   0  0  0  0  0  0
   27.8226   20.1081   20.3017 F   0  0  0  0  0  0
   29.1544   22.6135   16.6324 Cl  0  0  0  0  0  0
   21.4631   19.5587   18.3533 H   0  0  0  0  0  0
   23.8936   19.7548   18.5063 H   0  0  0  0  0  0
   23.7677   23.0856   15.7178 H   0  0  0  0  0  0
   21.3617   22.8415   15.5532 H   0  0  0  0  0  0
   26.8067   24.7289   15.6974 H   0  0  0  0  0  0
   26.4693   25.7105   13.4647 H   0  0  0  0  0  0
   25.2564   21.8642   11.9445 H   0  0  0  0  0  0
   25.5957   20.8695   14.1706 H   0  0  0  0  0  0
   18.8481   20.3518   14.7457 H   0  0  0  0  0  0
   18.8636   19.0801   15.8596 H   0  0  0  0  0  0
  1  2  2  0  0  0
  1  6  1  0  0  0
  1 18  1  0  0  0
  2  3  1  0  0  0
  2 28  1  0  0  0
  3  4  2  0  0  0
  3 29  1  0  0  0
  4  5  1  0  0  0
  4  7  1  0  0  0
  5  6  2  0  0  0
  5 30  1  0  0  0
  6 31  1  0  0  0
  7 14  1  0  0  0
  7 15  1  0  0  0
  8  9  2  0  0  0
  8 13  1  0  0  0
  8 14  1  0  0  0
  9 10  1  0  0  0
  9 32  1  0  0  0
 10 11  2  0  0  0
 10 33  1  0  0  0
 11 12  1  0  0  0
 11 22  1  0  0  0
 12 13  2  0  0  0
 12 34  1  0  0  0
 13 35  1  0  0  0
 14 17  2  0  0  0
 15 16  2  0  0  0
 16 17  1  0  0  0
 16 23  1  0  0  0
 17 27  1  0  0  0
 18 19  2  0  0  0
 18 20  2  0  0  0
 18 21  1  0  0  0
 21 36  1  0  0  0
 21 37  1  0  0  0
 23 24  1  0  0  0
 23 25  1  0  0  0
 23 26  1  0  0  0
M  END
>  <Name>
8-20a

>  <Family>
E.1

>  <IC50_uM>
0.005300

>  <set>
0

$$$$
8-20b
  Cerius2 12120216093D 1   1.00000                          
 Structure written by MMmdl.
 37 39  0  0  0  0  0  0  0  0999 V2000
   21.2511   21.1835   16.9390 C   0  0  0  0  0  0
   21.9687   20.3224   17.7675 C   0  0  0  0  0  0
   23.3606   20.4440   17.8506 C   0  0  0  0  0  0
   24.0504   21.4144   17.0966 C   0  0  0  0  0  0
   23.3100   22.2779   16.2783 C   0  0  0  0  0  0
   21.9164   22.1582   16.1930 C   0  0  0  0  0  0
   25.4772   21.5022   17.2213 N   0  0  0  0  0  0
   26.2124   22.7311   15.1007 C   0  0  0  0  0  0
   26.4676   24.0916   14.8830 C   0  0  0  0  0  0
   26.2755   24.6514   13.6182 C   0  0  0  0  0  0
   25.8369   23.8551   12.5614 C   0  0  0  0  0  0
   25.5940   22.4975   12.7656 C   0  0  0  0  0  0
   25.7851   21.9349   14.0294 C   0  0  0  0  0  0
   26.4291   22.1405   16.4202 C   0  0  0  0  0  0
   26.0688   20.8923   18.3000 N   0  0  0  0  0  0
   27.3548   21.2486   18.2446 C   0  0  0  0  0  0
   27.6278   22.0182   17.1002 C   0  0  0  0  0  0
   19.4918   21.0321   16.7997 S   0  0  0  0  0  0
   18.9327   22.2872   16.3289 O   0  0  0  0  0  0
   18.9769   20.3996   18.0011 O   0  0  0  0  0  0
   19.3310   19.9314   15.5471 N   0  0  0  0  0  0
   28.3020   20.8047   19.2981 C   0  0  0  0  0  0
   29.1595   22.6037   16.6443 Cl  0  0  0  0  0  0
   21.4632   19.5583   18.3541 H   0  0  0  0  0  0
   23.8941   19.7551   18.5052 H   0  0  0  0  0  0
   23.7658   23.0844   15.7151 H   0  0  0  0  0  0
   21.3592   22.8402   15.5532 H   0  0  0  0  0  0
   26.8113   24.7279   15.6972 H   0  0  0  0  0  0
   26.4698   25.7103   13.4575 H   0  0  0  0  0  0
   25.6877   24.2925   11.5756 H   0  0  0  0  0  0
   25.2572   21.8745   11.9390 H   0  0  0  0  0  0
   25.5971   20.8714   14.1690 H   0  0  0  0  0  0
   18.8458   20.3495   14.7491 H   0  0  0  0  0  0
   18.8627   19.0781   15.8632 H   0  0  0  0  0  0
   28.7947   21.6672   19.7581 H   0  0  0  0  0  0
   29.0703   20.1526   18.8705 H   0  0  0  0  0  0
   27.7901   20.2487   20.0905 H   0  0  0  0  0  0
  1  2  2  0  0  0
  1  6  1  0  0  0
  1 18  1  0  0  0
  2  3  1  0  0  0
  2 24  1  0  0  0
  3  4  2  0  0  0
  3 25  1  0  0  0
  4  5  1  0  0  0
  4  7  1  0  0  0
  5  6  2  0  0  0
  5 26  1  0  0  0
  6 27  1  0  0  0
  7 14  1  0  0  0
  7 15  1  0  0  0
  8  9  2  0  0  0
  8 13  1  0  0  0
  8 14  1  0  0  0
  9 10  1  0  0  0
  9 28  1  0  0  0
 10 11  2  0  0  0
 10 29  1  0  0  0
 11 12  1  0  0  0
 11 30  1  0  0  0
 12 13  2  0  0  0
 12 31  1  0  0  0
 13 32  1  0  0  0
 14 17  2  0  0  0
 15 16  2  0  0  0
 16 17  1  0  0  0
 16 22  1  0  0  0
 17 23  1  0  0  0
 18 19  2  0  0  0
 18 20  2  0  0  0
 18 21  1  0  0  0
 21 33  1  0  0  0
 21 34  1  0  0  0
 22 35  1  0  0  0
 22 36  1  0  0  0
 22 37  1  0  0  0
M  END
>  <Name>
8-20b

>  <Family>
E.1

>  <IC50_uM>
0.028000

>  <set>
2

$$$$
8-20c
  Cerius2 12120216093D 1   1.00000                          
 Structure written by MMmdl.
 38 40  0  0  0  0  0  0  0  0999 V2000
   21.2519   21.1844   16.9385 C   0  0  0  0  0  0
   21.9690   20.3237   17.7682 C   0  0  0  0  0  0
   23.3607   20.4460   17.8531 C   0  0  0  0  0  0
   24.0510   21.4158   17.0989 C   0  0  0  0  0  0
   23.3113   22.2794   16.2800 C   0  0  0  0  0  0
   21.9179   22.1595   16.1933 C   0  0  0  0  0  0
   25.4780   21.5025   17.2232 N   0  0  0  0  0  0
   26.2092   22.7315   15.1020 C   0  0  0  0  0  0
   26.4633   24.0927   14.8841 C   0  0  0  0  0  0
   26.2746   24.6524   13.6174 C   0  0  0  0  0  0
   25.8401   23.8511   12.5635 C   0  0  0  0  0  0
   25.5955   22.4941   12.7642 C   0  0  0  0  0  0
   25.7842   21.9335   14.0306 C   0  0  0  0  0  0
   26.4278   22.1415   16.4214 C   0  0  0  0  0  0
   26.0692   20.8927   18.3000 N   0  0  0  0  0  0
   27.3604   21.2429   18.2424 C   0  0  0  0  0  0
   27.6295   22.0142   17.0962 C   0  0  0  0  0  0
   19.4930   21.0304   16.7954 S   0  0  0  0  0  0
   18.9333   22.2845   16.3230 O   0  0  0  0  0  0
   18.9761   20.3977   17.9959 O   0  0  0  0  0  0
   19.3366   19.9285   15.5432 N   0  0  0  0  0  0
   29.1572   22.6003   16.6243 Cl  0  0  0  0  0  0
   25.6088   24.5410   11.0037 Cl  0  0  0  0  0  0
   28.3183   20.7904   19.2970 C   0  0  0  0  0  0
   28.4186   21.7439   20.3621 O   0  0  0  0  0  0
   21.4632   19.5595   18.3541 H   0  0  0  0  0  0
   23.8940   19.7576   18.5082 H   0  0  0  0  0  0
   23.7673   23.0868   15.7184 H   0  0  0  0  0  0
   21.3610   22.8414   15.5532 H   0  0  0  0  0  0
   26.8049   24.7299   15.6983 H   0  0  0  0  0  0
   26.4706   25.7111   13.4645 H   0  0  0  0  0  0
   25.2613   21.8638   11.9435 H   0  0  0  0  0  0
   25.5971   20.8701   14.1710 H   0  0  0  0  0  0
   18.8508   20.3448   14.7445 H   0  0  0  0  0  0
   18.8704   19.0742   15.8594 H   0  0  0  0  0  0
   29.3176   20.6563   18.8680 H   0  0  0  0  0  0
   28.0052   19.8316   19.7229 H   0  0  0  0  0  0
   29.0883   21.3668   20.9701 H   0  0  0  0  0  0
  1  2  2  0  0  0
  1  6  1  0  0  0
  1 18  1  0  0  0
  2  3  1  0  0  0
  2 26  1  0  0  0
  3  4  2  0  0  0
  3 27  1  0  0  0
  4  5  1  0  0  0
  4  7  1  0  0  0
  5  6  2  0  0  0
  5 28  1  0  0  0
  6 29  1  0  0  0
  7 14  1  0  0  0
  7 15  1  0  0  0
  8  9  2  0  0  0
  8 13  1  0  0  0
  8 14  1  0  0  0
  9 10  1  0  0  0
  9 30  1  0  0  0
 10 11  2  0  0  0
 10 31  1  0  0  0
 11 12  1  0  0  0
 11 23  1  0  0  0
 12 13  2  0  0  0
 12 32  1  0  0  0
 13 33  1  0  0  0
 14 17  2  0  0  0
 15 16  2  0  0  0
 16 17  1  0  0  0
 16 24  1  0  0  0
 17 22  1  0  0  0
 18 19  2  0  0  0
 18 20  2  0  0  0
 18 21  1  0  0  0
 21 34  1  0  0  0
 21 35  1  0  0  0
 24 25  1  0  0  0
 24 36  1  0  0  0
 24 37  1  0  0  0
 25 38  1  0  0  0
M  END
>  <Name>
8-20c

>  <Family>
E.1

>  <IC50_uM>
0.340000

>  <set>
1

$$$$
8-20d
  Cerius2 12120216093D 1   1.00000                          
 Structure written by MMmdl.
 35 37  0  0  0  0  0  0  0  0999 V2000
   21.2525   21.1935   16.9293 C   0  0  0  0  0  0
   21.9665   20.3292   17.7599 C   0  0  0  0  0  0
   23.3578   20.4451   17.8478 C   0  0  0  0  0  0
   24.0510   21.4125   17.0942 C   0  0  0  0  0  0
   23.3158   22.2793   16.2743 C   0  0  0  0  0  0
   21.9215   22.1663   16.1857 C   0  0  0  0  0  0
   25.4770   21.4978   17.2218 N   0  0  0  0  0  0
   26.2095   22.7327   15.1031 C   0  0  0  0  0  0
   26.4616   24.0937   14.8813 C   0  0  0  0  0  0
   26.2747   24.6489   13.6124 C   0  0  0  0  0  0
   25.8434   23.8435   12.5600 C   0  0  0  0  0  0
   25.5999   22.4870   12.7648 C   0  0  0  0  0  0
   25.7868   21.9310   14.0334 C   0  0  0  0  0  0
   26.4278   22.1461   16.4244 C   0  0  0  0  0  0
   26.0673   20.8778   18.2943 N   0  0  0  0  0  0
   27.3500   21.2500   18.2355 C   0  0  0  0  0  0
   27.6282   22.0288   17.1059 C   0  0  0  0  0  0
   19.4932   21.0265   16.8115 S   0  0  0  0  0  0
   18.9314   22.2867   16.3584 O   0  0  0  0  0  0
   18.9856   20.3792   18.0084 O   0  0  0  0  0  0
   19.3261   19.9248   15.5606 N   0  0  0  0  0  0
   29.1549   22.6292   16.6509 Cl  0  0  0  0  0  0
   25.6139   24.5281   10.9978 Cl  0  0  0  0  0  0
   28.2575   20.8110   19.2555 C   0  0  0  0  0  0
   28.9915   20.4523   20.0865 N   0  0  0  0  0  0
   21.4514   19.5692   18.3441 H   0  0  0  0  0  0
   23.8868   19.7548   18.5041 H   0  0  0  0  0  0
   23.7769   23.0855   15.7147 H   0  0  0  0  0  0
   21.3724   22.8526   15.5442 H   0  0  0  0  0  0
   26.8001   24.7347   15.6938 H   0  0  0  0  0  0
   26.4698   25.7072   13.4562 H   0  0  0  0  0  0
   25.2685   21.8535   11.9455 H   0  0  0  0  0  0
   25.6009   20.8675   14.1761 H   0  0  0  0  0  0
   18.8258   20.3374   14.7690 H   0  0  0  0  0  0
   18.8714   19.0668   15.8833 H   0  0  0  0  0  0
  1  2  2  0  0  0
  1  6  1  0  0  0
  1 18  1  0  0  0
  2  3  1  0  0  0
  2 26  1  0  0  0
  3  4  2  0  0  0
  3 27  1  0  0  0
  4  5  1  0  0  0
  4  7  1  0  0  0
  5  6  2  0  0  0
  5 28  1  0  0  0
  6 29  1  0  0  0
  7 14  1  0  0  0
  7 15  1  0  0  0
  8  9  2  0  0  0
  8 13  1  0  0  0
  8 14  1  0  0  0
  9 10  1  0  0  0
  9 30  1  0  0  0
 10 11  2  0  0  0
 10 31  1  0  0  0
 11 12  1  0  0  0
 11 23  1  0  0  0
 12 13  2  0  0  0
 12 32  1  0  0  0
 13 33  1  0  0  0
 14 17  2  0  0  0
 15 16  2  0  0  0
 16 17  1  0  0  0
 16 24  1  0  0  0
 17 22  1  0  0  0
 18 19  2  0  0  0
 18 20  2  0  0  0
 18 21  1  0  0  0
 21 34  1  0  0  0
 21 35  1  0  0  0
 24 25  3  0  0  0
M  END
>  <Name>
8-20d

>  <Family>
E.1

>  <IC50_uM>
0.010000

>  <set>
2

$$$$
8-20e
  Cerius2 12120216093D 1   1.00000                          
 Structure written by MMmdl.
 37 39  0  0  0  0  0  0  0  0999 V2000
   21.2531   21.1846   16.9377 C   0  0  0  0  0  0
   21.9702   20.3239   17.7673 C   0  0  0  0  0  0
   23.3620   20.4462   17.8519 C   0  0  0  0  0  0
   24.0525   21.4163   17.0980 C   0  0  0  0  0  0
   23.3125   22.2800   16.2795 C   0  0  0  0  0  0
   21.9190   22.1597   16.1925 C   0  0  0  0  0  0
   25.4798   21.5032   17.2228 N   0  0  0  0  0  0
   26.2086   22.7308   15.1030 C   0  0  0  0  0  0
   26.4624   24.0920   14.8839 C   0  0  0  0  0  0
   26.2721   24.6507   13.6170 C   0  0  0  0  0  0
   25.8364   23.8486   12.5641 C   0  0  0  0  0  0
   25.5923   22.4916   12.7662 C   0  0  0  0  0  0
   25.7825   21.9318   14.0326 C   0  0  0  0  0  0
   26.4277   22.1413   16.4228 C   0  0  0  0  0  0
   26.0682   20.8897   18.2936 N   0  0  0  0  0  0
   27.3661   21.2426   18.2525 C   0  0  0  0  0  0
   27.6288   22.0179   17.1012 C   0  0  0  0  0  0
   19.4939   21.0322   16.7959 S   0  0  0  0  0  0
   18.9346   22.2868   16.3243 O   0  0  0  0  0  0
   18.9782   20.3996   17.9971 O   0  0  0  0  0  0
   19.3350   19.9315   15.5432 N   0  0  0  0  0  0
   29.1454   22.6231   16.6086 Cl  0  0  0  0  0  0
   25.6024   24.5371   11.0040 Cl  0  0  0  0  0  0
   28.3184   20.8171   19.2856 C   0  0  0  0  0  0
   28.0572   20.1224   20.2628 O   0  0  0  0  0  0
   29.5915   21.2575   19.0949 O   0  0  0  0  0  0
   21.4645   19.5595   18.3531 H   0  0  0  0  0  0
   23.8948   19.7577   18.5074 H   0  0  0  0  0  0
   23.7678   23.0878   15.7180 H   0  0  0  0  0  0
   21.3620   22.8415   15.5523 H   0  0  0  0  0  0
   26.8049   24.7300   15.6971 H   0  0  0  0  0  0
   26.4676   25.7093   13.4630 H   0  0  0  0  0  0
   25.2572   21.8608   11.9462 H   0  0  0  0  0  0
   25.5958   20.8683   14.1736 H   0  0  0  0  0  0
   18.8516   20.3501   14.7443 H   0  0  0  0  0  0
   18.8655   19.0786   15.8584 H   0  0  0  0  0  0
   30.0938   20.8921   19.8601 H   0  0  0  0  0  0
  1  2  2  0  0  0
  1  6  1  0  0  0
  1 18  1  0  0  0
  2  3  1  0  0  0
  2 27  1  0  0  0
  3  4  2  0  0  0
  3 28  1  0  0  0
  4  5  1  0  0  0
  4  7  1  0  0  0
  5  6  2  0  0  0
  5 29  1  0  0  0
  6 30  1  0  0  0
  7 14  1  0  0  0
  7 15  1  0  0  0
  8  9  2  0  0  0
  8 13  1  0  0  0
  8 14  1  0  0  0
  9 10  1  0  0  0
  9 31  1  0  0  0
 10 11  2  0  0  0
 10 32  1  0  0  0
 11 12  1  0  0  0
 11 23  1  0  0  0
 12 13  2  0  0  0
 12 33  1  0  0  0
 13 34  1  0  0  0
 14 17  2  0  0  0
 15 16  2  0  0  0
 16 17  1  0  0  0
 16 24  1  0  0  0
 17 22  1  0  0  0
 18 19  2  0  0  0
 18 20  2  0  0  0
 18 21  1  0  0  0
 21 35  1  0  0  0
 21 36  1  0  0  0
 24 25  2  0  0  0
 24 26  1  0  0  0
 26 37  1  0  0  0
M  END
>  <Name>
8-20e

>  <Family>
E.1

>  <IC50_uM>
70.000000

>  <set>
2

$$$$
8-20f
  Cerius2 12120216093D 1   1.00000                          
 Structure written by MMmdl.
 40 42  0  0  0  0  0  0  0  0999 V2000
   21.2508   21.1811   16.9400 C   0  0  0  0  0  0
   21.9691   20.3218   17.7696 C   0  0  0  0  0  0
   23.3607   20.4456   17.8530 C   0  0  0  0  0  0
   24.0499   21.4166   17.0988 C   0  0  0  0  0  0
   23.3088   22.2789   16.2804 C   0  0  0  0  0  0
   21.9153   22.1571   16.1946 C   0  0  0  0  0  0
   25.4769   21.5039   17.2226 N   0  0  0  0  0  0
   26.2104   22.7310   15.1008 C   0  0  0  0  0  0
   26.4657   24.0926   14.8867 C   0  0  0  0  0  0
   26.2798   24.6549   13.6208 C   0  0  0  0  0  0
   25.8471   23.8560   12.5642 C   0  0  0  0  0  0
   25.6015   22.4986   12.7616 C   0  0  0  0  0  0
   25.7872   21.9352   14.0270 C   0  0  0  0  0  0
   26.4281   22.1362   16.4178 C   0  0  0  0  0  0
   26.0658   20.8996   18.3024 N   0  0  0  0  0  0
   27.3658   21.2274   18.2332 C   0  0  0  0  0  0
   27.6292   22.0125   17.0941 C   0  0  0  0  0  0
   19.4917   21.0289   16.7981 S   0  0  0  0  0  0
   18.9324   22.2835   16.3265 O   0  0  0  0  0  0
   18.9771   20.3958   17.9992 O   0  0  0  0  0  0
   19.3323   19.9289   15.5448 N   0  0  0  0  0  0
   29.1472   22.6399   16.6420 Cl  0  0  0  0  0  0
   25.6190   24.5490   11.0053 Cl  0  0  0  0  0  0
   28.3125   20.7945   19.2651 C   0  0  0  0  0  0
   27.9676   20.1172   20.2347 O   0  0  0  0  0  0
   29.6208   21.1914   19.1437 O   0  0  0  0  0  0
   30.0563   22.4260   19.7402 C   0  0  0  0  0  0
   21.4647   19.5567   18.3558 H   0  0  0  0  0  0
   23.8940   19.7569   18.5079 H   0  0  0  0  0  0
   23.7621   23.0864   15.7174 H   0  0  0  0  0  0
   21.3568   22.8381   15.5546 H   0  0  0  0  0  0
   26.8063   24.7280   15.7026 H   0  0  0  0  0  0
   26.4764   25.7137   13.4704 H   0  0  0  0  0  0
   25.2686   21.8705   11.9387 H   0  0  0  0  0  0
   25.5994   20.8714   14.1643 H   0  0  0  0  0  0
   18.8463   20.3468   14.7471 H   0  0  0  0  0  0
   18.8649   19.0750   15.8605 H   0  0  0  0  0  0
   29.9230   23.2481   19.0335 H   0  0  0  0  0  0
   31.0919   22.3669   20.0878 H   0  0  0  0  0  0
   29.4193   22.6141   20.6091 H   0  0  0  0  0  0
  1  2  2  0  0  0
  1  6  1  0  0  0
  1 18  1  0  0  0
  2  3  1  0  0  0
  2 28  1  0  0  0
  3  4  2  0  0  0
  3 29  1  0  0  0
  4  5  1  0  0  0
  4  7  1  0  0  0
  5  6  2  0  0  0
  5 30  1  0  0  0
  6 31  1  0  0  0
  7 14  1  0  0  0
  7 15  1  0  0  0
  8  9  2  0  0  0
  8 13  1  0  0  0
  8 14  1  0  0  0
  9 10  1  0  0  0
  9 32  1  0  0  0
 10 11  2  0  0  0
 10 33  1  0  0  0
 11 12  1  0  0  0
 11 23  1  0  0  0
 12 13  2  0  0  0
 12 34  1  0  0  0
 13 35  1  0  0  0
 14 17  2  0  0  0
 15 16  2  0  0  0
 16 17  1  0  0  0
 16 24  1  0  0  0
 17 22  1  0  0  0
 18 19  2  0  0  0
 18 20  2  0  0  0
 18 21  1  0  0  0
 21 36  1  0  0  0
 21 37  1  0  0  0
 24 25  2  0  0  0
 24 26  1  0  0  0
 26 27  1  0  0  0
 27 38  1  0  0  0
 27 39  1  0  0  0
 27 40  1  0  0  0
M  END
>  <Name>
8-20f

>  <Family>
E.1

>  <IC50_uM>
0.160000

>  <set>
1

$$$$
8-20g
  Cerius2 12120216093D 1   1.00000                          
 Structure written by MMmdl.
 38 40  0  0  0  0  0  0  0  0999 V2000
   21.2537   21.1945   16.9310 C   0  0  0  0  0  0
   21.9688   20.3321   17.7620 C   0  0  0  0  0  0
   23.3602   20.4507   17.8500 C   0  0  0  0  0  0
   24.0528   21.4184   17.0960 C   0  0  0  0  0  0
   23.3158   22.2835   16.2759 C   0  0  0  0  0  0
   21.9216   22.1680   16.1870 C   0  0  0  0  0  0
   25.4799   21.5030   17.2220 N   0  0  0  0  0  0
   26.2086   22.7303   15.1043 C   0  0  0  0  0  0
   26.4614   24.0915   14.8841 C   0  0  0  0  0  0
   26.2716   24.6492   13.6167 C   0  0  0  0  0  0
   25.8365   23.8461   12.5643 C   0  0  0  0  0  0
   25.5928   22.4892   12.7673 C   0  0  0  0  0  0
   25.7827   21.9306   14.0343 C   0  0  0  0  0  0
   26.4276   22.1417   16.4249 C   0  0  0  0  0  0
   26.0661   20.8860   18.2894 N   0  0  0  0  0  0
   27.3645   21.2396   18.2591 C   0  0  0  0  0  0
   27.6283   22.0175   17.1051 C   0  0  0  0  0  0
   19.4952   21.0209   16.8050 S   0  0  0  0  0  0
   18.9300   22.2768   16.3444 O   0  0  0  0  0  0
   18.9846   20.3770   18.0024 O   0  0  0  0  0  0
   19.3387   19.9149   15.5567 N   0  0  0  0  0  0
   29.1385   22.6312   16.5973 Cl  0  0  0  0  0  0
   25.6026   24.5333   11.0037 Cl  0  0  0  0  0  0
   28.2674   20.7820   19.3342 C   0  0  0  0  0  0
   27.8956   20.0699   20.2716 O   0  0  0  0  0  0
   29.5714   21.1801   19.2739 N   0  0  0  0  0  0
   21.4555   19.5710   18.3462 H   0  0  0  0  0  0
   23.8904   19.7613   18.5065 H   0  0  0  0  0  0
   23.7750   23.0898   15.7151 H   0  0  0  0  0  0
   21.3716   22.8529   15.5447 H   0  0  0  0  0  0
   26.8026   24.7305   15.6971 H   0  0  0  0  0  0
   26.4668   25.7078   13.4619 H   0  0  0  0  0  0
   25.2580   21.8577   11.9477 H   0  0  0  0  0  0
   25.5957   20.8672   14.1760 H   0  0  0  0  0  0
   18.8405   20.3233   14.7617 H   0  0  0  0  0  0
   18.8854   19.0563   15.8799 H   0  0  0  0  0  0
   30.2235   20.8910   19.9916 H   0  0  0  0  0  0
   29.9366   21.7635   18.5307 H   0  0  0  0  0  0
  1  2  2  0  0  0
  1  6  1  0  0  0
  1 18  1  0  0  0
  2  3  1  0  0  0
  2 27  1  0  0  0
  3  4  2  0  0  0
  3 28  1  0  0  0
  4  5  1  0  0  0
  4  7  1  0  0  0
  5  6  2  0  0  0
  5 29  1  0  0  0
  6 30  1  0  0  0
  7 14  1  0  0  0
  7 15  1  0  0  0
  8  9  2  0  0  0
  8 13  1  0  0  0
  8 14  1  0  0  0
  9 10  1  0  0  0
  9 31  1  0  0  0
 10 11  2  0  0  0
 10 32  1  0  0  0
 11 12  1  0  0  0
 11 23  1  0  0  0
 12 13  2  0  0  0
 12 33  1  0  0  0
 13 34  1  0  0  0
 14 17  2  0  0  0
 15 16  2  0  0  0
 16 17  1  0  0  0
 16 24  1  0  0  0
 17 22  1  0  0  0
 18 19  2  0  0  0
 18 20  2  0  0  0
 18 21  1  0  0  0
 21 35  1  0  0  0
 21 36  1  0  0  0
 24 25  2  0  0  0
 24 26  1  0  0  0
 26 37  1  0  0  0
 26 38  1  0  0  0
M  END
>  <Name>
8-20g

>  <Family>
E.1

>  <IC50_uM>
1.090000

>  <set>
1

$$$$
8-21a
  Cerius2 12120216093D 1   1.00000                          
 Structure written by MMmdl.
 34 36  0  0  0  0  0  0  0  0999 V2000
   21.2497   21.1840   16.9407 C   0  0  0  0  0  0
   21.9673   20.3230   17.7695 C   0  0  0  0  0  0
   23.3591   20.4448   17.8531 C   0  0  0  0  0  0
   24.0490   21.4146   17.0986 C   0  0  0  0  0  0
   23.3089   22.2782   16.2803 C   0  0  0  0  0  0
   21.9153   22.1589   16.1948 C   0  0  0  0  0  0
   25.4759   21.5017   17.2223 N   0  0  0  0  0  0
   26.2120   22.7320   15.0999 C   0  0  0  0  0  0
   26.4666   24.0927   14.8828 C   0  0  0  0  0  0
   26.2786   24.6522   13.6172 C   0  0  0  0  0  0
   25.8438   23.8555   12.5592 C   0  0  0  0  0  0
   25.6008   22.4979   12.7629 C   0  0  0  0  0  0
   25.7879   21.9357   14.0275 C   0  0  0  0  0  0
   26.4285   22.1413   16.4192 C   0  0  0  0  0  0
   26.0702   20.8914   18.3020 N   0  0  0  0  0  0
   27.3514   21.2498   18.2313 C   0  0  0  0  0  0
   27.6280   22.0173   17.0973 C   0  0  0  0  0  0
   19.4906   21.0294   16.7984 S   0  0  0  0  0  0
   18.9306   22.2833   16.3255 O   0  0  0  0  0  0
   18.9743   20.3977   17.9996 O   0  0  0  0  0  0
   19.3332   19.9270   15.5469 N   0  0  0  0  0  0
   29.1655   22.5912   16.6584 Cl  0  0  0  0  0  0
   21.4617   19.5588   18.3558 H   0  0  0  0  0  0
   23.8926   19.7561   18.5082 H   0  0  0  0  0  0
   23.7651   23.0847   15.7171 H   0  0  0  0  0  0
   21.3580   22.8409   15.5548 H   0  0  0  0  0  0
   26.8080   24.7292   15.6978 H   0  0  0  0  0  0
   26.4731   25.7112   13.4571 H   0  0  0  0  0  0
   25.6975   24.2926   11.5729 H   0  0  0  0  0  0
   25.2672   21.8746   11.9351 H   0  0  0  0  0  0
   25.6003   20.8721   14.1661 H   0  0  0  0  0  0
   28.0385   20.9193   19.0010 H   0  0  0  0  0  0
   18.8479   20.3440   14.7483 H   0  0  0  0  0  0
   18.8651   19.0739   15.8636 H   0  0  0  0  0  0
  1  2  2  0  0  0
  1  6  1  0  0  0
  1 18  1  0  0  0
  2  3  1  0  0  0
  2 23  1  0  0  0
  3  4  2  0  0  0
  3 24  1  0  0  0
  4  5  1  0  0  0
  4  7  1  0  0  0
  5  6  2  0  0  0
  5 25  1  0  0  0
  6 26  1  0  0  0
  7 14  1  0  0  0
  7 15  1  0  0  0
  8  9  2  0  0  0
  8 13  1  0  0  0
  8 14  1  0  0  0
  9 10  1  0  0  0
  9 27  1  0  0  0
 10 11  2  0  0  0
 10 28  1  0  0  0
 11 12  1  0  0  0
 11 29  1  0  0  0
 12 13  2  0  0  0
 12 30  1  0  0  0
 13 31  1  0  0  0
 14 17  2  0  0  0
 15 16  2  0  0  0
 16 17  1  0  0  0
 16 32  1  0  0  0
 17 22  1  0  0  0
 18 19  2  0  0  0
 18 20  2  0  0  0
 18 21  1  0  0  0
 21 33  1  0  0  0
 21 34  1  0  0  0
M  END
>  <Name>
8-21a

>  <Family>
E.1

>  <IC50_uM>
0.049000

>  <set>
0

$$$$
8-21b
  Cerius2 12120216093D 1   1.00000                          
 Structure written by MMmdl.
 34 36  0  0  0  0  0  0  0  0999 V2000
   21.2493   21.1815   16.9409 C   0  0  0  0  0  0
   21.9682   20.3215   17.7697 C   0  0  0  0  0  0
   23.3598   20.4455   17.8533 C   0  0  0  0  0  0
   24.0484   21.4168   17.0994 C   0  0  0  0  0  0
   23.3069   22.2787   16.2806 C   0  0  0  0  0  0
   21.9136   22.1569   16.1947 C   0  0  0  0  0  0
   25.4751   21.5054   17.2232 N   0  0  0  0  0  0
   26.2136   22.7335   15.0986 C   0  0  0  0  0  0
   26.4680   24.0949   14.8832 C   0  0  0  0  0  0
   26.2821   24.6563   13.6167 C   0  0  0  0  0  0
   25.8495   23.8561   12.5611 C   0  0  0  0  0  0
   25.6042   22.4988   12.7596 C   0  0  0  0  0  0
   25.7903   21.9368   14.0258 C   0  0  0  0  0  0
   26.4289   22.1418   16.4163 C   0  0  0  0  0  0
   26.0709   20.8980   18.3057 N   0  0  0  0  0  0
   27.3553   21.2450   18.2314 C   0  0  0  0  0  0
   27.6218   22.0043   17.0959 C   0  0  0  0  0  0
   19.4903   21.0264   16.8006 S   0  0  0  0  0  0
   18.9288   22.2800   16.3294 O   0  0  0  0  0  0
   18.9759   20.3933   18.0022 O   0  0  0  0  0  0
   19.3330   19.9245   15.5487 N   0  0  0  0  0  0
   29.3295   22.6099   16.6163 Br  0  0  0  0  0  0
   25.6206   24.5476   11.0015 Cl  0  0  0  0  0  0
   21.4636   19.5568   18.3561 H   0  0  0  0  0  0
   23.8939   19.7574   18.5082 H   0  0  0  0  0  0
   23.7610   23.0856   15.7171 H   0  0  0  0  0  0
   21.3554   22.8378   15.5545 H   0  0  0  0  0  0
   26.8072   24.7309   15.6994 H   0  0  0  0  0  0
   26.4778   25.7152   13.4654 H   0  0  0  0  0  0
   25.2709   21.8698   11.9376 H   0  0  0  0  0  0
   25.6027   20.8732   14.1649 H   0  0  0  0  0  0
   28.0414   20.9101   19.0002 H   0  0  0  0  0  0
   18.8478   20.3414   14.7500 H   0  0  0  0  0  0
   18.8661   19.0707   15.8649 H   0  0  0  0  0  0
  1  2  2  0  0  0
  1  6  1  0  0  0
  1 18  1  0  0  0
  2  3  1  0  0  0
  2 24  1  0  0  0
  3  4  2  0  0  0
  3 25  1  0  0  0
  4  5  1  0  0  0
  4  7  1  0  0  0
  5  6  2  0  0  0
  5 26  1  0  0  0
  6 27  1  0  0  0
  7 14  1  0  0  0
  7 15  1  0  0  0
  8  9  2  0  0  0
  8 13  1  0  0  0
  8 14  1  0  0  0
  9 10  1  0  0  0
  9 28  1  0  0  0
 10 11  2  0  0  0
 10 29  1  0  0  0
 11 12  1  0  0  0
 11 23  1  0  0  0
 12 13  2  0  0  0
 12 30  1  0  0  0
 13 31  1  0  0  0
 14 17  2  0  0  0
 15 16  2  0  0  0
 16 17  1  0  0  0
 16 32  1  0  0  0
 17 22  1  0  0  0
 18 19  2  0  0  0
 18 20  2  0  0  0
 18 21  1  0  0  0
 21 33  1  0  0  0
 21 34  1  0  0  0
M  END
>  <Name>
8-21b

>  <Family>
E.1

>  <IC50_uM>
0.031000

>  <set>
1

$$$$
8-22a
  Cerius2 12120216093D 1   1.00000                          
 Structure written by MMmdl.
 34 36  0  0  0  0  0  0  0  0999 V2000
   21.2470   21.1851   16.9483 C   0  0  0  0  0  0
   21.9634   20.3200   17.7748 C   0  0  0  0  0  0
   23.3557   20.4358   17.8554 C   0  0  0  0  0  0
   24.0449   21.4030   17.0984 C   0  0  0  0  0  0
   23.3075   22.2723   16.2830 C   0  0  0  0  0  0
   21.9138   22.1586   16.2011 C   0  0  0  0  0  0
   25.4699   21.4898   17.2167 N   0  0  0  0  0  0
   26.2125   22.7316   15.0982 C   0  0  0  0  0  0
   26.4702   24.0935   14.8816 C   0  0  0  0  0  0
   26.2985   24.6503   13.6121 C   0  0  0  0  0  0
   25.8808   23.8439   12.5601 C   0  0  0  0  0  0
   25.6352   22.4896   12.7513 C   0  0  0  0  0  0
   25.8064   21.9307   14.0198 C   0  0  0  0  0  0
   26.4158   22.1468   16.4218 C   0  0  0  0  0  0
   26.0780   20.8717   18.2819 N   0  0  0  0  0  0
   27.3493   21.2635   18.2281 C   0  0  0  0  0  0
   27.6137   22.0576   17.1103 C   0  0  0  0  0  0
   19.4866   21.0375   16.8117 S   0  0  0  0  0  0
   18.9302   22.2942   16.3421 O   0  0  0  0  0  0
   18.9712   20.4061   18.0135 O   0  0  0  0  0  0
   19.3214   19.9371   15.5594 N   0  0  0  0  0  0
   25.7175   24.3789   11.3427 F   0  0  0  0  0  0
   21.4558   19.5576   18.3616 H   0  0  0  0  0  0
   23.8905   19.7459   18.5077 H   0  0  0  0  0  0
   23.7702   23.0790   15.7243 H   0  0  0  0  0  0
   21.3572   22.8438   15.5644 H   0  0  0  0  0  0
   26.7994   24.7317   15.7001 H   0  0  0  0  0  0
   26.4908   25.7060   13.4430 H   0  0  0  0  0  0
   25.3157   21.8727   11.9162 H   0  0  0  0  0  0
   25.6217   20.8665   14.1574 H   0  0  0  0  0  0
   28.0416   20.9371   18.9959 H   0  0  0  0  0  0
   28.5684   22.4659   16.8048 H   0  0  0  0  0  0
   18.8349   20.3574   14.7634 H   0  0  0  0  0  0
   18.8514   19.0848   15.8758 H   0  0  0  0  0  0
  1  2  2  0  0  0
  1  6  1  0  0  0
  1 18  1  0  0  0
  2  3  1  0  0  0
  2 23  1  0  0  0
  3  4  2  0  0  0
  3 24  1  0  0  0
  4  5  1  0  0  0
  4  7  1  0  0  0
  5  6  2  0  0  0
  5 25  1  0  0  0
  6 26  1  0  0  0
  7 14  1  0  0  0
  7 15  1  0  0  0
  8  9  2  0  0  0
  8 13  1  0  0  0
  8 14  1  0  0  0
  9 10  1  0  0  0
  9 27  1  0  0  0
 10 11  2  0  0  0
 10 28  1  0  0  0
 11 12  1  0  0  0
 11 22  1  0  0  0
 12 13  2  0  0  0
 12 29  1  0  0  0
 13 30  1  0  0  0
 14 17  2  0  0  0
 15 16  2  0  0  0
 16 17  1  0  0  0
 16 31  1  0  0  0
 17 32  1  0  0  0
 18 19  2  0  0  0
 18 20  2  0  0  0
 18 21  1  0  0  0
 21 33  1  0  0  0
 21 34  1  0  0  0
M  END
>  <Name>
8-22a

>  <Family>
E.1

>  <IC50_uM>
>100

>  <set>
2

$$$$
8-22b
  Cerius2 12120216093D 1   1.00000                          
 Structure written by MMmdl.
 34 36  0  0  0  0  0  0  0  0999 V2000
   21.2483   21.1830   16.9503 C   0  0  0  0  0  0
   21.9661   20.3187   17.7763 C   0  0  0  0  0  0
   23.3585   20.4358   17.8558 C   0  0  0  0  0  0
   24.0467   21.4036   17.0986 C   0  0  0  0  0  0
   23.3079   22.2717   16.2835 C   0  0  0  0  0  0
   21.9141   22.1568   16.2027 C   0  0  0  0  0  0
   25.4725   21.4917   17.2167 N   0  0  0  0  0  0
   26.2151   22.7339   15.0933 C   0  0  0  0  0  0
   26.4731   24.0940   14.8777 C   0  0  0  0  0  0
   26.3026   24.6532   13.6093 C   0  0  0  0  0  0
   25.8843   23.8561   12.5451 C   0  0  0  0  0  0
   25.6407   22.4984   12.7458 C   0  0  0  0  0  0
   25.8102   21.9370   14.0134 C   0  0  0  0  0  0
   26.4148   22.1478   16.4150 C   0  0  0  0  0  0
   26.0777   20.8750   18.2928 N   0  0  0  0  0  0
   27.3519   21.2655   18.2366 C   0  0  0  0  0  0
   27.5952   22.0445   17.1139 C   0  0  0  0  0  0
   19.4881   21.0355   16.8148 S   0  0  0  0  0  0
   18.9427   22.2506   16.2357 O   0  0  0  0  0  0
   18.9617   20.5126   18.0631 O   0  0  0  0  0  0
   19.3231   19.8331   15.6601 N   0  0  0  0  0  0
   28.7514   22.5327   16.7491 F   0  0  0  0  0  0
   21.4598   19.5557   18.3635 H   0  0  0  0  0  0
   23.8932   19.7460   18.5083 H   0  0  0  0  0  0
   23.7683   23.0781   15.7222 H   0  0  0  0  0  0
   21.3565   22.8414   15.5660 H   0  0  0  0  0  0
   26.8028   24.7318   15.6966 H   0  0  0  0  0  0
   26.4984   25.7124   13.4517 H   0  0  0  0  0  0
   25.7523   24.2926   11.5566 H   0  0  0  0  0  0
   25.3209   21.8738   11.9135 H   0  0  0  0  0  0
   25.6237   20.8725   14.1478 H   0  0  0  0  0  0
   28.0486   20.9480   19.0020 H   0  0  0  0  0  0
   18.8450   20.1861   14.8270 H   0  0  0  0  0  0
   18.8453   19.0142   16.0453 H   0  0  0  0  0  0
  1  2  2  0  0  0
  1  6  1  0  0  0
  1 18  1  0  0  0
  2  3  1  0  0  0
  2 23  1  0  0  0
  3  4  2  0  0  0
  3 24  1  0  0  0
  4  5  1  0  0  0
  4  7  1  0  0  0
  5  6  2  0  0  0
  5 25  1  0  0  0
  6 26  1  0  0  0
  7 14  1  0  0  0
  7 15  1  0  0  0
  8  9  2  0  0  0
  8 13  1  0  0  0
  8 14  1  0  0  0
  9 10  1  0  0  0
  9 27  1  0  0  0
 10 11  2  0  0  0
 10 28  1  0  0  0
 11 12  1  0  0  0
 11 29  1  0  0  0
 12 13  2  0  0  0
 12 30  1  0  0  0
 13 31  1  0  0  0
 14 17  2  0  0  0
 15 16  2  0  0  0
 16 17  1  0  0  0
 16 32  1  0  0  0
 17 22  1  0  0  0
 18 19  2  0  0  0
 18 20  2  0  0  0
 18 21  1  0  0  0
 21 33  1  0  0  0
 21 34  1  0  0  0
M  END
>  <Name>
8-22b

>  <Family>
E.1

>  <IC50_uM>
4.660000

>  <set>
0

$$$$
8-22c
  Cerius2 12120216093D 1   1.00000                          
 Structure written by MMmdl.
 37 39  0  0  0  0  0  0  0  0999 V2000
   21.2456   21.1816   16.9412 C   0  0  0  0  0  0
   21.9644   20.3209   17.7693 C   0  0  0  0  0  0
   23.3563   20.4438   17.8521 C   0  0  0  0  0  0
   24.0451   21.4145   17.0976 C   0  0  0  0  0  0
   23.3035   22.2772   16.2793 C   0  0  0  0  0  0
   21.9100   22.1567   16.1945 C   0  0  0  0  0  0
   25.4715   21.5024   17.2212 N   0  0  0  0  0  0
   26.2130   22.7311   15.1014 C   0  0  0  0  0  0
   26.4690   24.0916   14.8863 C   0  0  0  0  0  0
   26.2835   24.6526   13.6208 C   0  0  0  0  0  0
   25.8506   23.8569   12.5611 C   0  0  0  0  0  0
   25.6067   22.4992   12.7630 C   0  0  0  0  0  0
   25.7916   21.9356   14.0274 C   0  0  0  0  0  0
   26.4284   22.1387   16.4210 C   0  0  0  0  0  0
   26.0685   20.8977   18.2985 N   0  0  0  0  0  0
   27.3484   21.2526   18.2307 C   0  0  0  0  0  0
   27.6408   22.0193   17.0925 C   0  0  0  0  0  0
   19.4864   21.0280   16.8026 S   0  0  0  0  0  0
   18.9257   22.2822   16.3314 O   0  0  0  0  0  0
   18.9726   20.3956   18.0046 O   0  0  0  0  0  0
   19.3260   19.9264   15.5507 N   0  0  0  0  0  0
   28.9730   22.5356   16.6858 C   0  0  0  0  0  0
   21.4599   19.5563   18.3558 H   0  0  0  0  0  0
   23.8908   19.7557   18.5067 H   0  0  0  0  0  0
   23.7593   23.0832   15.7152 H   0  0  0  0  0  0
   21.3518   22.8378   15.5547 H   0  0  0  0  0  0
   26.8086   24.7260   15.7034 H   0  0  0  0  0  0
   26.4785   25.7117   13.4622 H   0  0  0  0  0  0
   25.7068   24.2950   11.5748 H   0  0  0  0  0  0
   25.2745   21.8766   11.9341 H   0  0  0  0  0  0
   25.6046   20.8720   14.1661 H   0  0  0  0  0  0
   28.0312   20.9217   19.0060 H   0  0  0  0  0  0
   18.8402   20.3439   14.7527 H   0  0  0  0  0  0
   18.8582   19.0733   15.8675 H   0  0  0  0  0  0
   29.7596   22.1656   17.3514 H   0  0  0  0  0  0
   28.9869   23.6293   16.7227 H   0  0  0  0  0  0
   29.2183   22.2171   15.6676 H   0  0  0  0  0  0
  1  2  2  0  0  0
  1  6  1  0  0  0
  1 18  1  0  0  0
  2  3  1  0  0  0
  2 23  1  0  0  0
  3  4  2  0  0  0
  3 24  1  0  0  0
  4  5  1  0  0  0
  4  7  1  0  0  0
  5  6  2  0  0  0
  5 25  1  0  0  0
  6 26  1  0  0  0
  7 14  1  0  0  0
  7 15  1  0  0  0
  8  9  2  0  0  0
  8 13  1  0  0  0
  8 14  1  0  0  0
  9 10  1  0  0  0
  9 27  1  0  0  0
 10 11  2  0  0  0
 10 28  1  0  0  0
 11 12  1  0  0  0
 11 29  1  0  0  0
 12 13  2  0  0  0
 12 30  1  0  0  0
 13 31  1  0  0  0
 14 17  2  0  0  0
 15 16  2  0  0  0
 16 17  1  0  0  0
 16 32  1  0  0  0
 17 22  1  0  0  0
 18 19  2  0  0  0
 18 20  2  0  0  0
 18 21  1  0  0  0
 21 33  1  0  0  0
 21 34  1  0  0  0
 22 35  1  0  0  0
 22 36  1  0  0  0
 22 37  1  0  0  0
M  END
>  <Name>
8-22c

>  <Family>
E.1

>  <IC50_uM>
47.100000

>  <set>
1

$$$$
8-22d
  Cerius2 12120216093D 1   1.00000                          
 Structure written by MMmdl.
 38 40  0  0  0  0  0  0  0  0999 V2000
   21.2477   21.1797   16.9407 C   0  0  0  0  0  0
   21.9667   20.3204   17.7698 C   0  0  0  0  0  0
   23.3583   20.4447   17.8528 C   0  0  0  0  0  0
   24.0467   21.4166   17.0991 C   0  0  0  0  0  0
   23.3047   22.2782   16.2805 C   0  0  0  0  0  0
   21.9114   22.1556   16.1948 C   0  0  0  0  0  0
   25.4735   21.5050   17.2230 N   0  0  0  0  0  0
   26.2129   22.7325   15.0990 C   0  0  0  0  0  0
   26.4707   24.0915   14.8840 C   0  0  0  0  0  0
   26.2820   24.6545   13.6189 C   0  0  0  0  0  0
   25.8320   23.8682   12.5521 C   0  0  0  0  0  0
   25.6020   22.5036   12.7614 C   0  0  0  0  0  0
   25.7904   21.9390   14.0258 C   0  0  0  0  0  0
   26.4294   22.1387   16.4172 C   0  0  0  0  0  0
   26.0686   20.9015   18.3057 N   0  0  0  0  0  0
   27.3524   21.2484   18.2310 C   0  0  0  0  0  0
   27.6330   22.0067   17.0931 C   0  0  0  0  0  0
   19.4886   21.0270   16.8001 S   0  0  0  0  0  0
   18.9284   22.2814   16.3288 O   0  0  0  0  0  0
   18.9747   20.3941   18.0017 O   0  0  0  0  0  0
   19.3287   19.9267   15.5471 N   0  0  0  0  0  0
   25.6607   24.4670   11.1864 C   0  0  0  0  0  0
   28.9116   22.4940   16.6887 C   0  0  0  0  0  0
   29.9578   22.8893   16.3661 N   0  0  0  0  0  0
   21.4629   19.5552   18.3562 H   0  0  0  0  0  0
   23.8927   19.7567   18.5075 H   0  0  0  0  0  0
   23.7576   23.0849   15.7155 H   0  0  0  0  0  0
   21.3525   22.8358   15.5542 H   0  0  0  0  0  0
   26.8144   24.7273   15.6987 H   0  0  0  0  0  0
   26.4891   25.7142   13.4733 H   0  0  0  0  0  0
   25.2745   21.8678   11.9396 H   0  0  0  0  0  0
   25.6050   20.8745   14.1616 H   0  0  0  0  0  0
   28.0370   20.9163   19.0031 H   0  0  0  0  0  0
   18.8431   20.3450   14.7494 H   0  0  0  0  0  0
   18.8610   19.0731   15.8630 H   0  0  0  0  0  0
   24.8763   23.9461   10.6274 H   0  0  0  0  0  0
   26.5990   24.3983   10.6277 H   0  0  0  0  0  0
   25.3653   25.5192   11.2561 H   0  0  0  0  0  0
  1  2  2  0  0  0
  1  6  1  0  0  0
  1 18  1  0  0  0
  2  3  1  0  0  0
  2 25  1  0  0  0
  3  4  2  0  0  0
  3 26  1  0  0  0
  4  5  1  0  0  0
  4  7  1  0  0  0
  5  6  2  0  0  0
  5 27  1  0  0  0
  6 28  1  0  0  0
  7 14  1  0  0  0
  7 15  1  0  0  0
  8  9  2  0  0  0
  8 13  1  0  0  0
  8 14  1  0  0  0
  9 10  1  0  0  0
  9 29  1  0  0  0
 10 11  2  0  0  0
 10 30  1  0  0  0
 11 12  1  0  0  0
 11 22  1  0  0  0
 12 13  2  0  0  0
 12 31  1  0  0  0
 13 32  1  0  0  0
 14 17  2  0  0  0
 15 16  2  0  0  0
 16 17  1  0  0  0
 16 33  1  0  0  0
 17 23  1  0  0  0
 18 19  2  0  0  0
 18 20  2  0  0  0
 18 21  1  0  0  0
 21 34  1  0  0  0
 21 35  1  0  0  0
 22 36  1  0  0  0
 22 37  1  0  0  0
 22 38  1  0  0  0
 23 24  3  0  0  0
M  END
>  <Name>
8-22d

>  <Family>
E.1

>  <IC50_uM>
0.076000

>  <set>
2

$$$$
8-22e
  Cerius2 12120216093D 1   1.00000                          
 Structure written by MMmdl.
 36 38  0  0  0  0  0  0  0  0999 V2000
   21.2502   21.1800   16.9305 C   0  0  0  0  0  0
   21.9712   20.3249   17.7612 C   0  0  0  0  0  0
   23.3622   20.4561   17.8470 C   0  0  0  0  0  0
   24.0517   21.4304   17.0952 C   0  0  0  0  0  0
   23.3060   22.2842   16.2725 C   0  0  0  0  0  0
   21.9126   22.1559   16.1843 C   0  0  0  0  0  0
   25.4810   21.5188   17.2261 N   0  0  0  0  0  0
   26.2170   22.7268   15.0988 C   0  0  0  0  0  0
   26.4723   24.0892   14.8892 C   0  0  0  0  0  0
   26.2532   24.6610   13.6343 C   0  0  0  0  0  0
   25.7864   23.8757   12.5809 C   0  0  0  0  0  0
   25.5409   22.5175   12.7784 C   0  0  0  0  0  0
   25.7584   21.9421   14.0319 C   0  0  0  0  0  0
   26.4522   22.1236   16.4100 C   0  0  0  0  0  0
   26.0556   20.9364   18.3301 N   0  0  0  0  0  0
   27.3481   21.2426   18.2472 C   0  0  0  0  0  0
   27.6582   21.9604   17.0877 C   0  0  0  0  0  0
   19.4923   21.0174   16.7871 S   0  0  0  0  0  0
   18.9270   22.2680   16.3118 O   0  0  0  0  0  0
   18.9780   20.3849   17.9889 O   0  0  0  0  0  0
   19.3415   19.9122   15.5372 N   0  0  0  0  0  0
   28.9759   22.3830   16.7071 N   0  3  0  0  0  0
   29.1599   22.7902   15.5483 O   0  0  0  0  0  0
   29.8668   22.3035   17.5727 O   0  5  0  0  0  0
   21.4696   19.5583   18.3475 H   0  0  0  0  0  0
   23.8954   19.7698   18.5047 H   0  0  0  0  0  0
   23.7517   23.0898   15.7025 H   0  0  0  0  0  0
   21.3535   22.8326   15.5403 H   0  0  0  0  0  0
   26.8371   24.7164   15.7011 H   0  0  0  0  0  0
   26.4479   25.7206   13.4785 H   0  0  0  0  0  0
   25.6169   24.3228   11.6028 H   0  0  0  0  0  0
   25.1804   21.9043   11.9543 H   0  0  0  0  0  0
   25.5649   20.8792   14.1679 H   0  0  0  0  0  0
   28.0208   20.9106   19.0295 H   0  0  0  0  0  0
   18.8562   20.3252   14.7365 H   0  0  0  0  0  0
   18.8771   19.0572   15.8540 H   0  0  0  0  0  0
  1  2  2  0  0  0
  1  6  1  0  0  0
  1 18  1  0  0  0
  2  3  1  0  0  0
  2 25  1  0  0  0
  3  4  2  0  0  0
  3 26  1  0  0  0
  4  5  1  0  0  0
  4  7  1  0  0  0
  5  6  2  0  0  0
  5 27  1  0  0  0
  6 28  1  0  0  0
  7 14  1  0  0  0
  7 15  1  0  0  0
  8  9  2  0  0  0
  8 13  1  0  0  0
  8 14  1  0  0  0
  9 10  1  0  0  0
  9 29  1  0  0  0
 10 11  2  0  0  0
 10 30  1  0  0  0
 11 12  1  0  0  0
 11 31  1  0  0  0
 12 13  2  0  0  0
 12 32  1  0  0  0
 13 33  1  0  0  0
 14 17  2  0  0  0
 15 16  2  0  0  0
 16 17  1  0  0  0
 16 34  1  0  0  0
 17 22  1  0  0  0
 18 19  2  0  0  0
 18 20  2  0  0  0
 18 21  1  0  0  0
 21 35  1  0  0  0
 21 36  1  0  0  0
 22 23  2  0  0  0
 22 24  1  0  0  0
M  CHG  2  22   1  24  -1
M  END
>  <Name>
8-22e

>  <Family>
E.1

>  <IC50_uM>
0.290000

>  <set>
2

$$$$
8-22f
  Cerius2 12120216093D 1   1.00000                          
 Structure written by MMmdl.
 40 42  0  0  0  0  0  0  0  0999 V2000
   21.2669   21.0571   16.8537 C   0  0  0  0  0  0
   22.0024   20.2395   17.7098 C   0  0  0  0  0  0
   23.3811   20.4409   17.8435 C   0  0  0  0  0  0
   24.0427   21.4571   17.1241 C   0  0  0  0  0  0
   23.2855   22.2597   16.2605 C   0  0  0  0  0  0
   21.9024   22.0630   16.1270 C   0  0  0  0  0  0
   25.4660   21.5918   17.2648 N   0  0  0  0  0  0
   26.2127   22.7100   15.0904 C   0  0  0  0  0  0
   26.4903   24.0778   14.9547 C   0  0  0  0  0  0
   26.2955   24.7170   13.7274 C   0  0  0  0  0  0
   25.8276   23.9911   12.6334 C   0  0  0  0  0  0
   25.5564   22.6294   12.7557 C   0  0  0  0  0  0
   25.7502   21.9895   13.9819 C   0  0  0  0  0  0
   26.4479   22.0376   16.3651 C   0  0  0  0  0  0
   26.0365   21.2014   18.4522 N   0  0  0  0  0  0
   27.3504   21.2443   18.2341 C   0  0  0  0  0  0
   27.6632   21.7458   16.9701 C   0  0  0  0  0  0
   19.5306   20.7744   16.6638 S   0  0  0  0  0  0
   18.9086   21.9912   16.1716 O   0  0  0  0  0  0
   19.0126   20.1043   17.8437 O   0  0  0  0  0  0
   19.4936   19.6512   15.4214 N   0  0  0  0  0  0
   25.5773   24.7797   11.1243 Cl  0  0  0  0  0  0
   29.2638   21.9568   16.3832 S   0  0  0  0  0  0
   29.3457   21.1008   15.2085 O   0  0  0  0  0  0
   30.1250   21.6984   17.5311 O   0  0  0  0  0  0
   29.4111   23.6579   15.9186 C   0  0  0  0  0  0
   21.5158   19.4470   18.2730 H   0  0  0  0  0  0
   23.9245   19.7850   18.5227 H   0  0  0  0  0  0
   23.7219   23.0295   15.6375 H   0  0  0  0  0  0
   21.3389   22.6969   15.4439 H   0  0  0  0  0  0
   26.8654   24.6552   15.7982 H   0  0  0  0  0  0
   26.5112   25.7788   13.6355 H   0  0  0  0  0  0
   25.1954   22.0576   11.9050 H   0  0  0  0  0  0
   25.5339   20.9256   14.0625 H   0  0  0  0  0  0
   28.0253   20.9217   19.0189 H   0  0  0  0  0  0
   19.0048   20.0189   14.6009 H   0  0  0  0  0  0
   19.0867   18.7666   15.7372 H   0  0  0  0  0  0
   30.4649   23.8524   15.7088 H   0  0  0  0  0  0
   29.0795   24.2859   16.7461 H   0  0  0  0  0  0
   28.8258   23.8490   15.0212 H   0  0  0  0  0  0
  1  2  2  0  0  0
  1  6  1  0  0  0
  1 18  1  0  0  0
  2  3  1  0  0  0
  2 27  1  0  0  0
  3  4  2  0  0  0
  3 28  1  0  0  0
  4  5  1  0  0  0
  4  7  1  0  0  0
  5  6  2  0  0  0
  5 29  1  0  0  0
  6 30  1  0  0  0
  7 14  1  0  0  0
  7 15  1  0  0  0
  8  9  2  0  0  0
  8 13  1  0  0  0
  8 14  1  0  0  0
  9 10  1  0  0  0
  9 31  1  0  0  0
 10 11  2  0  0  0
 10 32  1  0  0  0
 11 12  1  0  0  0
 11 22  1  0  0  0
 12 13  2  0  0  0
 12 33  1  0  0  0
 13 34  1  0  0  0
 14 17  2  0  0  0
 15 16  2  0  0  0
 16 17  1  0  0  0
 16 35  1  0  0  0
 17 23  1  0  0  0
 18 19  2  0  0  0
 18 20  2  0  0  0
 18 21  1  0  0  0
 21 36  1  0  0  0
 21 37  1  0  0  0
 23 24  2  0  0  0
 23 25  2  0  0  0
 23 26  1  0  0  0
 26 38  1  0  0  0
 26 39  1  0  0  0
 26 40  1  0  0  0
M  END
>  <Name>
8-22f

>  <Family>
E.1

>  <IC50_uM>
19.800000

>  <set>
2

$$$$
8-23
  Cerius2 12120216093D 1   1.00000                          
 Structure written by MMmdl.
 36 38  0  0  0  0  0  0  0  0999 V2000
   21.2537   21.1869   16.9355 C   0  0  0  0  0  0
   21.9693   20.3242   17.7647 C   0  0  0  0  0  0
   23.3611   20.4434   17.8500 C   0  0  0  0  0  0
   24.0532   21.4124   17.0962 C   0  0  0  0  0  0
   23.3151   22.2778   16.2775 C   0  0  0  0  0  0
   21.9216   22.1606   16.1904 C   0  0  0  0  0  0
   25.4804   21.4979   17.2217 N   0  0  0  0  0  0
   26.2133   22.7302   15.0995 C   0  0  0  0  0  0
   26.4675   24.0903   14.8772 C   0  0  0  0  0  0
   26.2623   24.6501   13.6140 C   0  0  0  0  0  0
   25.8106   23.8538   12.5625 C   0  0  0  0  0  0
   25.5691   22.4966   12.7701 C   0  0  0  0  0  0
   25.7741   21.9345   14.0321 C   0  0  0  0  0  0
   26.4356   22.1413   16.4211 C   0  0  0  0  0  0
   26.0720   20.8852   18.3023 N   0  0  0  0  0  0
   27.3508   21.2539   18.2444 C   0  0  0  0  0  0
   27.6272   22.0233   17.1104 C   0  0  0  0  0  0
   19.4942   21.0380   16.7943 S   0  0  0  0  0  0
   18.9377   22.2940   16.3229 O   0  0  0  0  0  0
   18.9772   20.4064   17.9951 O   0  0  0  0  0  0
   19.3335   19.9373   15.5412 N   0  0  0  0  0  0
   28.8220   22.5094   16.7401 N   0  0  0  0  0  0
   21.4614   19.5609   18.3503 H   0  0  0  0  0  0
   23.8930   19.7541   18.5053 H   0  0  0  0  0  0
   23.7739   23.0844   15.7169 H   0  0  0  0  0  0
   21.3662   22.8438   15.5505 H   0  0  0  0  0  0
   26.8223   24.7243   15.6884 H   0  0  0  0  0  0
   26.4565   25.7086   13.4509 H   0  0  0  0  0  0
   25.6508   24.2910   11.5784 H   0  0  0  0  0  0
   25.2224   21.8735   11.9477 H   0  0  0  0  0  0
   25.5871   20.8713   14.1748 H   0  0  0  0  0  0
   28.0343   20.9290   19.0201 H   0  0  0  0  0  0
   18.8526   20.3575   14.7416 H   0  0  0  0  0  0
   18.8607   19.0859   15.8557 H   0  0  0  0  0  0
   29.6801   22.3803   17.2778 H   0  0  0  0  0  0
   28.9729   23.0430   15.8839 H   0  0  0  0  0  0
  1  2  2  0  0  0
  1  6  1  0  0  0
  1 18  1  0  0  0
  2  3  1  0  0  0
  2 23  1  0  0  0
  3  4  2  0  0  0
  3 24  1  0  0  0
  4  5  1  0  0  0
  4  7  1  0  0  0
  5  6  2  0  0  0
  5 25  1  0  0  0
  6 26  1  0  0  0
  7 14  1  0  0  0
  7 15  1  0  0  0
  8  9  2  0  0  0
  8 13  1  0  0  0
  8 14  1  0  0  0
  9 10  1  0  0  0
  9 27  1  0  0  0
 10 11  2  0  0  0
 10 28  1  0  0  0
 11 12  1  0  0  0
 11 29  1  0  0  0
 12 13  2  0  0  0
 12 30  1  0  0  0
 13 31  1  0  0  0
 14 17  2  0  0  0
 15 16  2  0  0  0
 16 17  1  0  0  0
 16 32  1  0  0  0
 17 22  1  0  0  0
 18 19  2  0  0  0
 18 20  2  0  0  0
 18 21  1  0  0  0
 21 33  1  0  0  0
 21 34  1  0  0  0
 22 35  1  0  0  0
 22 36  1  0  0  0
M  END
>  <Name>
8-23

>  <Family>
E.1

>  <IC50_uM>
29.700000

>  <set>
1

$$$$
8-24
  Cerius2 12120216093D 1   1.00000                          
 Structure written by MMmdl.
 37 39  0  0  0  0  0  0  0  0999 V2000
   21.2499   21.1819   16.9486 C   0  0  0  0  0  0
   21.9674   20.3184   17.7755 C   0  0  0  0  0  0
   23.3597   20.4361   17.8556 C   0  0  0  0  0  0
   24.0481   21.4044   17.0989 C   0  0  0  0  0  0
   23.3092   22.2726   16.2841 C   0  0  0  0  0  0
   21.9155   22.1565   16.2018 C   0  0  0  0  0  0
   25.4741   21.4926   17.2169 N   0  0  0  0  0  0
   26.2149   22.7318   15.0936 C   0  0  0  0  0  0
   26.4736   24.0922   14.8788 C   0  0  0  0  0  0
   26.3001   24.6528   13.6114 C   0  0  0  0  0  0
   25.8780   23.8570   12.5477 C   0  0  0  0  0  0
   25.6342   22.4993   12.7475 C   0  0  0  0  0  0
   25.8072   21.9362   14.0139 C   0  0  0  0  0  0
   26.4148   22.1456   16.4154 C   0  0  0  0  0  0
   26.0772   20.8764   18.2909 N   0  0  0  0  0  0
   27.3658   21.2690   18.2512 C   0  0  0  0  0  0
   27.5946   22.0455   17.1149 C   0  0  0  0  0  0
   19.4895   21.0372   16.8134 S   0  0  0  0  0  0
   18.9335   22.2949   16.3459 O   0  0  0  0  0  0
   18.9766   20.4044   18.0154 O   0  0  0  0  0  0
   19.3207   19.9397   15.5590 N   0  0  0  0  0  0
   28.3938   20.8831   19.2636 C   0  0  0  0  0  0
   29.0873   21.9597   19.7402 F   0  0  0  0  0  0
   29.3264   20.0239   18.7550 F   0  0  0  0  0  0
   27.8654   20.2611   20.3603 F   0  0  0  0  0  0
   28.7462   22.5400   16.7409 F   0  0  0  0  0  0
   21.4613   19.5554   18.3627 H   0  0  0  0  0  0
   23.8942   19.7463   18.5082 H   0  0  0  0  0  0
   23.7688   23.0795   15.7233 H   0  0  0  0  0  0
   21.3578   22.8404   15.5644 H   0  0  0  0  0  0
   26.8055   24.7291   15.6976 H   0  0  0  0  0  0
   26.4959   25.7120   13.4544 H   0  0  0  0  0  0
   25.7432   24.2950   11.5601 H   0  0  0  0  0  0
   25.3112   21.8762   11.9154 H   0  0  0  0  0  0
   25.6196   20.8717   14.1476 H   0  0  0  0  0  0
   18.8356   20.3617   14.7630 H   0  0  0  0  0  0
   18.8490   19.0884   15.8748 H   0  0  0  0  0  0
  1  2  2  0  0  0
  1  6  1  0  0  0
  1 18  1  0  0  0
  2  3  1  0  0  0
  2 27  1  0  0  0
  3  4  2  0  0  0
  3 28  1  0  0  0
  4  5  1  0  0  0
  4  7  1  0  0  0
  5  6  2  0  0  0
  5 29  1  0  0  0
  6 30  1  0  0  0
  7 14  1  0  0  0
  7 15  1  0  0  0
  8  9  2  0  0  0
  8 13  1  0  0  0
  8 14  1  0  0  0
  9 10  1  0  0  0
  9 31  1  0  0  0
 10 11  2  0  0  0
 10 32  1  0  0  0
 11 12  1  0  0  0
 11 33  1  0  0  0
 12 13  2  0  0  0
 12 34  1  0  0  0
 13 35  1  0  0  0
 14 17  2  0  0  0
 15 16  2  0  0  0
 16 17  1  0  0  0
 16 22  1  0  0  0
 17 26  1  0  0  0
 18 19  2  0  0  0
 18 20  2  0  0  0
 18 21  1  0  0  0
 21 36  1  0  0  0
 21 37  1  0  0  0
 22 23  1  0  0  0
 22 24  1  0  0  0
 22 25  1  0  0  0
M  END
>  <Name>
8-24

>  <Family>
E.1

>  <IC50_uM>
0.001700

>  <set>
1

$$$$
8-25a
  Cerius2 12120216093D 1   1.00000                          
 Structure written by MMmdl.
 40 42  0  0  0  0  0  0  0  0999 V2000
   21.2497   21.1831   16.9385 C   0  0  0  0  0  0
   21.9670   20.3229   17.7682 C   0  0  0  0  0  0
   23.3586   20.4456   17.8530 C   0  0  0  0  0  0
   24.0484   21.4158   17.0987 C   0  0  0  0  0  0
   23.3086   22.2793   16.2800 C   0  0  0  0  0  0
   21.9152   22.1587   16.1933 C   0  0  0  0  0  0
   25.4748   21.5028   17.2227 N   0  0  0  0  0  0
   26.2079   22.7295   15.1040 C   0  0  0  0  0  0
   26.4631   24.0905   14.8877 C   0  0  0  0  0  0
   26.2768   24.6513   13.6211 C   0  0  0  0  0  0
   25.8437   23.8508   12.5659 C   0  0  0  0  0  0
   25.5988   22.4935   12.7652 C   0  0  0  0  0  0
   25.7855   21.9321   14.0314 C   0  0  0  0  0  0
   26.4276   22.1383   16.4237 C   0  0  0  0  0  0
   26.0678   20.8946   18.2947 N   0  0  0  0  0  0
   27.3632   21.2509   18.2543 C   0  0  0  0  0  0
   27.6417   22.0212   17.0927 C   0  0  0  0  0  0
   19.4907   21.0304   16.7963 S   0  0  0  0  0  0
   18.9315   22.2850   16.3245 O   0  0  0  0  0  0
   18.9748   20.3977   17.9971 O   0  0  0  0  0  0
   19.3323   19.9298   15.5434 N   0  0  0  0  0  0
   28.9652   22.5539   16.6626 C   0  0  0  0  0  0
   25.6145   24.5417   11.0061 Cl  0  0  0  0  0  0
   28.3515   20.8252   19.3137 C   0  0  0  0  0  0
   29.0537   21.8816   19.8193 F   0  0  0  0  0  0
   29.2778   19.9463   18.8300 F   0  0  0  0  0  0
   27.7670   20.2113   20.3851 F   0  0  0  0  0  0
   21.4615   19.5584   18.3542 H   0  0  0  0  0  0
   23.8922   19.7573   18.5080 H   0  0  0  0  0  0
   23.7649   23.0869   15.7192 H   0  0  0  0  0  0
   21.3578   22.8404   15.5532 H   0  0  0  0  0  0
   26.8030   24.7262   15.7039 H   0  0  0  0  0  0
   26.4731   25.7101   13.4693 H   0  0  0  0  0  0
   25.2661   21.8639   11.9433 H   0  0  0  0  0  0
   25.5992   20.8685   14.1713 H   0  0  0  0  0  0
   18.8475   20.3474   14.7449 H   0  0  0  0  0  0
   18.8646   19.0760   15.8590 H   0  0  0  0  0  0
   29.0123   23.6335   16.8368 H   0  0  0  0  0  0
   29.1353   22.3647   15.5978 H   0  0  0  0  0  0
   29.7856   22.0852   17.2143 H   0  0  0  0  0  0
  1  2  2  0  0  0
  1  6  1  0  0  0
  1 18  1  0  0  0
  2  3  1  0  0  0
  2 28  1  0  0  0
  3  4  2  0  0  0
  3 29  1  0  0  0
  4  5  1  0  0  0
  4  7  1  0  0  0
  5  6  2  0  0  0
  5 30  1  0  0  0
  6 31  1  0  0  0
  7 14  1  0  0  0
  7 15  1  0  0  0
  8  9  2  0  0  0
  8 13  1  0  0  0
  8 14  1  0  0  0
  9 10  1  0  0  0
  9 32  1  0  0  0
 10 11  2  0  0  0
 10 33  1  0  0  0
 11 12  1  0  0  0
 11 23  1  0  0  0
 12 13  2  0  0  0
 12 34  1  0  0  0
 13 35  1  0  0  0
 14 17  2  0  0  0
 15 16  2  0  0  0
 16 17  1  0  0  0
 16 24  1  0  0  0
 17 22  1  0  0  0
 18 19  2  0  0  0
 18 20  2  0  0  0
 18 21  1  0  0  0
 21 36  1  0  0  0
 21 37  1  0  0  0
 22 38  1  0  0  0
 22 39  1  0  0  0
 22 40  1  0  0  0
 24 25  1  0  0  0
 24 26  1  0  0  0
 24 27  1  0  0  0
M  END
>  <Name>
8-25a

>  <Family>
E.1

>  <IC50_uM>
0.022000

>  <set>
1

$$$$
8-25b
  Cerius2 12120216093D 1   1.00000                          
 Structure written by MMmdl.
 43 45  0  0  0  0  0  0  0  0999 V2000
   21.2491   21.1841   16.9372 C   0  0  0  0  0  0
   21.9672   20.3247   17.7670 C   0  0  0  0  0  0
   23.3586   20.4493   17.8523 C   0  0  0  0  0  0
   24.0485   21.4203   17.0985 C   0  0  0  0  0  0
   23.3074   22.2815   16.2787 C   0  0  0  0  0  0
   21.9141   22.1594   16.1916 C   0  0  0  0  0  0
   25.4756   21.5074   17.2239 N   0  0  0  0  0  0
   26.2085   22.7314   15.1061 C   0  0  0  0  0  0
   26.4613   24.0924   14.8877 C   0  0  0  0  0  0
   26.2717   24.6511   13.6208 C   0  0  0  0  0  0
   25.8366   23.8487   12.5678 C   0  0  0  0  0  0
   25.5924   22.4917   12.7696 C   0  0  0  0  0  0
   25.7821   21.9323   14.0362 C   0  0  0  0  0  0
   26.4312   22.1395   16.4248 C   0  0  0  0  0  0
   26.0653   20.8982   18.2966 N   0  0  0  0  0  0
   27.3655   21.2328   18.2472 C   0  0  0  0  0  0
   27.6483   22.0078   17.0879 C   0  0  0  0  0  0
   19.4908   21.0254   16.7934 S   0  0  0  0  0  0
   18.9284   22.2779   16.3196 O   0  0  0  0  0  0
   18.9742   20.3930   17.9942 O   0  0  0  0  0  0
   19.3380   19.9215   15.5427 N   0  0  0  0  0  0
   25.6039   24.5370   11.0073 Cl  0  0  0  0  0  0
   28.3526   20.7917   19.3017 C   0  0  0  0  0  0
   28.8481   21.8458   20.0142 F   0  0  0  0  0  0
   29.4323   20.1520   18.7644 F   0  0  0  0  0  0
   27.8188   19.9306   20.2180 F   0  0  0  0  0  0
   29.6774   21.6088   15.6570 C   0  0  0  0  0  0
   28.9904   22.5234   16.6604 C   0  0  0  0  0  0
   21.4623   19.5596   18.3526 H   0  0  0  0  0  0
   23.8920   19.7614   18.5078 H   0  0  0  0  0  0
   23.7619   23.0881   15.7150 H   0  0  0  0  0  0
   21.3568   22.8398   15.5502 H   0  0  0  0  0  0
   26.8029   24.7288   15.7025 H   0  0  0  0  0  0
   26.4673   25.7097   13.4669 H   0  0  0  0  0  0
   25.2579   21.8606   11.9494 H   0  0  0  0  0  0
   25.5966   20.8689   14.1788 H   0  0  0  0  0  0
   18.8518   20.3358   14.7432 H   0  0  0  0  0  0
   18.8736   19.0666   15.8598 H   0  0  0  0  0  0
   30.6611   22.0090   15.3920 H   0  0  0  0  0  0
   29.0925   21.5137   14.7365 H   0  0  0  0  0  0
   29.8184   20.6042   16.0693 H   0  0  0  0  0  0
   29.6372   22.6396   17.5380 H   0  0  0  0  0  0
   28.8869   23.5251   16.2287 H   0  0  0  0  0  0
  1  2  2  0  0  0
  1  6  1  0  0  0
  1 18  1  0  0  0
  2  3  1  0  0  0
  2 29  1  0  0  0
  3  4  2  0  0  0
  3 30  1  0  0  0
  4  5  1  0  0  0
  4  7  1  0  0  0
  5  6  2  0  0  0
  5 31  1  0  0  0
  6 32  1  0  0  0
  7 14  1  0  0  0
  7 15  1  0  0  0
  8  9  2  0  0  0
  8 13  1  0  0  0
  8 14  1  0  0  0
  9 10  1  0  0  0
  9 33  1  0  0  0
 10 11  2  0  0  0
 10 34  1  0  0  0
 11 12  1  0  0  0
 11 22  1  0  0  0
 12 13  2  0  0  0
 12 35  1  0  0  0
 13 36  1  0  0  0
 14 17  2  0  0  0
 15 16  2  0  0  0
 16 17  1  0  0  0
 16 23  1  0  0  0
 17 28  1  0  0  0
 18 19  2  0  0  0
 18 20  2  0  0  0
 18 21  1  0  0  0
 21 37  1  0  0  0
 21 38  1  0  0  0
 23 24  1  0  0  0
 23 25  1  0  0  0
 23 26  1  0  0  0
 27 28  1  0  0  0
 27 39  1  0  0  0
 27 40  1  0  0  0
 27 41  1  0  0  0
 28 42  1  0  0  0
 28 43  1  0  0  0
M  END
>  <Name>
8-25b

>  <Family>
E.1

>  <IC50_uM>
0.028000

>  <set>
0

$$$$
8-25c
  Cerius2 12120216093D 1   1.00000                          
 Structure written by MMmdl.
 46 48  0  0  0  0  0  0  0  0999 V2000
   21.2443   21.1879   16.9354 C   0  0  0  0  0  0
   21.9643   20.3282   17.7643 C   0  0  0  0  0  0
   23.3554   20.4530   17.8497 C   0  0  0  0  0  0
   24.0448   21.4251   17.0968 C   0  0  0  0  0  0
   23.3024   22.2834   16.2754 C   0  0  0  0  0  0
   21.9083   22.1617   16.1887 C   0  0  0  0  0  0
   25.4721   21.5132   17.2239 N   0  0  0  0  0  0
   26.2118   22.7347   15.1062 C   0  0  0  0  0  0
   26.4641   24.0971   14.8895 C   0  0  0  0  0  0
   26.2830   24.6532   13.6214 C   0  0  0  0  0  0
   25.8574   23.8457   12.5732 C   0  0  0  0  0  0
   25.6109   22.4915   12.7672 C   0  0  0  0  0  0
   25.7921   21.9330   14.0341 C   0  0  0  0  0  0
   26.4306   22.1415   16.4247 C   0  0  0  0  0  0
   26.0602   20.9022   18.2966 N   0  0  0  0  0  0
   27.3645   21.2190   18.2398 C   0  0  0  0  0  0
   27.6496   21.9952   17.0818 C   0  0  0  0  0  0
   19.4864   21.0096   16.8080 S   0  0  0  0  0  0
   18.9165   22.2617   16.3427 O   0  0  0  0  0  0
   18.9769   20.3687   18.0075 O   0  0  0  0  0  0
   19.3343   19.9000   15.5624 N   0  0  0  0  0  0
   28.3536   20.7429   19.2775 C   0  0  0  0  0  0
   29.1069   21.7624   19.7831 F   0  0  0  0  0  0
   29.2347   19.8330   18.7677 F   0  0  0  0  0  0
   27.7630   20.1399   20.3517 F   0  0  0  0  0  0
   25.6848   24.3801   11.3570 F   0  0  0  0  0  0
   31.0863   22.0025   15.3141 C   0  0  0  0  0  0
   29.7215   21.4839   15.7379 C   0  0  0  0  0  0
   28.9977   22.4859   16.6390 C   0  0  0  0  0  0
   21.4562   19.5642   18.3494 H   0  0  0  0  0  0
   23.8881   19.7653   18.5058 H   0  0  0  0  0  0
   23.7551   23.0873   15.7076 H   0  0  0  0  0  0
   21.3548   22.8427   15.5451 H   0  0  0  0  0  0
   26.7938   24.7360   15.7065 H   0  0  0  0  0  0
   26.4728   25.7089   13.4505 H   0  0  0  0  0  0
   25.2835   21.8751   11.9351 H   0  0  0  0  0  0
   25.6061   20.8699   14.1771 H   0  0  0  0  0  0
   18.8341   20.3046   14.7666 H   0  0  0  0  0  0
   18.8845   19.0402   15.8875 H   0  0  0  0  0  0
   31.5854   21.2723   14.6693 H   0  0  0  0  0  0
   31.7260   22.1800   16.1846 H   0  0  0  0  0  0
   30.9942   22.9403   14.7572 H   0  0  0  0  0  0
   29.8486   20.5272   16.2561 H   0  0  0  0  0  0
   29.1225   21.2775   14.8433 H   0  0  0  0  0  0
   29.6170   22.7090   17.5165 H   0  0  0  0  0  0
   28.8777   23.4378   16.1067 H   0  0  0  0  0  0
  1  2  2  0  0  0
  1  6  1  0  0  0
  1 18  1  0  0  0
  2  3  1  0  0  0
  2 30  1  0  0  0
  3  4  2  0  0  0
  3 31  1  0  0  0
  4  5  1  0  0  0
  4  7  1  0  0  0
  5  6  2  0  0  0
  5 32  1  0  0  0
  6 33  1  0  0  0
  7 14  1  0  0  0
  7 15  1  0  0  0
  8  9  2  0  0  0
  8 13  1  0  0  0
  8 14  1  0  0  0
  9 10  1  0  0  0
  9 34  1  0  0  0
 10 11  2  0  0  0
 10 35  1  0  0  0
 11 12  1  0  0  0
 11 26  1  0  0  0
 12 13  2  0  0  0
 12 36  1  0  0  0
 13 37  1  0  0  0
 14 17  2  0  0  0
 15 16  2  0  0  0
 16 17  1  0  0  0
 16 22  1  0  0  0
 17 29  1  0  0  0
 18 19  2  0  0  0
 18 20  2  0  0  0
 18 21  1  0  0  0
 21 38  1  0  0  0
 21 39  1  0  0  0
 22 23  1  0  0  0
 22 24  1  0  0  0
 22 25  1  0  0  0
 27 28  1  0  0  0
 27 40  1  0  0  0
 27 41  1  0  0  0
 27 42  1  0  0  0
 28 29  1  0  0  0
 28 43  1  0  0  0
 28 44  1  0  0  0
 29 45  1  0  0  0
 29 46  1  0  0  0
M  END
>  <Name>
8-25c

>  <Family>
E.1

>  <IC50_uM>
>100

>  <set>
2

$$$$
8-25d
  Cerius2 12120216093D 1   1.00000                          
 Structure written by MMmdl.
 41 43  0  0  0  0  0  0  0  0999 V2000
   21.2537   21.1846   16.9400 C   0  0  0  0  0  0
   21.9702   20.3226   17.7691 C   0  0  0  0  0  0
   23.3622   20.4424   17.8529 C   0  0  0  0  0  0
   24.0524   21.4106   17.0972 C   0  0  0  0  0  0
   23.3138   22.2769   16.2803 C   0  0  0  0  0  0
   21.9203   22.1592   16.1944 C   0  0  0  0  0  0
   25.4789   21.4973   17.2201 N   0  0  0  0  0  0
   26.2083   22.7284   15.0966 C   0  0  0  0  0  0
   26.4663   24.0891   14.8846 C   0  0  0  0  0  0
   26.2767   24.6554   13.6222 C   0  0  0  0  0  0
   25.8382   23.8649   12.5612 C   0  0  0  0  0  0
   25.5935   22.5068   12.7584 C   0  0  0  0  0  0
   25.7823   21.9381   14.0198 C   0  0  0  0  0  0
   26.4298   22.1321   16.4134 C   0  0  0  0  0  0
   26.0687   20.9026   18.3086 N   0  0  0  0  0  0
   27.3571   21.2907   18.2811 C   0  0  0  0  0  0
   27.6209   22.0180   17.1071 C   0  0  0  0  0  0
   19.4945   21.0334   16.7982 S   0  0  0  0  0  0
   18.9366   22.2888   16.3269 O   0  0  0  0  0  0
   18.9776   20.4011   17.9989 O   0  0  0  0  0  0
   19.3354   19.9325   15.5458 N   0  0  0  0  0  0
   28.3463   20.9477   19.3541 C   0  0  0  0  0  0
   28.8516   22.0573   19.9696 F   0  0  0  0  0  0
   29.4205   20.2568   18.8692 F   0  0  0  0  0  0
   27.8181   20.1727   20.3485 F   0  0  0  0  0  0
   28.8017   22.5574   16.7289 O   0  0  0  0  0  0
   29.4630   21.7478   15.7521 C   0  0  0  0  0  0
   21.4635   19.5591   18.3552 H   0  0  0  0  0  0
   23.8954   19.7530   18.5069 H   0  0  0  0  0  0
   23.7725   23.0852   15.7210 H   0  0  0  0  0  0
   21.3639   22.8425   15.5553 H   0  0  0  0  0  0
   26.8130   24.7199   15.7017 H   0  0  0  0  0  0
   26.4734   25.7147   13.4670 H   0  0  0  0  0  0
   25.6908   24.3074   11.5774 H   0  0  0  0  0  0
   25.2571   21.8881   11.9283 H   0  0  0  0  0  0
   25.5943   20.8737   14.1525 H   0  0  0  0  0  0
   18.8504   20.3503   14.7474 H   0  0  0  0  0  0
   18.8672   19.0793   15.8618 H   0  0  0  0  0  0
   30.4590   22.1696   15.5878 H   0  0  0  0  0  0
   28.9281   21.7610   14.7979 H   0  0  0  0  0  0
   29.5829   20.7182   16.1074 H   0  0  0  0  0  0
  1  2  2  0  0  0
  1  6  1  0  0  0
  1 18  1  0  0  0
  2  3  1  0  0  0
  2 28  1  0  0  0
  3  4  2  0  0  0
  3 29  1  0  0  0
  4  5  1  0  0  0
  4  7  1  0  0  0
  5  6  2  0  0  0
  5 30  1  0  0  0
  6 31  1  0  0  0
  7 14  1  0  0  0
  7 15  1  0  0  0
  8  9  2  0  0  0
  8 13  1  0  0  0
  8 14  1  0  0  0
  9 10  1  0  0  0
  9 32  1  0  0  0
 10 11  2  0  0  0
 10 33  1  0  0  0
 11 12  1  0  0  0
 11 34  1  0  0  0
 12 13  2  0  0  0
 12 35  1  0  0  0
 13 36  1  0  0  0
 14 17  2  0  0  0
 15 16  2  0  0  0
 16 17  1  0  0  0
 16 22  1  0  0  0
 17 26  1  0  0  0
 18 19  2  0  0  0
 18 20  2  0  0  0
 18 21  1  0  0  0
 21 37  1  0  0  0
 21 38  1  0  0  0
 22 23  1  0  0  0
 22 24  1  0  0  0
 22 25  1  0  0  0
 26 27  1  0  0  0
 27 39  1  0  0  0
 27 40  1  0  0  0
 27 41  1  0  0  0
M  END
>  <Name>
8-25d

>  <Family>
E.1

>  <IC50_uM>
0.080000

>  <set>
2

$$$$
8-26
  Cerius2 12120216093D 1   1.00000                          
 Structure written by MMmdl.
 38 40  0  0  0  0  0  0  0  0999 V2000
   21.2548   21.1873   16.9392 C   0  0  0  0  0  0
   21.9699   20.3239   17.7680 C   0  0  0  0  0  0
   23.3619   20.4414   17.8517 C   0  0  0  0  0  0
   24.0535   21.4089   17.0964 C   0  0  0  0  0  0
   23.3166   22.2767   16.2795 C   0  0  0  0  0  0
   21.9229   22.1614   16.1940 C   0  0  0  0  0  0
   25.4801   21.4945   17.2189 N   0  0  0  0  0  0
   26.2119   22.7292   15.0990 C   0  0  0  0  0  0
   26.4673   24.0890   14.8769 C   0  0  0  0  0  0
   26.2699   24.6483   13.6124 C   0  0  0  0  0  0
   25.8259   23.8514   12.5583 C   0  0  0  0  0  0
   25.5845   22.4942   12.7648 C   0  0  0  0  0  0
   25.7811   21.9328   14.0286 C   0  0  0  0  0  0
   26.4281   22.1426   16.4221 C   0  0  0  0  0  0
   26.0741   20.8772   18.2914 N   0  0  0  0  0  0
   27.3660   21.2566   18.2630 C   0  0  0  0  0  0
   27.6167   22.0382   17.1179 C   0  0  0  0  0  0
   19.4952   21.0406   16.7979 S   0  0  0  0  0  0
   18.9398   22.2973   16.3272 O   0  0  0  0  0  0
   18.9781   20.4088   17.9987 O   0  0  0  0  0  0
   19.3320   19.9413   15.5443 N   0  0  0  0  0  0
   28.3440   20.8375   19.3207 C   0  0  0  0  0  0
   29.6015   21.3190   19.0830 F   0  0  0  0  0  0
   28.4681   19.4809   19.4163 F   0  0  0  0  0  0
   27.9957   21.2813   20.5645 F   0  0  0  0  0  0
   28.7698   22.5776   16.6769 O   0  0  0  0  0  0
   21.4621   19.5607   18.3537 H   0  0  0  0  0  0
   23.8941   19.7511   18.5059 H   0  0  0  0  0  0
   23.7774   23.0835   15.7197 H   0  0  0  0  0  0
   21.3671   22.8456   15.5553 H   0  0  0  0  0  0
   26.8179   24.7241   15.6891 H   0  0  0  0  0  0
   26.4649   25.7068   13.4502 H   0  0  0  0  0  0
   25.6724   24.2881   11.5729 H   0  0  0  0  0  0
   25.2443   21.8703   11.9402 H   0  0  0  0  0  0
   25.5941   20.8692   14.1689 H   0  0  0  0  0  0
   18.8474   20.3614   14.7469 H   0  0  0  0  0  0
   18.8613   19.0892   15.8597 H   0  0  0  0  0  0
   29.5155   22.3926   17.2874 H   0  0  0  0  0  0
  1  2  2  0  0  0
  1  6  1  0  0  0
  1 18  1  0  0  0
  2  3  1  0  0  0
  2 27  1  0  0  0
  3  4  2  0  0  0
  3 28  1  0  0  0
  4  5  1  0  0  0
  4  7  1  0  0  0
  5  6  2  0  0  0
  5 29  1  0  0  0
  6 30  1  0  0  0
  7 14  1  0  0  0
  7 15  1  0  0  0
  8  9  2  0  0  0
  8 13  1  0  0  0
  8 14  1  0  0  0
  9 10  1  0  0  0
  9 31  1  0  0  0
 10 11  2  0  0  0
 10 32  1  0  0  0
 11 12  1  0  0  0
 11 33  1  0  0  0
 12 13  2  0  0  0
 12 34  1  0  0  0
 13 35  1  0  0  0
 14 17  2  0  0  0
 15 16  2  0  0  0
 16 17  1  0  0  0
 16 22  1  0  0  0
 17 26  1  0  0  0
 18 19  2  0  0  0
 18 20  2  0  0  0
 18 21  1  0  0  0
 21 36  1  0  0  0
 21 37  1  0  0  0
 22 23  1  0  0  0
 22 24  1  0  0  0
 22 25  1  0  0  0
 26 38  1  0  0  0
M  END
>  <Name>
8-26

>  <Family>
E.1

>  <IC50_uM>
3.580000

>  <set>
1

$$$$
8-28a
  Cerius2 12120216093D 1   1.00000                          
 Structure written by MMmdl.
 37 39  0  0  0  0  0  0  0  0999 V2000
   25.7638   23.8103   12.6156 C   0  0  0  0  0  0
   25.5194   22.4601   12.8227 C   0  0  0  0  0  0
   25.7239   21.9092   14.0911 C   0  0  0  0  0  0
   26.1877   22.7078   15.1549 C   0  0  0  0  0  0
   26.4065   24.0739   14.9268 C   0  0  0  0  0  0
   26.2001   24.6208   13.6551 C   0  0  0  0  0  0
   26.3836   22.1064   16.4404 N   0  0  0  0  0  0
   24.0362   21.3672   17.1587 C   0  0  0  0  0  0
   23.3613   22.2395   16.2929 C   0  0  0  0  0  0
   21.9717   22.1693   16.1584 C   0  0  0  0  0  0
   21.2522   21.2194   16.8892 C   0  0  0  0  0  0
   21.9142   20.3298   17.7386 C   0  0  0  0  0  0
   23.3044   20.4034   17.8684 C   0  0  0  0  0  0
   25.4919   21.4306   17.2756 C   0  0  0  0  0  0
   27.6377   22.1428   16.9933 N   0  0  0  0  0  0
   27.5772   21.3597   18.0863 C   0  0  0  0  0  0
   26.2623   20.8940   18.2914 C   0  0  0  0  0  0
   28.7703   21.0854   18.9619 C   0  0  0  0  0  0
   28.5374   20.1038   19.8832 F   0  0  0  0  0  0
   29.1590   22.1873   19.6702 F   0  0  0  0  0  0
   29.8645   20.6828   18.2488 F   0  0  0  0  0  0
   25.5669   24.3401   11.4011 F   0  0  0  0  0  0
   19.4941   21.1196   16.6891 S   0  0  0  0  0  0
   19.0119   22.3218   16.0323 O   0  0  0  0  0  0
   18.9016   20.6728   17.9374 O   0  0  0  0  0  0
   19.3368   19.8691   15.5859 N   0  0  0  0  0  0
   25.1719   21.8391   12.0019 H   0  0  0  0  0  0
   25.5307   20.8457   14.2261 H   0  0  0  0  0  0
   26.7001   24.7573   15.7167 H   0  0  0  0  0  0
   26.3697   25.6799   13.4798 H   0  0  0  0  0  0
   23.9109   22.9851   15.7202 H   0  0  0  0  0  0
   21.4608   22.8574   15.4881 H   0  0  0  0  0  0
   21.3639   19.5793   18.3016 H   0  0  0  0  0  0
   23.8100   19.6991   18.5280 H   0  0  0  0  0  0
   25.9074   20.2894   19.1172 H   0  0  0  0  0  0
   18.9028   20.1955   14.7187 H   0  0  0  0  0  0
   18.8197   19.0837   15.9895 H   0  0  0  0  0  0
  1  2  2  0  0  0
  1  6  1  0  0  0
  1 22  1  0  0  0
  2  3  1  0  0  0
  2 27  1  0  0  0
  3  4  2  0  0  0
  3 28  1  0  0  0
  4  5  1  0  0  0
  4  7  1  0  0  0
  5  6  2  0  0  0
  5 29  1  0  0  0
  6 30  1  0  0  0
  7 14  1  0  0  0
  7 15  1  0  0  0
  8  9  2  0  0  0
  8 13  1  0  0  0
  8 14  1  0  0  0
  9 10  1  0  0  0
  9 31  1  0  0  0
 10 11  2  0  0  0
 10 32  1  0  0  0
 11 12  1  0  0  0
 11 23  1  0  0  0
 12 13  2  0  0  0
 12 33  1  0  0  0
 13 34  1  0  0  0
 14 17  2  0  0  0
 15 16  2  0  0  0
 16 17  1  0  0  0
 16 18  1  0  0  0
 17 35  1  0  0  0
 18 19  1  0  0  0
 18 20  1  0  0  0
 18 21  1  0  0  0
 23 24  2  0  0  0
 23 25  2  0  0  0
 23 26  1  0  0  0
 26 36  1  0  0  0
 26 37  1  0  0  0
M  END
>  <Name>
8-28a

>  <Family>
E.1

>  <IC50_uM>
0.010000

>  <set>
1

$$$$
8-28b
  Cerius2 12120216093D 1   1.00000                          
 Structure written by MMmdl.
 41 43  0  0  0  0  0  0  0  0999 V2000
   25.8404   23.8811   12.5984 C   0  0  0  0  0  0
   26.2691   24.6406   13.6836 C   0  0  0  0  0  0
   26.4394   24.0420   14.9396 C   0  0  0  0  0  0
   26.1703   22.6760   15.1333 C   0  0  0  0  0  0
   25.7582   21.9161   14.0350 C   0  0  0  0  0  0
   25.5909   22.5197   12.7814 C   0  0  0  0  0  0
   26.3686   22.1042   16.4310 N   0  0  0  0  0  0
   24.0256   21.3679   17.1678 C   0  0  0  0  0  0
   23.3437   22.2375   16.3048 C   0  0  0  0  0  0
   21.9545   22.1602   16.1737 C   0  0  0  0  0  0
   21.2421   21.2051   16.9050 C   0  0  0  0  0  0
   21.9104   20.3180   17.7517 C   0  0  0  0  0  0
   23.3007   20.3990   17.8781 C   0  0  0  0  0  0
   25.4812   21.4395   17.2797 C   0  0  0  0  0  0
   27.6238   22.1553   16.9815 N   0  0  0  0  0  0
   27.5711   21.3798   18.0802 C   0  0  0  0  0  0
   26.2578   20.9153   18.2974 C   0  0  0  0  0  0
   28.7706   21.1100   18.9484 C   0  0  0  0  0  0
   28.5495   20.1205   19.8644 F   0  0  0  0  0  0
   29.1538   22.2102   19.6617 F   0  0  0  0  0  0
   29.8641   20.7203   18.2274 F   0  0  0  0  0  0
   19.4837   21.1046   16.7119 S   0  0  0  0  0  0
   18.9936   22.3186   16.0836 O   0  0  0  0  0  0
   18.9018   20.6290   17.9546 O   0  0  0  0  0  0
   19.3224   19.8790   15.5813 N   0  0  0  0  0  0
   25.6379   24.3382   11.3261 O   0  0  0  0  0  0
   25.8882   25.7239   11.0953 C   0  0  0  0  0  0
   26.4829   25.7024   13.5954 H   0  0  0  0  0  0
   26.7725   24.6722   15.7639 H   0  0  0  0  0  0
   25.5941   20.8453   14.0939 H   0  0  0  0  0  0
   25.2718   21.9082   11.9385 H   0  0  0  0  0  0
   23.8876   22.9876   15.7321 H   0  0  0  0  0  0
   21.4377   22.8457   15.5056 H   0  0  0  0  0  0
   21.3658   19.5629   18.3140 H   0  0  0  0  0  0
   23.8115   19.6965   18.5354 H   0  0  0  0  0  0
   25.9087   20.3166   19.1298 H   0  0  0  0  0  0
   18.8887   20.2249   14.7217 H   0  0  0  0  0  0
   18.8055   19.0848   15.9678 H   0  0  0  0  0  0
   25.6804   25.9279   10.0406 H   0  0  0  0  0  0
   26.9385   25.9706   11.2824 H   0  0  0  0  0  0
   25.2189   26.3499   11.6947 H   0  0  0  0  0  0
  1  2  2  0  0  0
  1  6  1  0  0  0
  1 26  1  0  0  0
  2  3  1  0  0  0
  2 28  1  0  0  0
  3  4  2  0  0  0
  3 29  1  0  0  0
  4  5  1  0  0  0
  4  7  1  0  0  0
  5  6  2  0  0  0
  5 30  1  0  0  0
  6 31  1  0  0  0
  7 14  1  0  0  0
  7 15  1  0  0  0
  8  9  2  0  0  0
  8 13  1  0  0  0
  8 14  1  0  0  0
  9 10  1  0  0  0
  9 32  1  0  0  0
 10 11  2  0  0  0
 10 33  1  0  0  0
 11 12  1  0  0  0
 11 22  1  0  0  0
 12 13  2  0  0  0
 12 34  1  0  0  0
 13 35  1  0  0  0
 14 17  2  0  0  0
 15 16  2  0  0  0
 16 17  1  0  0  0
 16 18  1  0  0  0
 17 36  1  0  0  0
 18 19  1  0  0  0
 18 20  1  0  0  0
 18 21  1  0  0  0
 22 23  2  0  0  0
 22 24  2  0  0  0
 22 25  1  0  0  0
 25 37  1  0  0  0
 25 38  1  0  0  0
 26 27  1  0  0  0
 27 39  1  0  0  0
 27 40  1  0  0  0
 27 41  1  0  0  0
M  END
>  <Name>
8-28b

>  <Family>
E.1

>  <IC50_uM>
0.006700

>  <set>
0

$$$$
8-30
  Cerius2 12120216093D 1   1.00000                          
 Structure written by MMmdl.
 43 45  0  0  0  0  0  0  0  0999 V2000
   21.2586   21.1777   16.9313 C   0  0  0  0  0  0
   21.9682   20.3206   17.7722 C   0  0  0  0  0  0
   23.3593   20.4393   17.8618 C   0  0  0  0  0  0
   24.0509   21.4038   17.1042 C   0  0  0  0  0  0
   23.3179   22.2753   16.2868 C   0  0  0  0  0  0
   21.9258   22.1611   16.1972 C   0  0  0  0  0  0
   25.4758   21.4881   17.2211 N   0  0  0  0  0  0
   26.2049   22.7287   15.1008 C   0  0  0  0  0  0
   26.4615   24.0900   14.8803 C   0  0  0  0  0  0
   26.2818   24.6454   13.6115 C   0  0  0  0  0  0
   25.8566   23.8378   12.5635 C   0  0  0  0  0  0
   25.6119   22.4837   12.7578 C   0  0  0  0  0  0
   25.7918   21.9263   14.0256 C   0  0  0  0  0  0
   26.4146   22.1474   16.4258 C   0  0  0  0  0  0
   26.0840   20.8608   18.2771 N   0  0  0  0  0  0
   27.3686   21.2619   18.2470 C   0  0  0  0  0  0
   27.6115   22.0664   17.1143 C   0  0  0  0  0  0
   19.4940   21.0489   16.7968 S   0  0  0  0  0  0
   18.9895   22.3520   16.3944 O   0  0  0  0  0  0
   18.9654   20.4077   17.9893 O   0  0  0  0  0  0
   25.6853   24.3715   11.3467 F   0  0  0  0  0  0
   28.3795   20.8448   19.2811 C   0  0  0  0  0  0
   29.5648   21.5146   19.1642 F   0  0  0  0  0  0
   28.6852   19.5155   19.2028 F   0  0  0  0  0  0
   27.9457   21.0638   20.5582 F   0  0  0  0  0  0
   19.2688   19.9637   15.4858 N   0  0  0  0  0  0
   17.8613   19.8915   15.0127 C   0  0  0  0  0  0
   19.8270   18.6008   15.6955 C   0  0  0  0  0  0
   21.4585   19.5591   18.3582 H   0  0  0  0  0  0
   23.8921   19.7525   18.5190 H   0  0  0  0  0  0
   23.7850   23.0834   15.7330 H   0  0  0  0  0  0
   21.3706   22.8449   15.5573 H   0  0  0  0  0  0
   26.7959   24.7296   15.6959 H   0  0  0  0  0  0
   26.4739   25.7007   13.4400 H   0  0  0  0  0  0
   25.2868   21.8660   11.9255 H   0  0  0  0  0  0
   25.6080   20.8621   14.1652 H   0  0  0  0  0  0
   28.5618   22.4844   16.8052 H   0  0  0  0  0  0
   17.8029   19.2702   14.1132 H   0  0  0  0  0  0
   17.4986   20.8868   14.7402 H   0  0  0  0  0  0
   17.2122   19.4607   15.7809 H   0  0  0  0  0  0
   19.7073   18.0090   14.7818 H   0  0  0  0  0  0
   19.3113   18.0867   16.5119 H   0  0  0  0  0  0
   20.8983   18.6455   15.9061 H   0  0  0  0  0  0
  1  2  2  0  0  0
  1  6  1  0  0  0
  1 18  1  0  0  0
  2  3  1  0  0  0
  2 29  1  0  0  0
  3  4  2  0  0  0
  3 30  1  0  0  0
  4  5  1  0  0  0
  4  7  1  0  0  0
  5  6  2  0  0  0
  5 31  1  0  0  0
  6 32  1  0  0  0
  7 14  1  0  0  0
  7 15  1  0  0  0
  8  9  2  0  0  0
  8 13  1  0  0  0
  8 14  1  0  0  0
  9 10  1  0  0  0
  9 33  1  0  0  0
 10 11  2  0  0  0
 10 34  1  0  0  0
 11 12  1  0  0  0
 11 21  1  0  0  0
 12 13  2  0  0  0
 12 35  1  0  0  0
 13 36  1  0  0  0
 14 17  2  0  0  0
 15 16  2  0  0  0
 16 17  1  0  0  0
 16 22  1  0  0  0
 17 37  1  0  0  0
 18 19  2  0  0  0
 18 20  2  0  0  0
 18 26  1  0  0  0
 22 23  1  0  0  0
 22 24  1  0  0  0
 22 25  1  0  0  0
 26 27  1  0  0  0
 26 28  1  0  0  0
 27 38  1  0  0  0
 27 39  1  0  0  0
 27 40  1  0  0  0
 28 41  1  0  0  0
 28 42  1  0  0  0
 28 43  1  0  0  0
M  END
>  <Name>
8-30

>  <Family>
E.1

>  <IC50_uM>
>100

>  <set>
2

$$$$
8-31
  Cerius2 12120216093D 1   1.00000                          
 Structure written by MMmdl.
 40 42  0  0  0  0  0  0  0  0999 V2000
   21.2058   21.1314   16.9000 C   0  0  0  0  0  0
   21.9324   20.3041   17.7535 C   0  0  0  0  0  0
   23.3258   20.4281   17.8469 C   0  0  0  0  0  0
   24.0171   21.3932   17.0950 C   0  0  0  0  0  0
   23.2769   22.2579   16.2838 C   0  0  0  0  0  0
   21.8833   22.1288   16.1949 C   0  0  0  0  0  0
   25.4410   21.4874   17.2200 N   0  0  0  0  0  0
   26.1838   22.7266   15.1016 C   0  0  0  0  0  0
   26.4421   24.0885   14.8859 C   0  0  0  0  0  0
   26.2736   24.6460   13.6164 C   0  0  0  0  0  0
   25.8589   23.8399   12.5630 C   0  0  0  0  0  0
   25.6136   22.4854   12.7530 C   0  0  0  0  0  0
   25.7812   21.9259   14.0217 C   0  0  0  0  0  0
   26.3846   22.1425   16.4259 C   0  0  0  0  0  0
   26.0444   20.8737   18.2877 N   0  0  0  0  0  0
   27.3313   21.2661   18.2555 C   0  0  0  0  0  0
   27.5796   22.0605   17.1177 C   0  0  0  0  0  0
   25.6982   24.3756   11.3455 F   0  0  0  0  0  0
   28.3366   20.8545   19.2974 C   0  0  0  0  0  0
   29.5687   21.4093   19.0950 F   0  0  0  0  0  0
   28.5303   19.5023   19.3297 F   0  0  0  0  0  0
   27.9602   21.2177   20.5597 F   0  0  0  0  0  0
   19.7822   21.1088   16.8123 N   0  0  0  0  0  0
   18.9489   20.1923   15.6800 S   0  0  0  0  0  0
   19.8268   19.8283   14.5803 O   0  0  0  0  0  0
   17.7185   20.9184   15.3964 O   0  0  0  0  0  0
   18.5170   18.7420   16.6193 C   0  0  0  0  0  0
   21.4452   19.5504   18.3647 H   0  0  0  0  0  0
   23.8550   19.7477   18.5130 H   0  0  0  0  0  0
   23.7315   23.0756   15.7347 H   0  0  0  0  0  0
   21.3361   22.8269   15.5633 H   0  0  0  0  0  0
   26.7699   24.7265   15.7053 H   0  0  0  0  0  0
   26.4661   25.7018   13.4485 H   0  0  0  0  0  0
   25.2971   21.8687   11.9167 H   0  0  0  0  0  0
   25.5965   20.8614   14.1586 H   0  0  0  0  0  0
   28.5314   22.4746   16.8081 H   0  0  0  0  0  0
   19.2889   21.9768   17.0436 H   0  0  0  0  0  0
   17.9102   18.0975   15.9793 H   0  0  0  0  0  0
   17.9373   19.0473   17.4923 H   0  0  0  0  0  0
   19.4244   18.2159   16.9164 H   0  0  0  0  0  0
  1  2  2  0  0  0
  1  6  1  0  0  0
  1 23  1  0  0  0
  2  3  1  0  0  0
  2 28  1  0  0  0
  3  4  2  0  0  0
  3 29  1  0  0  0
  4  5  1  0  0  0
  4  7  1  0  0  0
  5  6  2  0  0  0
  5 30  1  0  0  0
  6 31  1  0  0  0
  7 14  1  0  0  0
  7 15  1  0  0  0
  8  9  2  0  0  0
  8 13  1  0  0  0
  8 14  1  0  0  0
  9 10  1  0  0  0
  9 32  1  0  0  0
 10 11  2  0  0  0
 10 33  1  0  0  0
 11 12  1  0  0  0
 11 18  1  0  0  0
 12 13  2  0  0  0
 12 34  1  0  0  0
 13 35  1  0  0  0
 14 17  2  0  0  0
 15 16  2  0  0  0
 16 17  1  0  0  0
 16 19  1  0  0  0
 17 36  1  0  0  0
 19 20  1  0  0  0
 19 21  1  0  0  0
 19 22  1  0  0  0
 23 24  1  0  0  0
 23 37  1  0  0  0
 24 25  2  0  0  0
 24 26  2  0  0  0
 24 27  1  0  0  0
 27 38  1  0  0  0
 27 39  1  0  0  0
 27 40  1  0  0  0
M  END
>  <Name>
8-31

>  <Family>
E.1

>  <IC50_uM>
>100

>  <set>
1

$$$$
8-32
  Cerius2 12120216093D 1   1.00000                          
 Structure written by MMmdl.
 34 36  0  0  0  0  0  0  0  0999 V2000
   21.2171   21.1827   16.9218 C   0  0  0  0  0  0
   21.9307   20.3186   17.7577 C   0  0  0  0  0  0
   23.3238   20.4337   17.8448 C   0  0  0  0  0  0
   24.0177   21.3997   17.0910 C   0  0  0  0  0  0
   23.2853   22.2710   16.2734 C   0  0  0  0  0  0
   21.8904   22.1615   16.1825 C   0  0  0  0  0  0
   25.4425   21.4855   17.2161 N   0  0  0  0  0  0
   26.1900   22.7256   15.1015 C   0  0  0  0  0  0
   26.4485   24.0873   14.8856 C   0  0  0  0  0  0
   26.2784   24.6448   13.6163 C   0  0  0  0  0  0
   25.8619   23.8386   12.5636 C   0  0  0  0  0  0
   25.6166   22.4841   12.7538 C   0  0  0  0  0  0
   25.7862   21.9247   14.0221 C   0  0  0  0  0  0
   26.3883   22.1422   16.4267 C   0  0  0  0  0  0
   26.0425   20.8639   18.2806 N   0  0  0  0  0  0
   27.3276   21.2635   18.2589 C   0  0  0  0  0  0
   27.5804   22.0611   17.1240 C   0  0  0  0  0  0
   25.6994   24.3744   11.3465 F   0  0  0  0  0  0
   28.3300   20.8503   19.3029 C   0  0  0  0  0  0
   29.4841   21.5797   19.2469 F   0  0  0  0  0  0
   28.7005   19.5414   19.1772 F   0  0  0  0  0  0
   27.8540   20.9934   20.5760 F   0  0  0  0  0  0
   19.7561   21.0703   16.8280 N   0  3  0  0  0  0
   19.1848   20.1974   17.5094 O   0  0  0  0  0  0
   19.1498   21.8522   16.0710 O   0  5  0  0  0  0
   21.4282   19.5543   18.3465 H   0  0  0  0  0  0
   23.8542   19.7435   18.5004 H   0  0  0  0  0  0
   23.7524   23.0785   15.7190 H   0  0  0  0  0  0
   21.3515   22.8551   15.5404 H   0  0  0  0  0  0
   26.7766   24.7253   15.7048 H   0  0  0  0  0  0
   26.4713   25.7004   13.4481 H   0  0  0  0  0  0
   25.2986   21.8675   11.9179 H   0  0  0  0  0  0
   25.6016   20.8602   14.1591 H   0  0  0  0  0  0
   28.5334   22.4773   16.8205 H   0  0  0  0  0  0
  1  2  2  0  0  0
  1  6  1  0  0  0
  1 23  1  0  0  0
  2  3  1  0  0  0
  2 26  1  0  0  0
  3  4  2  0  0  0
  3 27  1  0  0  0
  4  5  1  0  0  0
  4  7  1  0  0  0
  5  6  2  0  0  0
  5 28  1  0  0  0
  6 29  1  0  0  0
  7 14  1  0  0  0
  7 15  1  0  0  0
  8  9  2  0  0  0
  8 13  1  0  0  0
  8 14  1  0  0  0
  9 10  1  0  0  0
  9 30  1  0  0  0
 10 11  2  0  0  0
 10 31  1  0  0  0
 11 12  1  0  0  0
 11 18  1  0  0  0
 12 13  2  0  0  0
 12 32  1  0  0  0
 13 33  1  0  0  0
 14 17  2  0  0  0
 15 16  2  0  0  0
 16 17  1  0  0  0
 16 19  1  0  0  0
 17 34  1  0  0  0
 19 20  1  0  0  0
 19 21  1  0  0  0
 19 22  1  0  0  0
 23 24  2  0  0  0
 23 25  1  0  0  0
M  CHG  2  23   1  25  -1
M  END
>  <Name>
8-32

>  <Family>
E.1

>  <IC50_uM>
>100

>  <set>
1

$$$$
8-33
  Cerius2 12120216093D 1   1.00000                          
 Structure written by MMmdl.
 37 39  0  0  0  0  0  0  0  0999 V2000
   21.2034   21.1648   16.9359 C   0  0  0  0  0  0
   21.9381   20.3123   17.7651 C   0  0  0  0  0  0
   23.3332   20.4324   17.8487 C   0  0  0  0  0  0
   24.0246   21.3970   17.0958 C   0  0  0  0  0  0
   23.2865   22.2618   16.2830 C   0  0  0  0  0  0
   21.8915   22.1418   16.2011 C   0  0  0  0  0  0
   25.4490   21.4866   17.2175 N   0  0  0  0  0  0
   26.1900   22.7279   15.1010 C   0  0  0  0  0  0
   26.4474   24.0897   14.8839 C   0  0  0  0  0  0
   26.2787   24.6455   13.6137 C   0  0  0  0  0  0
   25.8646   23.8378   12.5612 C   0  0  0  0  0  0
   25.6194   22.4834   12.7529 C   0  0  0  0  0  0
   25.7872   21.9256   14.0223 C   0  0  0  0  0  0
   26.3917   22.1448   16.4257 C   0  0  0  0  0  0
   26.0527   20.8662   18.2806 N   0  0  0  0  0  0
   27.3383   21.2630   18.2523 C   0  0  0  0  0  0
   27.5862   22.0635   17.1185 C   0  0  0  0  0  0
   25.7043   24.3717   11.3431 F   0  0  0  0  0  0
   28.3440   20.8465   19.2919 C   0  0  0  0  0  0
   29.5458   21.4815   19.1522 F   0  0  0  0  0  0
   28.6141   19.5080   19.2472 F   0  0  0  0  0  0
   27.9222   21.1103   20.5646 F   0  0  0  0  0  0
   19.7137   21.0864   16.8054 C   0  0  0  0  0  0
   19.1379   21.8827   16.0504 O   0  0  0  0  0  0
   18.9750   20.0268   17.6105 C   0  0  0  0  0  0
   19.3624   18.7500   17.3070 F   0  0  0  0  0  0
   17.6201   20.0546   17.4044 F   0  0  0  0  0  0
   19.1399   20.1623   18.9620 F   0  0  0  0  0  0
   21.4663   19.5384   18.3658 H   0  0  0  0  0  0
   23.8661   19.7435   18.5038 H   0  0  0  0  0  0
   23.7450   23.0710   15.7246 H   0  0  0  0  0  0
   21.3497   22.8350   15.5584 H   0  0  0  0  0  0
   26.7743   24.7289   15.7026 H   0  0  0  0  0  0
   26.4707   25.7011   13.4444 H   0  0  0  0  0  0
   25.3032   21.8658   11.9172 H   0  0  0  0  0  0
   25.6031   20.8614   14.1601 H   0  0  0  0  0  0
   28.5377   22.4804   16.8114 H   0  0  0  0  0  0
  1  2  2  0  0  0
  1  6  1  0  0  0
  1 23  1  0  0  0
  2  3  1  0  0  0
  2 29  1  0  0  0
  3  4  2  0  0  0
  3 30  1  0  0  0
  4  5  1  0  0  0
  4  7  1  0  0  0
  5  6  2  0  0  0
  5 31  1  0  0  0
  6 32  1  0  0  0
  7 14  1  0  0  0
  7 15  1  0  0  0
  8  9  2  0  0  0
  8 13  1  0  0  0
  8 14  1  0  0  0
  9 10  1  0  0  0
  9 33  1  0  0  0
 10 11  2  0  0  0
 10 34  1  0  0  0
 11 12  1  0  0  0
 11 18  1  0  0  0
 12 13  2  0  0  0
 12 35  1  0  0  0
 13 36  1  0  0  0
 14 17  2  0  0  0
 15 16  2  0  0  0
 16 17  1  0  0  0
 16 19  1  0  0  0
 17 37  1  0  0  0
 19 20  1  0  0  0
 19 21  1  0  0  0
 19 22  1  0  0  0
 23 24  2  0  0  0
 23 25  1  0  0  0
 25 26  1  0  0  0
 25 27  1  0  0  0
 25 28  1  0  0  0
M  END
>  <Name>
8-33

>  <Family>
E.1

>  <IC50_uM>
>100

>  <set>
2

$$$$
8-34
  Cerius2 12120216093D 1   1.00000                          
 Structure written by MMmdl.
 32 34  0  0  0  0  0  0  0  0999 V2000
   21.1771   21.1838   16.9100 C   0  0  0  0  0  0
   21.8888   20.3252   17.7423 C   0  0  0  0  0  0
   23.2792   20.4342   17.8359 C   0  0  0  0  0  0
   23.9771   21.3986   17.0858 C   0  0  0  0  0  0
   23.2462   22.2687   16.2675 C   0  0  0  0  0  0
   21.8540   22.1560   16.1780 C   0  0  0  0  0  0
   25.4013   21.4826   17.2154 N   0  0  0  0  0  0
   26.1628   22.7214   15.1037 C   0  0  0  0  0  0
   26.4213   24.0818   14.8907 C   0  0  0  0  0  0
   26.2630   24.6407   13.6205 C   0  0  0  0  0  0
   25.8563   23.8428   12.5522 C   0  0  0  0  0  0
   25.6126   22.4848   12.7507 C   0  0  0  0  0  0
   25.7703   21.9237   14.0200 C   0  0  0  0  0  0
   26.3527   22.1357   16.4291 C   0  0  0  0  0  0
   25.9968   20.8620   18.2843 N   0  0  0  0  0  0
   27.2841   21.2538   18.2634 C   0  0  0  0  0  0
   27.5426   22.0500   17.1294 C   0  0  0  0  0  0
   28.2817   20.8366   19.3105 C   0  0  0  0  0  0
   29.4780   21.4860   19.1923 F   0  0  0  0  0  0
   28.5671   19.5015   19.2543 F   0  0  0  0  0  0
   27.8426   21.0813   20.5813 F   0  0  0  0  0  0
   20.0940   21.1017   16.8382 H   0  0  0  0  0  0
   21.3632   19.5679   18.3215 H   0  0  0  0  0  0
   23.8046   19.7423   18.4933 H   0  0  0  0  0  0
   23.7126   23.0744   15.7104 H   0  0  0  0  0  0
   21.2963   22.8398   15.5395 H   0  0  0  0  0  0
   26.7414   24.7196   15.7133 H   0  0  0  0  0  0
   26.4589   25.7001   13.4649 H   0  0  0  0  0  0
   25.7335   24.2791   11.5625 H   0  0  0  0  0  0
   25.3020   21.8598   11.9154 H   0  0  0  0  0  0
   25.5846   20.8591   14.1534 H   0  0  0  0  0  0
   28.4976   22.4625   16.8274 H   0  0  0  0  0  0
  1  2  2  0  0  0
  1  6  1  0  0  0
  1 22  1  0  0  0
  2  3  1  0  0  0
  2 23  1  0  0  0
  3  4  2  0  0  0
  3 24  1  0  0  0
  4  5  1  0  0  0
  4  7  1  0  0  0
  5  6  2  0  0  0
  5 25  1  0  0  0
  6 26  1  0  0  0
  7 14  1  0  0  0
  7 15  1  0  0  0
  8  9  2  0  0  0
  8 13  1  0  0  0
  8 14  1  0  0  0
  9 10  1  0  0  0
  9 27  1  0  0  0
 10 11  2  0  0  0
 10 28  1  0  0  0
 11 12  1  0  0  0
 11 29  1  0  0  0
 12 13  2  0  0  0
 12 30  1  0  0  0
 13 31  1  0  0  0
 14 17  2  0  0  0
 15 16  2  0  0  0
 16 17  1  0  0  0
 16 18  1  0  0  0
 17 32  1  0  0  0
 18 19  1  0  0  0
 18 20  1  0  0  0
 18 21  1  0  0  0
M  END
>  <Name>
8-34

>  <Family>
E.1

>  <IC50_uM>
>100

>  <set>
2

$$$$
8-35
  Cerius2 12120216093D 1   1.00000                          
 Structure written by MMmdl.
 32 34  0  0  0  0  0  0  0  0999 V2000
   21.2451   21.1806   16.9317 C   0  0  0  0  0  0
   21.9584   20.3229   17.7627 C   0  0  0  0  0  0
   23.3502   20.4368   17.8501 C   0  0  0  0  0  0
   24.0418   21.4027   17.0955 C   0  0  0  0  0  0
   23.3055   22.2716   16.2798 C   0  0  0  0  0  0
   21.9120   22.1556   16.1950 C   0  0  0  0  0  0
   25.4665   21.4894   17.2166 N   0  0  0  0  0  0
   26.2083   22.7293   15.0997 C   0  0  0  0  0  0
   26.4659   24.0896   14.8824 C   0  0  0  0  0  0
   26.2946   24.6479   13.6124 C   0  0  0  0  0  0
   25.8763   23.8454   12.5530 C   0  0  0  0  0  0
   25.6320   22.4882   12.7517 C   0  0  0  0  0  0
   25.8033   21.9297   14.0216 C   0  0  0  0  0  0
   26.4101   22.1457   16.4241 C   0  0  0  0  0  0
   26.0700   20.8678   18.2792 N   0  0  0  0  0  0
   27.3563   21.2625   18.2503 C   0  0  0  0  0  0
   27.6050   22.0621   17.1161 C   0  0  0  0  0  0
   25.6654   24.5332   10.9895 Cl  0  0  0  0  0  0
   19.5332   21.0443   16.8237 Cl  0  0  0  0  0  0
   28.3619   20.8444   19.2892 C   0  0  0  0  0  0
   29.5607   21.4864   19.1561 F   0  0  0  0  0  0
   28.6390   19.5075   19.2362 F   0  0  0  0  0  0
   27.9366   21.0974   20.5629 F   0  0  0  0  0  0
   21.4452   19.5626   18.3468 H   0  0  0  0  0  0
   23.8806   19.7469   18.5053 H   0  0  0  0  0  0
   23.7675   23.0795   15.7225 H   0  0  0  0  0  0
   21.3576   22.8408   15.5572 H   0  0  0  0  0  0
   26.7946   24.7284   15.7009 H   0  0  0  0  0  0
   26.4914   25.7069   13.4614 H   0  0  0  0  0  0
   25.3116   21.8562   11.9267 H   0  0  0  0  0  0
   25.6183   20.8654   14.1588 H   0  0  0  0  0  0
   28.5570   22.4770   16.8083 H   0  0  0  0  0  0
  1  2  2  0  0  0
  1  6  1  0  0  0
  1 19  1  0  0  0
  2  3  1  0  0  0
  2 24  1  0  0  0
  3  4  2  0  0  0
  3 25  1  0  0  0
  4  5  1  0  0  0
  4  7  1  0  0  0
  5  6  2  0  0  0
  5 26  1  0  0  0
  6 27  1  0  0  0
  7 14  1  0  0  0
  7 15  1  0  0  0
  8  9  2  0  0  0
  8 13  1  0  0  0
  8 14  1  0  0  0
  9 10  1  0  0  0
  9 28  1  0  0  0
 10 11  2  0  0  0
 10 29  1  0  0  0
 11 12  1  0  0  0
 11 18  1  0  0  0
 12 13  2  0  0  0
 12 30  1  0  0  0
 13 31  1  0  0  0
 14 17  2  0  0  0
 15 16  2  0  0  0
 16 17  1  0  0  0
 16 20  1  0  0  0
 17 32  1  0  0  0
 20 21  1  0  0  0
 20 22  1  0  0  0
 20 23  1  0  0  0
M  END
>  <Name>
8-35

>  <Family>
E.1

>  <IC50_uM>
4.790000

>  <set>
1

$$$$
8-36
  Cerius2 12120216093D 1   1.00000                          
 Structure written by MMmdl.
 40 42  0  0  0  0  0  0  0  0999 V2000
   21.2015   21.1476   16.9449 C   0  0  0  0  0  0
   21.9319   20.2976   17.7711 C   0  0  0  0  0  0
   23.3260   20.4207   17.8535 C   0  0  0  0  0  0
   24.0134   21.3882   17.1002 C   0  0  0  0  0  0
   23.2708   22.2506   16.2887 C   0  0  0  0  0  0
   21.8775   22.1237   16.2111 C   0  0  0  0  0  0
   25.4375   21.4823   17.2204 N   0  0  0  0  0  0
   26.1736   22.7243   15.1026 C   0  0  0  0  0  0
   26.4296   24.0825   14.8812 C   0  0  0  0  0  0
   26.2589   24.6440   13.6095 C   0  0  0  0  0  0
   25.8407   23.8497   12.5421 C   0  0  0  0  0  0
   25.6003   22.4905   12.7573 C   0  0  0  0  0  0
   25.7701   21.9275   14.0258 C   0  0  0  0  0  0
   26.3779   22.1422   16.4270 C   0  0  0  0  0  0
   26.0443   20.8665   18.2850 N   0  0  0  0  0  0
   27.3284   21.2685   18.2555 C   0  0  0  0  0  0
   27.5731   22.0663   17.1193 C   0  0  0  0  0  0
   28.3356   20.8604   19.2969 C   0  0  0  0  0  0
   29.5392   21.4892   19.1464 F   0  0  0  0  0  0
   28.6008   19.5204   19.2678 F   0  0  0  0  0  0
   27.9185   21.1409   20.5677 F   0  0  0  0  0  0
   25.6369   24.2724   11.2576 O   0  0  0  0  0  0
   25.8639   25.6563   10.9942 C   0  0  0  0  0  0
   19.8450   21.1349   16.7746 O   0  0  0  0  0  0
   19.1167   20.1470   17.5023 C   0  0  0  0  0  0
   21.4559   19.5250   18.3692 H   0  0  0  0  0  0
   23.8609   19.7330   18.5080 H   0  0  0  0  0  0
   23.7243   23.0612   15.7284 H   0  0  0  0  0  0
   21.3185   22.8075   15.5736 H   0  0  0  0  0  0
   26.7589   24.7221   15.6992 H   0  0  0  0  0  0
   26.4646   25.7046   13.4927 H   0  0  0  0  0  0
   25.2800   21.8563   11.9322 H   0  0  0  0  0  0
   25.5849   20.8630   14.1601 H   0  0  0  0  0  0
   28.5229   22.4862   16.8111 H   0  0  0  0  0  0
   25.6537   25.8319    9.9348 H   0  0  0  0  0  0
   26.9097   25.9247   11.1764 H   0  0  0  0  0  0
   25.1837   26.2846   11.5786 H   0  0  0  0  0  0
   18.0575   20.2646   17.2536 H   0  0  0  0  0  0
   19.2249   20.2946   18.5818 H   0  0  0  0  0  0
   19.4194   19.1372   17.2061 H   0  0  0  0  0  0
  1  2  2  0  0  0
  1  6  1  0  0  0
  1 24  1  0  0  0
  2  3  1  0  0  0
  2 26  1  0  0  0
  3  4  2  0  0  0
  3 27  1  0  0  0
  4  5  1  0  0  0
  4  7  1  0  0  0
  5  6  2  0  0  0
  5 28  1  0  0  0
  6 29  1  0  0  0
  7 14  1  0  0  0
  7 15  1  0  0  0
  8  9  2  0  0  0
  8 13  1  0  0  0
  8 14  1  0  0  0
  9 10  1  0  0  0
  9 30  1  0  0  0
 10 11  2  0  0  0
 10 31  1  0  0  0
 11 12  1  0  0  0
 11 22  1  0  0  0
 12 13  2  0  0  0
 12 32  1  0  0  0
 13 33  1  0  0  0
 14 17  2  0  0  0
 15 16  2  0  0  0
 16 17  1  0  0  0
 16 18  1  0  0  0
 17 34  1  0  0  0
 18 19  1  0  0  0
 18 20  1  0  0  0
 18 21  1  0  0  0
 22 23  1  0  0  0
 23 35  1  0  0  0
 23 36  1  0  0  0
 23 37  1  0  0  0
 24 25  1  0  0  0
 25 38  1  0  0  0
 25 39  1  0  0  0
 25 40  1  0  0  0
M  END
>  <Name>
8-36

>  <Family>
E.1

>  <IC50_uM>
0.750000

>  <set>
1

$$$$
8-37
  Cerius2 12120216093D 1   1.00000                          
 Structure written by MMmdl.
 36 38  0  0  0  0  0  0  0  0999 V2000
   21.2445   21.1807   16.9325 C   0  0  0  0  0  0
   21.9577   20.3235   17.7641 C   0  0  0  0  0  0
   23.3495   20.4381   17.8522 C   0  0  0  0  0  0
   24.0413   21.4036   17.0972 C   0  0  0  0  0  0
   23.3050   22.2726   16.2818 C   0  0  0  0  0  0
   21.9115   22.1560   16.1963 C   0  0  0  0  0  0
   25.4664   21.4897   17.2175 N   0  0  0  0  0  0
   26.2081   22.7288   15.1002 C   0  0  0  0  0  0
   26.4650   24.0870   14.8795 C   0  0  0  0  0  0
   26.2947   24.6489   13.6079 C   0  0  0  0  0  0
   25.8764   23.8552   12.5400 C   0  0  0  0  0  0
   25.6354   22.4959   12.7547 C   0  0  0  0  0  0
   25.8051   21.9323   14.0228 C   0  0  0  0  0  0
   26.4099   22.1457   16.4247 C   0  0  0  0  0  0
   26.0705   20.8656   18.2786 N   0  0  0  0  0  0
   27.3570   21.2601   18.2493 C   0  0  0  0  0  0
   27.6051   22.0607   17.1157 C   0  0  0  0  0  0
   28.3659   20.8380   19.2831 C   0  0  0  0  0  0
   29.5056   21.5908   19.2487 F   0  0  0  0  0  0
   28.7620   19.5405   19.1213 F   0  0  0  0  0  0
   27.8869   20.9361   20.5592 F   0  0  0  0  0  0
   25.6723   24.2783   11.2556 O   0  0  0  0  0  0
   25.9056   25.6607   10.9914 C   0  0  0  0  0  0
   19.5329   21.0429   16.8219 Cl  0  0  0  0  0  0
   21.4444   19.5628   18.3479 H   0  0  0  0  0  0
   23.8798   19.7484   18.5077 H   0  0  0  0  0  0
   23.7675   23.0802   15.7242 H   0  0  0  0  0  0
   21.3574   22.8408   15.5576 H   0  0  0  0  0  0
   26.7942   24.7261   15.6979 H   0  0  0  0  0  0
   26.5003   25.7096   13.4916 H   0  0  0  0  0  0
   25.3149   21.8623   11.9293 H   0  0  0  0  0  0
   25.6197   20.8678   14.1563 H   0  0  0  0  0  0
   28.5574   22.4744   16.8071 H   0  0  0  0  0  0
   25.6958   25.8367    9.9320 H   0  0  0  0  0  0
   26.9527   25.9242   11.1730 H   0  0  0  0  0  0
   25.2285   26.2926   11.5756 H   0  0  0  0  0  0
  1  2  2  0  0  0
  1  6  1  0  0  0
  1 24  1  0  0  0
  2  3  1  0  0  0
  2 25  1  0  0  0
  3  4  2  0  0  0
  3 26  1  0  0  0
  4  5  1  0  0  0
  4  7  1  0  0  0
  5  6  2  0  0  0
  5 27  1  0  0  0
  6 28  1  0  0  0
  7 14  1  0  0  0
  7 15  1  0  0  0
  8  9  2  0  0  0
  8 13  1  0  0  0
  8 14  1  0  0  0
  9 10  1  0  0  0
  9 29  1  0  0  0
 10 11  2  0  0  0
 10 30  1  0  0  0
 11 12  1  0  0  0
 11 22  1  0  0  0
 12 13  2  0  0  0
 12 31  1  0  0  0
 13 32  1  0  0  0
 14 17  2  0  0  0
 15 16  2  0  0  0
 16 17  1  0  0  0
 16 18  1  0  0  0
 17 33  1  0  0  0
 18 19  1  0  0  0
 18 20  1  0  0  0
 18 21  1  0  0  0
 22 23  1  0  0  0
 23 34  1  0  0  0
 23 35  1  0  0  0
 23 36  1  0  0  0
M  END
>  <Name>
8-37

>  <Family>
E.1

>  <IC50_uM>
0.750000

>  <set>
2

$$$$
8-38
  Cerius2 12120216103D 1   1.00000                          
 Structure written by MMmdl.
 36 38  0  0  0  0  0  0  0  0999 V2000
   21.2019   21.1479   16.9443 C   0  0  0  0  0  0
   21.9323   20.2981   17.7709 C   0  0  0  0  0  0
   23.3263   20.4217   17.8537 C   0  0  0  0  0  0
   24.0138   21.3893   17.1006 C   0  0  0  0  0  0
   23.2712   22.2517   16.2890 C   0  0  0  0  0  0
   21.8779   22.1241   16.2106 C   0  0  0  0  0  0
   25.4378   21.4832   17.2205 N   0  0  0  0  0  0
   26.1733   22.7254   15.1026 C   0  0  0  0  0  0
   26.4300   24.0857   14.8837 C   0  0  0  0  0  0
   26.2579   24.6427   13.6131 C   0  0  0  0  0  0
   25.8395   23.8387   12.5548 C   0  0  0  0  0  0
   25.5960   22.4816   12.7549 C   0  0  0  0  0  0
   25.7680   21.9245   14.0254 C   0  0  0  0  0  0
   26.3781   22.1430   16.4269 C   0  0  0  0  0  0
   26.0448   20.8666   18.2844 N   0  0  0  0  0  0
   27.3291   21.2678   18.2546 C   0  0  0  0  0  0
   27.5736   22.0659   17.1184 C   0  0  0  0  0  0
   28.3362   20.8585   19.2954 C   0  0  0  0  0  0
   29.5408   21.4855   19.1440 F   0  0  0  0  0  0
   28.5994   19.5181   19.2664 F   0  0  0  0  0  0
   27.9203   21.1399   20.5663 F   0  0  0  0  0  0
   25.6283   24.5246   10.9903 Cl  0  0  0  0  0  0
   19.8456   21.1347   16.7732 O   0  0  0  0  0  0
   19.1167   20.1503   17.5053 C   0  0  0  0  0  0
   21.4564   19.5253   18.3686 H   0  0  0  0  0  0
   23.8612   19.7340   18.5081 H   0  0  0  0  0  0
   23.7246   23.0628   15.7295 H   0  0  0  0  0  0
   21.3189   22.8077   15.5729 H   0  0  0  0  0  0
   26.7593   24.7253   15.7012 H   0  0  0  0  0  0
   26.4546   25.7015   13.4608 H   0  0  0  0  0  0
   25.2759   21.8485   11.9309 H   0  0  0  0  0  0
   25.5839   20.8602   14.1639 H   0  0  0  0  0  0
   28.5236   22.4853   16.8099 H   0  0  0  0  0  0
   18.0575   20.2686   17.2577 H   0  0  0  0  0  0
   19.2266   20.3015   18.5842 H   0  0  0  0  0  0
   19.4176   19.1390   17.2123 H   0  0  0  0  0  0
  1  2  2  0  0  0
  1  6  1  0  0  0
  1 23  1  0  0  0
  2  3  1  0  0  0
  2 25  1  0  0  0
  3  4  2  0  0  0
  3 26  1  0  0  0
  4  5  1  0  0  0
  4  7  1  0  0  0
  5  6  2  0  0  0
  5 27  1  0  0  0
  6 28  1  0  0  0
  7 14  1  0  0  0
  7 15  1  0  0  0
  8  9  2  0  0  0
  8 13  1  0  0  0
  8 14  1  0  0  0
  9 10  1  0  0  0
  9 29  1  0  0  0
 10 11  2  0  0  0
 10 30  1  0  0  0
 11 12  1  0  0  0
 11 22  1  0  0  0
 12 13  2  0  0  0
 12 31  1  0  0  0
 13 32  1  0  0  0
 14 17  2  0  0  0
 15 16  2  0  0  0
 16 17  1  0  0  0
 16 18  1  0  0  0
 17 33  1  0  0  0
 18 19  1  0  0  0
 18 20  1  0  0  0
 18 21  1  0  0  0
 23 24  1  0  0  0
 24 34  1  0  0  0
 24 35  1  0  0  0
 24 36  1  0  0  0
M  END
>  <Name>
8-38

>  <Family>
E.1

>  <IC50_uM>
74.900000

>  <set>
1

$$$$
8-39
  Cerius2 12120216103D 1   1.00000                          
 Structure written by MMmdl.
 38 40  0  0  0  0  0  0  0  0999 V2000
   21.2502   21.1879   16.9452 C   0  0  0  0  0  0
   21.9649   20.3209   17.7714 C   0  0  0  0  0  0
   23.3568   20.4363   17.8542 C   0  0  0  0  0  0
   24.0469   21.4033   17.0982 C   0  0  0  0  0  0
   23.3105   22.2729   16.2821 C   0  0  0  0  0  0
   21.9168   22.1603   16.1976 C   0  0  0  0  0  0
   25.4721   21.4896   17.2167 N   0  0  0  0  0  0
   26.2109   22.7304   15.0988 C   0  0  0  0  0  0
   26.4688   24.0922   14.8825 C   0  0  0  0  0  0
   26.2997   24.6491   13.6128 C   0  0  0  0  0  0
   25.8844   23.8425   12.5601 C   0  0  0  0  0  0
   25.6386   22.4880   12.7508 C   0  0  0  0  0  0
   25.8074   21.9291   14.0196 C   0  0  0  0  0  0
   26.4142   22.1466   16.4230 C   0  0  0  0  0  0
   26.0777   20.8677   18.2782 N   0  0  0  0  0  0
   27.3637   21.2638   18.2476 C   0  0  0  0  0  0
   27.6100   22.0636   17.1131 C   0  0  0  0  0  0
   28.3709   20.8482   19.2861 C   0  0  0  0  0  0
   29.5835   21.4566   19.1230 F   0  0  0  0  0  0
   28.6147   19.5040   19.2665 F   0  0  0  0  0  0
   27.9662   21.1459   20.5569 F   0  0  0  0  0  0
   25.7239   24.3773   11.3423 F   0  0  0  0  0  0
   19.4828   21.0370   16.8174 S   0  0  0  0  0  0
   18.9485   22.3324   16.4088 O   0  0  0  0  0  0
   18.9940   20.4449   18.0588 O   0  0  0  0  0  0
   19.2533   19.8782   15.4951 C   0  0  0  0  0  0
   21.4569   19.5570   18.3564 H   0  0  0  0  0  0
   23.8904   19.7453   18.5060 H   0  0  0  0  0  0
   23.7746   23.0790   15.7231 H   0  0  0  0  0  0
   21.3656   22.8458   15.5566 H   0  0  0  0  0  0
   26.7969   24.7305   15.7014 H   0  0  0  0  0  0
   26.4925   25.7047   13.4443 H   0  0  0  0  0  0
   25.3213   21.8712   11.9150 H   0  0  0  0  0  0
   25.6235   20.8647   14.1565 H   0  0  0  0  0  0
   28.5613   22.4798   16.8039 H   0  0  0  0  0  0
   18.1802   19.7331   15.3542 H   0  0  0  0  0  0
   19.7236   18.9310   15.7658 H   0  0  0  0  0  0
   19.6958   20.2857   14.5843 H   0  0  0  0  0  0
  1  2  2  0  0  0
  1  6  1  0  0  0
  1 23  1  0  0  0
  2  3  1  0  0  0
  2 27  1  0  0  0
  3  4  2  0  0  0
  3 28  1  0  0  0
  4  5  1  0  0  0
  4  7  1  0  0  0
  5  6  2  0  0  0
  5 29  1  0  0  0
  6 30  1  0  0  0
  7 14  1  0  0  0
  7 15  1  0  0  0
  8  9  2  0  0  0
  8 13  1  0  0  0
  8 14  1  0  0  0
  9 10  1  0  0  0
  9 31  1  0  0  0
 10 11  2  0  0  0
 10 32  1  0  0  0
 11 12  1  0  0  0
 11 22  1  0  0  0
 12 13  2  0  0  0
 12 33  1  0  0  0
 13 34  1  0  0  0
 14 17  2  0  0  0
 15 16  2  0  0  0
 16 17  1  0  0  0
 16 18  1  0  0  0
 17 35  1  0  0  0
 18 19  1  0  0  0
 18 20  1  0  0  0
 18 21  1  0  0  0
 23 24  2  0  0  0
 23 25  2  0  0  0
 23 26  1  0  0  0
 26 36  1  0  0  0
 26 37  1  0  0  0
 26 38  1  0  0  0
M  END
>  <Name>
8-39

>  <Family>
E.1

>  <IC50_uM>
0.100000

>  <set>
2

$$$$
8-celecoxib
  Cerius2 12120216103D 1   1.00000                          
 Structure written by MMmdl.
 40 42  0  0  0  0  0  0  0  0999 V2000
   21.2495   21.1689   16.9245 C   0  0  0  0  0  0
   21.9646   20.3139   17.7633 C   0  0  0  0  0  0
   23.3561   20.4326   17.8485 C   0  0  0  0  0  0
   24.0457   21.4003   17.0929 C   0  0  0  0  0  0
   23.3082   22.2688   16.2769 C   0  0  0  0  0  0
   21.9145   22.1528   16.1905 C   0  0  0  0  0  0
   25.4706   21.4901   17.2152 N   0  0  0  0  0  0
   26.2135   22.7307   15.0991 C   0  0  0  0  0  0
   26.4732   24.0888   14.8809 C   0  0  0  0  0  0
   26.3020   24.6481   13.6113 C   0  0  0  0  0  0
   25.8698   23.8579   12.5403 C   0  0  0  0  0  0
   25.6404   22.4936   12.7509 C   0  0  0  0  0  0
   25.8113   21.9337   14.0202 C   0  0  0  0  0  0
   26.4147   22.1463   16.4232 C   0  0  0  0  0  0
   26.0737   20.8723   18.2809 N   0  0  0  0  0  0
   27.3600   21.2672   18.2518 C   0  0  0  0  0  0
   27.6091   22.0645   17.1163 C   0  0  0  0  0  0
   28.3642   20.8551   19.2946 C   0  0  0  0  0  0
   29.5918   21.4243   19.1047 F   0  0  0  0  0  0
   28.5711   19.5046   19.3141 F   0  0  0  0  0  0
   27.9776   21.2018   20.5586 F   0  0  0  0  0  0
   25.7185   24.4511   11.1700 C   0  0  0  0  0  0
   19.4836   21.0449   16.8338 S   0  0  0  0  0  0
   18.9311   22.3247   16.4254 O   0  0  0  0  0  0
   18.9878   20.3873   18.0313 O   0  0  0  0  0  0
   19.2482   19.9800   15.5524 N   0  0  0  0  0  0
   21.4554   19.5523   18.3502 H   0  0  0  0  0  0
   23.8893   19.7452   18.5047 H   0  0  0  0  0  0
   23.7706   23.0774   15.7203 H   0  0  0  0  0  0
   21.3615   22.8400   15.5528 H   0  0  0  0  0  0
   26.8066   24.7264   15.6986 H   0  0  0  0  0  0
   26.5100   25.7076   13.4658 H   0  0  0  0  0  0
   25.3279   21.8537   11.9264 H   0  0  0  0  0  0
   25.6299   20.8683   14.1552 H   0  0  0  0  0  0
   28.5607   22.4805   16.8087 H   0  0  0  0  0  0
   24.9338   23.9356   10.6064 H   0  0  0  0  0  0
   26.6615   24.3694   10.6210 H   0  0  0  0  0  0
   25.4341   25.5069   11.2307 H   0  0  0  0  0  0
   18.2510   19.8766   15.3343 H   0  0  0  0  0  0
   19.6038   19.0539   15.8137 H   0  0  0  0  0  0
  1  2  2  0  0  0
  1  6  1  0  0  0
  1 23  1  0  0  0
  2  3  1  0  0  0
  2 27  1  0  0  0
  3  4  2  0  0  0
  3 28  1  0  0  0
  4  5  1  0  0  0
  4  7  1  0  0  0
  5  6  2  0  0  0
  5 29  1  0  0  0
  6 30  1  0  0  0
  7 14  1  0  0  0
  7 15  1  0  0  0
  8  9  2  0  0  0
  8 13  1  0  0  0
  8 14  1  0  0  0
  9 10  1  0  0  0
  9 31  1  0  0  0
 10 11  2  0  0  0
 10 32  1  0  0  0
 11 12  1  0  0  0
 11 22  1  0  0  0
 12 13  2  0  0  0
 12 33  1  0  0  0
 13 34  1  0  0  0
 14 17  2  0  0  0
 15 16  2  0  0  0
 16 17  1  0  0  0
 16 18  1  0  0  0
 17 35  1  0  0  0
 18 19  1  0  0  0
 18 20  1  0  0  0
 18 21  1  0  0  0
 22 36  1  0  0  0
 22 37  1  0  0  0
 22 38  1  0  0  0
 23 24  2  0  0  0
 23 25  2  0  0  0
 23 26  1  0  0  0
 26 39  1  0  0  0
 26 40  1  0  0  0
M  END
>  <Name>
8-celecoxib

>  <Family>
E.1

>  <IC50_uM>
0.040000

>  <set>
0

$$$$
8-1ai
  Cerius2 12120216103D 1   1.00000                          
 Structure written by MMmdl.
 36 38  0  0  0  0  0  0  0  0999 V2000
   21.2727   21.1914   16.8916 C   0  0  0  0  0  0
   21.9779   20.3285   17.7310 C   0  0  0  0  0  0
   23.3702   20.4347   17.8208 C   0  0  0  0  0  0
   24.0686   21.3969   17.0673 C   0  0  0  0  0  0
   23.3424   22.2763   16.2520 C   0  0  0  0  0  0
   21.9484   22.1719   16.1618 C   0  0  0  0  0  0
   25.4927   21.4773   17.1923 N   0  0  0  0  0  0
   26.2252   22.7584   15.1177 C   0  0  0  0  0  0
   26.4327   22.1600   16.4266 C   0  0  0  0  0  0
   26.0950   20.8221   18.2360 N   0  0  0  0  0  0
   27.3707   21.2532   18.2446 C   0  0  0  0  0  0
   27.6173   22.0919   17.1381 C   0  0  0  0  0  0
   19.5057   21.0909   16.7978 S   0  0  0  0  0  0
   18.9768   22.3798   16.3876 O   0  0  0  0  0  0
   18.9964   20.4314   17.9875 O   0  0  0  0  0  0
   19.2829   20.0331   15.5187 N   0  0  0  0  0  0
   25.7540   21.8988   14.1818 N   0  0  0  0  0  0
   25.5165   22.4074   12.9490 C   0  0  0  0  0  0
   25.7184   23.7356   12.6134 C   0  0  0  0  0  0
   26.1858   24.6008   13.5963 C   0  0  0  0  0  0
   26.4393   24.1102   14.8742 C   0  0  0  0  0  0
   28.3687   20.8322   19.2903 C   0  0  0  0  0  0
   29.5481   21.5164   19.2037 F   0  0  0  0  0  0
   28.6900   19.5075   19.1987 F   0  0  0  0  0  0
   27.9097   21.0285   20.5623 F   0  0  0  0  0  0
   21.4608   19.5703   18.3152 H   0  0  0  0  0  0
   23.8970   19.7423   18.4769 H   0  0  0  0  0  0
   23.8149   23.0868   15.7050 H   0  0  0  0  0  0
   21.4011   22.8652   15.5257 H   0  0  0  0  0  0
   28.5609   22.5426   16.8554 H   0  0  0  0  0  0
   18.7839   20.4853   14.7482 H   0  0  0  0  0  0
   18.8049   19.1811   15.8237 H   0  0  0  0  0  0
   25.1460   21.7004   12.2098 H   0  0  0  0  0  0
   25.5106   24.0894   11.6081 H   0  0  0  0  0  0
   26.3481   25.6522   13.3703 H   0  0  0  0  0  0
   26.7929   24.7770   15.6547 H   0  0  0  0  0  0
  1  2  2  0  0  0
  1  6  1  0  0  0
  1 13  1  0  0  0
  2  3  1  0  0  0
  2 26  1  0  0  0
  3  4  2  0  0  0
  3 27  1  0  0  0
  4  5  1  0  0  0
  4  7  1  0  0  0
  5  6  2  0  0  0
  5 28  1  0  0  0
  6 29  1  0  0  0
  7  9  1  0  0  0
  7 10  1  0  0  0
  8  9  1  0  0  0
  8 17  2  0  0  0
  8 21  1  0  0  0
  9 12  2  0  0  0
 10 11  2  0  0  0
 11 12  1  0  0  0
 11 22  1  0  0  0
 12 30  1  0  0  0
 13 14  2  0  0  0
 13 15  2  0  0  0
 13 16  1  0  0  0
 16 31  1  0  0  0
 16 32  1  0  0  0
 17 18  1  0  0  0
 18 19  2  0  0  0
 18 33  1  0  0  0
 19 20  1  0  0  0
 19 34  1  0  0  0
 20 21  2  0  0  0
 20 35  1  0  0  0
 21 36  1  0  0  0
 22 23  1  0  0  0
 22 24  1  0  0  0
 22 25  1  0  0  0
M  END
>  <Name>
8-1ai

>  <Family>
E.2

>  <IC50_uM>
45.600000

>  <set>
1

$$$$
8-1aj
  Cerius2 12120216103D 1   1.00000                          
 Structure written by MMmdl.
 36 38  0  0  0  0  0  0  0  0999 V2000
   21.2600   21.1749   16.9088 C   0  0  0  0  0  0
   21.9696   20.3172   17.7491 C   0  0  0  0  0  0
   23.3612   20.4322   17.8399 C   0  0  0  0  0  0
   24.0562   21.3987   17.0876 C   0  0  0  0  0  0
   23.3248   22.2700   16.2691 C   0  0  0  0  0  0
   21.9312   22.1576   16.1778 C   0  0  0  0  0  0
   25.4802   21.4855   17.2172 N   0  0  0  0  0  0
   26.2366   22.7280   15.1081 C   0  0  0  0  0  0
   26.4289   22.1452   16.4335 C   0  0  0  0  0  0
   26.0766   20.8621   18.2825 N   0  0  0  0  0  0
   27.3619   21.2601   18.2664 C   0  0  0  0  0  0
   27.6180   22.0634   17.1360 C   0  0  0  0  0  0
   19.4939   21.0640   16.8152 S   0  0  0  0  0  0
   18.9574   22.3491   16.4035 O   0  0  0  0  0  0
   18.9887   20.4028   18.0056 O   0  0  0  0  0  0
   19.2768   20.0033   15.5372 N   0  0  0  0  0  0
   25.7716   21.9625   14.0399 C   0  0  0  0  0  0
   25.5495   22.4469   12.7895 N   0  0  0  0  0  0
   25.7927   23.7653   12.6005 C   0  0  0  0  0  0
   26.2405   24.6135   13.5997 C   0  0  0  0  0  0
   26.4590   24.0869   14.8713 C   0  0  0  0  0  0
   28.3594   20.8419   19.3137 C   0  0  0  0  0  0
   29.5564   21.4896   19.1945 F   0  0  0  0  0  0
   28.6426   19.5064   19.2583 F   0  0  0  0  0  0
   27.9207   21.0883   20.5840 F   0  0  0  0  0  0
   21.4568   19.5561   18.3332 H   0  0  0  0  0  0
   23.8902   19.7429   18.4973 H   0  0  0  0  0  0
   23.7911   23.0788   15.7161 H   0  0  0  0  0  0
   21.3807   22.8457   15.5391 H   0  0  0  0  0  0
   28.5728   22.4796   16.8383 H   0  0  0  0  0  0
   18.7733   20.4513   14.7673 H   0  0  0  0  0  0
   18.8054   19.1484   15.8438 H   0  0  0  0  0  0
   25.5636   20.9011   14.1628 H   0  0  0  0  0  0
   25.6118   24.1414   11.5958 H   0  0  0  0  0  0
   26.4128   25.6655   13.3939 H   0  0  0  0  0  0
   26.7998   24.7447   15.6684 H   0  0  0  0  0  0
  1  2  2  0  0  0
  1  6  1  0  0  0
  1 13  1  0  0  0
  2  3  1  0  0  0
  2 26  1  0  0  0
  3  4  2  0  0  0
  3 27  1  0  0  0
  4  5  1  0  0  0
  4  7  1  0  0  0
  5  6  2  0  0  0
  5 28  1  0  0  0
  6 29  1  0  0  0
  7  9  1  0  0  0
  7 10  1  0  0  0
  8  9  1  0  0  0
  8 17  2  0  0  0
  8 21  1  0  0  0
  9 12  2  0  0  0
 10 11  2  0  0  0
 11 12  1  0  0  0
 11 22  1  0  0  0
 12 30  1  0  0  0
 13 14  2  0  0  0
 13 15  2  0  0  0
 13 16  1  0  0  0
 16 31  1  0  0  0
 16 32  1  0  0  0
 17 18  1  0  0  0
 17 33  1  0  0  0
 18 19  2  0  0  0
 19 20  1  0  0  0
 19 34  1  0  0  0
 20 21  2  0  0  0
 20 35  1  0  0  0
 21 36  1  0  0  0
 22 23  1  0  0  0
 22 24  1  0  0  0
 22 25  1  0  0  0
M  END
>  <Name>
8-1aj

>  <Family>
E.2

>  <IC50_uM>
45.000000

>  <set>
2

$$$$
8-1ak
  Cerius2 12120216103D 1   1.00000                          
 Structure written by MMmdl.
 36 38  0  0  0  0  0  0  0  0999 V2000
   21.2513   21.1689   16.9234 C   0  0  0  0  0  0
   21.9656   20.3143   17.7631 C   0  0  0  0  0  0
   23.3569   20.4335   17.8500 C   0  0  0  0  0  0
   24.0469   21.3999   17.0934 C   0  0  0  0  0  0
   23.3108   22.2698   16.2775 C   0  0  0  0  0  0
   21.9174   22.1538   16.1907 C   0  0  0  0  0  0
   25.4716   21.4882   17.2143 N   0  0  0  0  0  0
   26.2110   22.7439   15.1036 C   0  0  0  0  0  0
   26.4123   22.1561   16.4276 C   0  0  0  0  0  0
   26.0782   20.8549   18.2679 N   0  0  0  0  0  0
   27.3619   21.2586   18.2455 C   0  0  0  0  0  0
   27.6065   22.0739   17.1212 C   0  0  0  0  0  0
   19.4856   21.0508   16.8307 S   0  0  0  0  0  0
   18.9439   22.3334   16.4175 O   0  0  0  0  0  0
   18.9835   20.3887   18.0220 O   0  0  0  0  0  0
   19.2723   19.9873   15.5543 N   0  0  0  0  0  0
   26.4666   24.0989   14.8870 C   0  0  0  0  0  0
   26.2924   24.6093   13.6111 C   0  0  0  0  0  0
   25.8962   23.8660   12.5513 N   0  0  0  0  0  0
   25.6696   22.5516   12.7828 C   0  0  0  0  0  0
   25.8158   21.9524   14.0232 C   0  0  0  0  0  0
   28.3711   20.8321   19.2774 C   0  0  0  0  0  0
   29.5282   21.5564   19.2175 F   0  0  0  0  0  0
   28.7346   19.5224   19.1376 F   0  0  0  0  0  0
   27.9067   20.9662   20.5555 F   0  0  0  0  0  0
   21.4564   19.5525   18.3493 H   0  0  0  0  0  0
   23.8899   19.7471   18.5070 H   0  0  0  0  0  0
   23.7748   23.0790   15.7232 H   0  0  0  0  0  0
   21.3630   22.8404   15.5533 H   0  0  0  0  0  0
   28.5571   22.4965   16.8193 H   0  0  0  0  0  0
   18.7718   20.4332   14.7810 H   0  0  0  0  0  0
   18.7990   19.1336   15.8616 H   0  0  0  0  0  0
   26.7901   24.7533   15.6908 H   0  0  0  0  0  0
   26.4761   25.6620   13.4079 H   0  0  0  0  0  0
   25.3605   21.9657   11.9196 H   0  0  0  0  0  0
   25.6268   20.8887   14.1327 H   0  0  0  0  0  0
  1  2  2  0  0  0
  1  6  1  0  0  0
  1 13  1  0  0  0
  2  3  1  0  0  0
  2 26  1  0  0  0
  3  4  2  0  0  0
  3 27  1  0  0  0
  4  5  1  0  0  0
  4  7  1  0  0  0
  5  6  2  0  0  0
  5 28  1  0  0  0
  6 29  1  0  0  0
  7  9  1  0  0  0
  7 10  1  0  0  0
  8  9  1  0  0  0
  8 17  2  0  0  0
  8 21  1  0  0  0
  9 12  2  0  0  0
 10 11  2  0  0  0
 11 12  1  0  0  0
 11 22  1  0  0  0
 12 30  1  0  0  0
 13 14  2  0  0  0
 13 15  2  0  0  0
 13 16  1  0  0  0
 16 31  1  0  0  0
 16 32  1  0  0  0
 17 18  1  0  0  0
 17 33  1  0  0  0
 18 19  2  0  0  0
 18 34  1  0  0  0
 19 20  1  0  0  0
 20 21  2  0  0  0
 20 35  1  0  0  0
 21 36  1  0  0  0
 22 23  1  0  0  0
 22 24  1  0  0  0
 22 25  1  0  0  0
M  END
>  <Name>
8-1ak

>  <Family>
E.2

>  <IC50_uM>
64.700000

>  <set>
1

$$$$
8-1al
  Cerius2 12120216103D 1   1.00000                          
 Structure written by MMmdl.
 34 36  0  0  0  0  0  0  0  0999 V2000
   21.2613   21.1824   16.9100 C   0  0  0  0  0  0
   21.9597   20.3150   17.7503 C   0  0  0  0  0  0
   23.3521   20.4143   17.8443 C   0  0  0  0  0  0
   24.0578   21.3742   17.0945 C   0  0  0  0  0  0
   23.3383   22.2567   16.2775 C   0  0  0  0  0  0
   21.9443   22.1599   16.1830 C   0  0  0  0  0  0
   25.4813   21.4483   17.2274 N   0  0  0  0  0  0
   26.2439   22.8060   15.2254 C   0  0  0  0  0  0
   26.4295   22.1571   16.4925 C   0  0  0  0  0  0
   26.0782   20.7557   18.2503 N   0  0  0  0  0  0
   27.3598   21.1687   18.2676 C   0  0  0  0  0  0
   27.6156   22.0456   17.1918 C   0  0  0  0  0  0
   26.5666   24.4804   15.0257 S   0  0  0  0  0  0
   26.1483   24.4209   13.3856 C   0  0  0  0  0  0
   25.7852   23.1682   12.9628 C   0  0  0  0  0  0
   25.8508   22.2245   14.0334 C   0  0  0  0  0  0
   26.1898   25.9248   12.2636 Br  0  0  0  0  0  0
   19.4941   21.0904   16.8124 S   0  0  0  0  0  0
   18.9709   22.3834   16.4078 O   0  0  0  0  0  0
   18.9803   20.4271   17.9977 O   0  0  0  0  0  0
   19.2690   20.0406   15.5270 N   0  0  0  0  0  0
   28.3561   20.6946   19.2918 C   0  0  0  0  0  0
   29.5447   21.3648   19.2246 F   0  0  0  0  0  0
   28.6578   19.3699   19.1490 F   0  0  0  0  0  0
   27.9060   20.8497   20.5726 F   0  0  0  0  0  0
   21.4371   19.5583   18.3317 H   0  0  0  0  0  0
   23.8735   19.7184   18.5012 H   0  0  0  0  0  0
   23.8161   23.0637   15.7313 H   0  0  0  0  0  0
   21.4029   22.8562   15.5450 H   0  0  0  0  0  0
   28.5682   22.4874   16.9268 H   0  0  0  0  0  0
   25.4917   22.9238   11.9483 H   0  0  0  0  0  0
   25.6159   21.1710   13.9259 H   0  0  0  0  0  0
   18.7774   20.5004   14.7565 H   0  0  0  0  0  0
   18.7836   19.1908   15.8257 H   0  0  0  0  0  0
  1  2  2  0  0  0
  1  6  1  0  0  0
  1 18  1  0  0  0
  2  3  1  0  0  0
  2 26  1  0  0  0
  3  4  2  0  0  0
  3 27  1  0  0  0
  4  5  1  0  0  0
  4  7  1  0  0  0
  5  6  2  0  0  0
  5 28  1  0  0  0
  6 29  1  0  0  0
  7  9  1  0  0  0
  7 10  1  0  0  0
  8  9  1  0  0  0
  8 13  1  0  0  0
  8 16  2  0  0  0
  9 12  2  0  0  0
 10 11  2  0  0  0
 11 12  1  0  0  0
 11 22  1  0  0  0
 12 30  1  0  0  0
 13 14  1  0  0  0
 14 15  2  0  0  0
 14 17  1  0  0  0
 15 16  1  0  0  0
 15 31  1  0  0  0
 16 32  1  0  0  0
 18 19  2  0  0  0
 18 20  2  0  0  0
 18 21  1  0  0  0
 21 33  1  0  0  0
 21 34  1  0  0  0
 22 23  1  0  0  0
 22 24  1  0  0  0
 22 25  1  0  0  0
M  END
>  <Name>
8-1al

>  <Family>
E.2

>  <IC50_uM>
0.012000

>  <set>
1

$$$$
8-1am
  Cerius2 12120216103D 1   1.00000                          
 Structure written by MMmdl.
 34 36  0  0  0  0  0  0  0  0999 V2000
   21.2612   21.1829   16.9097 C   0  0  0  0  0  0
   21.9591   20.3170   17.7520 C   0  0  0  0  0  0
   23.3514   20.4173   17.8477 C   0  0  0  0  0  0
   24.0577   21.3766   17.0975 C   0  0  0  0  0  0
   23.3383   22.2592   16.2805 C   0  0  0  0  0  0
   21.9443   22.1611   16.1840 C   0  0  0  0  0  0
   25.4816   21.4494   17.2286 N   0  0  0  0  0  0
   26.2426   22.8066   15.2256 C   0  0  0  0  0  0
   26.4294   22.1576   16.4925 C   0  0  0  0  0  0
   26.0800   20.7541   18.2488 N   0  0  0  0  0  0
   27.3627   21.1643   18.2630 C   0  0  0  0  0  0
   27.6167   22.0443   17.1893 C   0  0  0  0  0  0
   26.5637   24.4821   15.0257 S   0  0  0  0  0  0
   26.1471   24.4188   13.3876 C   0  0  0  0  0  0
   25.7845   23.1679   12.9630 C   0  0  0  0  0  0
   25.8503   22.2241   14.0332 C   0  0  0  0  0  0
   26.2154   25.8470   12.4361 Cl  0  0  0  0  0  0
   19.4945   21.0881   16.8077 S   0  0  0  0  0  0
   18.9705   22.3799   16.4007 O   0  0  0  0  0  0
   18.9785   20.4247   17.9922 O   0  0  0  0  0  0
   19.2743   20.0368   15.5226 N   0  0  0  0  0  0
   28.3612   20.6850   19.2826 C   0  0  0  0  0  0
   29.5621   21.3304   19.1927 F   0  0  0  0  0  0
   28.6354   19.3526   19.1559 F   0  0  0  0  0  0
   27.9284   20.8673   20.5657 F   0  0  0  0  0  0
   21.4361   19.5607   18.3333 H   0  0  0  0  0  0
   23.8721   19.7221   18.5056 H   0  0  0  0  0  0
   23.8160   23.0668   15.7350 H   0  0  0  0  0  0
   21.4030   22.8569   15.5455 H   0  0  0  0  0  0
   28.5695   22.4851   16.9230 H   0  0  0  0  0  0
   25.4930   22.9297   11.9472 H   0  0  0  0  0  0
   25.6169   21.1701   13.9257 H   0  0  0  0  0  0
   18.7811   20.4944   14.7516 H   0  0  0  0  0  0
   18.7919   19.1851   15.8210 H   0  0  0  0  0  0
  1  2  2  0  0  0
  1  6  1  0  0  0
  1 18  1  0  0  0
  2  3  1  0  0  0
  2 26  1  0  0  0
  3  4  2  0  0  0
  3 27  1  0  0  0
  4  5  1  0  0  0
  4  7  1  0  0  0
  5  6  2  0  0  0
  5 28  1  0  0  0
  6 29  1  0  0  0
  7  9  1  0  0  0
  7 10  1  0  0  0
  8  9  1  0  0  0
  8 13  1  0  0  0
  8 16  2  0  0  0
  9 12  2  0  0  0
 10 11  2  0  0  0
 11 12  1  0  0  0
 11 22  1  0  0  0
 12 30  1  0  0  0
 13 14  1  0  0  0
 14 15  2  0  0  0
 14 17  1  0  0  0
 15 16  1  0  0  0
 15 31  1  0  0  0
 16 32  1  0  0  0
 18 19  2  0  0  0
 18 20  2  0  0  0
 18 21  1  0  0  0
 21 33  1  0  0  0
 21 34  1  0  0  0
 22 23  1  0  0  0
 22 24  1  0  0  0
 22 25  1  0  0  0
M  END
>  <Name>
8-1am

>  <Family>
E.2

>  <IC50_uM>
0.026000

>  <set>
0

$$$$
8-1an
  Cerius2 12120216103D 1   1.00000                          
 Structure written by MMmdl.
 40 43  0  0  0  0  0  0  0  0999 V2000
   21.2486   21.1812   16.9408 C   0  0  0  0  0  0
   21.9574   20.3143   17.7716 C   0  0  0  0  0  0
   23.3497   20.4258   17.8592 C   0  0  0  0  0  0
   24.0450   21.3926   17.1079 C   0  0  0  0  0  0
   23.3152   22.2641   16.2886 C   0  0  0  0  0  0
   21.9221   22.1542   16.1988 C   0  0  0  0  0  0
   25.4681   21.4747   17.2302 N   0  0  0  0  0  0
   26.2504   22.8020   15.1390 C   0  0  0  0  0  0
   26.4069   22.1438   16.4568 C   0  0  0  0  0  0
   26.0806   20.8301   18.2753 N   0  0  0  0  0  0
   27.3737   21.2080   18.2277 C   0  0  0  0  0  0
   27.6150   22.0352   17.1088 C   0  0  0  0  0  0
   25.8369   22.1014   14.0291 C   0  0  0  0  0  0
   25.7487   23.0953   12.6471 S   0  0  0  0  0  0
   26.2332   24.4957   13.5275 C   0  0  0  0  0  0
   26.4644   24.2021   14.8761 C   0  0  0  0  0  0
   19.4877   21.0535   16.8017 S   0  0  0  0  0  0
   18.9418   22.3219   16.3514 O   0  0  0  0  0  0
   18.9710   20.4067   17.9946 O   0  0  0  0  0  0
   19.3089   19.9780   15.5295 N   0  0  0  0  0  0
   26.3919   25.7994   13.0162 C   0  0  0  0  0  0
   26.7846   26.8237   13.8799 C   0  0  0  0  0  0
   27.0108   26.5637   15.2232 C   0  0  0  0  0  0
   26.8528   25.2692   15.7275 C   0  0  0  0  0  0
   28.3920   20.7532   19.2387 C   0  0  0  0  0  0
   29.6306   21.2877   19.0221 F   0  0  0  0  0  0
   28.5582   19.3971   19.2369 F   0  0  0  0  0  0
   28.0493   21.0960   20.5163 F   0  0  0  0  0  0
   21.4448   19.5528   18.3551 H   0  0  0  0  0  0
   23.8787   19.7334   18.5134 H   0  0  0  0  0  0
   23.7826   23.0677   15.7302 H   0  0  0  0  0  0
   21.3697   22.8405   15.5596 H   0  0  0  0  0  0
   28.5656   22.4495   16.7962 H   0  0  0  0  0  0
   25.5956   21.0485   13.9553 H   0  0  0  0  0  0
   18.8284   20.4170   14.7399 H   0  0  0  0  0  0
   18.8296   19.1258   15.8312 H   0  0  0  0  0  0
   26.2105   26.0101   11.9646 H   0  0  0  0  0  0
   26.9106   27.8343   13.4941 H   0  0  0  0  0  0
   27.3131   27.3695   15.8904 H   0  0  0  0  0  0
   27.0330   25.0886   16.7858 H   0  0  0  0  0  0
  1  2  2  0  0  0
  1  6  1  0  0  0
  1 17  1  0  0  0
  2  3  1  0  0  0
  2 29  1  0  0  0
  3  4  2  0  0  0
  3 30  1  0  0  0
  4  5  1  0  0  0
  4  7  1  0  0  0
  5  6  2  0  0  0
  5 31  1  0  0  0
  6 32  1  0  0  0
  7  9  1  0  0  0
  7 10  1  0  0  0
  8  9  1  0  0  0
  8 13  2  0  0  0
  8 16  1  0  0  0
  9 12  2  0  0  0
 10 11  2  0  0  0
 11 12  1  0  0  0
 11 25  1  0  0  0
 12 33  1  0  0  0
 13 14  1  0  0  0
 13 34  1  0  0  0
 14 15  1  0  0  0
 15 16  2  0  0  0
 15 21  1  0  0  0
 16 24  1  0  0  0
 17 18  2  0  0  0
 17 19  2  0  0  0
 17 20  1  0  0  0
 20 35  1  0  0  0
 20 36  1  0  0  0
 21 22  2  0  0  0
 21 37  1  0  0  0
 22 23  1  0  0  0
 22 38  1  0  0  0
 23 24  2  0  0  0
 23 39  1  0  0  0
 24 40  1  0  0  0
 25 26  1  0  0  0
 25 27  1  0  0  0
 25 28  1  0  0  0
M  END
>  <Name>
8-1an

>  <Family>
E.2

>  <IC50_uM>
0.350000

>  <set>
2

$$$$
8-1ao
  Cerius2 12120216103D 1   1.00000                          
 Structure written by MMmdl.
 40 43  0  0  0  0  0  0  0  0999 V2000
   21.2770   21.2026   16.8929 C   0  0  0  0  0  0
   21.9733   20.3305   17.7308 C   0  0  0  0  0  0
   23.3664   20.4223   17.8213 C   0  0  0  0  0  0
   24.0725   21.3776   17.0676 C   0  0  0  0  0  0
   23.3566   22.2686   16.2562 C   0  0  0  0  0  0
   21.9622   22.1789   16.1655 C   0  0  0  0  0  0
   25.4952   21.4485   17.1923 N   0  0  0  0  0  0
   26.2576   22.8333   15.2117 C   0  0  0  0  0  0
   26.4323   22.1819   16.4739 C   0  0  0  0  0  0
   26.1018   20.7381   18.1966 N   0  0  0  0  0  0
   27.3669   21.2002   18.2470 C   0  0  0  0  0  0
   27.6065   22.1127   17.1961 C   0  0  0  0  0  0
   25.8078   22.1597   14.1038 O   0  0  0  0  0  0
   25.7174   23.0507   13.0805 C   0  0  0  0  0  0
   26.0846   24.3169   13.5121 C   0  0  0  0  0  0
   26.4159   24.1711   14.8842 C   0  0  0  0  0  0
   19.5094   21.1196   16.7963 S   0  0  0  0  0  0
   18.9948   22.4125   16.3808 O   0  0  0  0  0  0
   18.9909   20.4689   17.9868 O   0  0  0  0  0  0
   19.2782   20.0595   15.5203 N   0  0  0  0  0  0
   28.3646   20.7381   19.2756 C   0  0  0  0  0  0
   29.5173   21.4715   19.2624 F   0  0  0  0  0  0
   28.7390   19.4376   19.0887 F   0  0  0  0  0  0
   27.8794   20.8184   20.5505 F   0  0  0  0  0  0
   25.3116   22.7544   11.7816 C   0  0  0  0  0  0
   25.2837   23.8231   10.8792 C   0  0  0  0  0  0
   25.6452   25.1137   11.2756 C   0  0  0  0  0  0
   26.0484   25.3793   12.5925 C   0  0  0  0  0  0
   21.4484   19.5763   18.3132 H   0  0  0  0  0  0
   23.8880   19.7244   18.4756 H   0  0  0  0  0  0
   23.8414   23.0760   15.7146 H   0  0  0  0  0  0
   21.4212   22.8794   15.5318 H   0  0  0  0  0  0
   28.5442   22.5972   16.9532 H   0  0  0  0  0  0
   26.7327   24.9562   15.5587 H   0  0  0  0  0  0
   18.7856   20.5143   14.7472 H   0  0  0  0  0  0
   18.7911   19.2136   15.8272 H   0  0  0  0  0  0
   25.0319   21.7488   11.4873 H   0  0  0  0  0  0
   24.9734   23.6453    9.8498 H   0  0  0  0  0  0
   25.6130   25.9275   10.5516 H   0  0  0  0  0  0
   26.3261   26.3878   12.8895 H   0  0  0  0  0  0
  1  2  2  0  0  0
  1  6  1  0  0  0
  1 17  1  0  0  0
  2  3  1  0  0  0
  2 29  1  0  0  0
  3  4  2  0  0  0
  3 30  1  0  0  0
  4  5  1  0  0  0
  4  7  1  0  0  0
  5  6  2  0  0  0
  5 31  1  0  0  0
  6 32  1  0  0  0
  7  9  1  0  0  0
  7 10  1  0  0  0
  8  9  1  0  0  0
  8 13  1  0  0  0
  8 16  2  0  0  0
  9 12  2  0  0  0
 10 11  2  0  0  0
 11 12  1  0  0  0
 11 21  1  0  0  0
 12 33  1  0  0  0
 13 14  1  0  0  0
 14 15  2  0  0  0
 14 25  1  0  0  0
 15 16  1  0  0  0
 15 28  1  0  0  0
 16 34  1  0  0  0
 17 18  2  0  0  0
 17 19  2  0  0  0
 17 20  1  0  0  0
 20 35  1  0  0  0
 20 36  1  0  0  0
 21 22  1  0  0  0
 21 23  1  0  0  0
 21 24  1  0  0  0
 25 26  2  0  0  0
 25 37  1  0  0  0
 26 27  1  0  0  0
 26 38  1  0  0  0
 27 28  2  0  0  0
 27 39  1  0  0  0
 28 40  1  0  0  0
M  END
>  <Name>
8-1ao

>  <Family>
E.2

>  <IC50_uM>
0.890000

>  <set>
1

$$$$
8-1ap
  Cerius2 12120216103D 1   1.00000                          
 Structure written by MMmdl.
 41 43  0  0  0  0  0  0  0  0999 V2000
   21.2643   21.1785   16.9106 C   0  0  0  0  0  0
   21.9769   20.3206   17.7490 C   0  0  0  0  0  0
   23.3688   20.4354   17.8355 C   0  0  0  0  0  0
   24.0606   21.4008   17.0796 C   0  0  0  0  0  0
   23.3261   22.2738   16.2656 C   0  0  0  0  0  0
   21.9326   22.1617   16.1782 C   0  0  0  0  0  0
   25.4850   21.4911   17.2067 N   0  0  0  0  0  0
   26.1873   22.6843   15.1329 C   0  0  0  0  0  0
   26.4391   22.1614   16.4390 C   0  0  0  0  0  0
   26.0817   20.8652   18.2726 N   0  0  0  0  0  0
   27.3578   21.2959   18.2805 C   0  0  0  0  0  0
   27.6175   22.1083   17.1573 C   0  0  0  0  0  0
   19.4980   21.0666   16.8223 S   0  0  0  0  0  0
   18.9590   22.3509   16.4112 O   0  0  0  0  0  0
   18.9970   20.4060   18.0148 O   0  0  0  0  0  0
   19.2781   20.0054   15.5454 N   0  0  0  0  0  0
   28.3468   20.8964   19.3421 C   0  0  0  0  0  0
   29.5334   21.5665   19.2415 F   0  0  0  0  0  0
   28.6562   19.5665   19.2911 F   0  0  0  0  0  0
   27.8844   21.1339   20.6058 F   0  0  0  0  0  0
   26.4625   23.9925   14.9485 C   0  0  0  0  0  0
   26.2907   24.7179   13.6437 C   0  0  0  0  0  0
   25.5222   23.9147   12.5963 C   0  0  0  0  0  0
   25.9685   22.4588   12.5955 C   0  0  0  0  0  0
   25.7338   21.8196   13.9654 C   0  0  0  0  0  0
   21.4655   19.5598   18.3348 H   0  0  0  0  0  0
   23.9007   19.7468   18.4912 H   0  0  0  0  0  0
   23.7940   23.0816   15.7120 H   0  0  0  0  0  0
   21.3805   22.8504   15.5416 H   0  0  0  0  0  0
   28.5671   22.5436   16.8714 H   0  0  0  0  0  0
   18.7765   20.4546   14.7747 H   0  0  0  0  0  0
   18.8038   19.1523   15.8524 H   0  0  0  0  0  0
   26.8318   24.6052   15.7707 H   0  0  0  0  0  0
   27.2865   24.9672   13.2579 H   0  0  0  0  0  0
   25.7695   25.6656   13.8206 H   0  0  0  0  0  0
   25.6728   24.3582   11.6057 H   0  0  0  0  0  0
   24.4465   23.9660   12.8084 H   0  0  0  0  0  0
   27.0335   22.4003   12.3369 H   0  0  0  0  0  0
   25.4226   21.8977   11.8287 H   0  0  0  0  0  0
   24.6669   21.5955   14.0756 H   0  0  0  0  0  0
   26.2627   20.8590   13.9951 H   0  0  0  0  0  0
  1  2  2  0  0  0
  1  6  1  0  0  0
  1 13  1  0  0  0
  2  3  1  0  0  0
  2 26  1  0  0  0
  3  4  2  0  0  0
  3 27  1  0  0  0
  4  5  1  0  0  0
  4  7  1  0  0  0
  5  6  2  0  0  0
  5 28  1  0  0  0
  6 29  1  0  0  0
  7  9  1  0  0  0
  7 10  1  0  0  0
  8  9  1  0  0  0
  8 21  2  0  0  0
  8 25  1  0  0  0
  9 12  2  0  0  0
 10 11  2  0  0  0
 11 12  1  0  0  0
 11 17  1  0  0  0
 12 30  1  0  0  0
 13 14  2  0  0  0
 13 15  2  0  0  0
 13 16  1  0  0  0
 16 31  1  0  0  0
 16 32  1  0  0  0
 17 18  1  0  0  0
 17 19  1  0  0  0
 17 20  1  0  0  0
 21 22  1  0  0  0
 21 33  1  0  0  0
 22 23  1  0  0  0
 22 34  1  0  0  0
 22 35  1  0  0  0
 23 24  1  0  0  0
 23 36  1  0  0  0
 23 37  1  0  0  0
 24 25  1  0  0  0
 24 38  1  0  0  0
 24 39  1  0  0  0
 25 40  1  0  0  0
 25 41  1  0  0  0
M  END
>  <Name>
8-1ap

>  <Family>
E.2

>  <IC50_uM>
0.084000

>  <set>
2

$$$$
8-1aq
  Cerius2 12120216103D 1   1.00000                          
 Structure written by MMmdl.
 44 47  0  0  0  0  0  0  0  0999 V2000
   21.2598   21.1744   16.9088 C   0  0  0  0  0  0
   21.9710   20.3193   17.7504 C   0  0  0  0  0  0
   23.3621   20.4377   17.8415 C   0  0  0  0  0  0
   24.0553   21.4052   17.0886 C   0  0  0  0  0  0
   23.3218   22.2749   16.2704 C   0  0  0  0  0  0
   21.9288   22.1586   16.1779 C   0  0  0  0  0  0
   25.4798   21.4921   17.2157 N   0  0  0  0  0  0
   26.2317   22.7332   15.1027 C   0  0  0  0  0  0
   26.4281   22.1472   16.4278 C   0  0  0  0  0  0
   26.0780   20.8704   18.2817 N   0  0  0  0  0  0
   27.3656   21.2607   18.2565 C   0  0  0  0  0  0
   27.6205   22.0598   17.1236 C   0  0  0  0  0  0
   19.4945   21.0579   16.8115 S   0  0  0  0  0  0
   18.9552   22.3411   16.3970 O   0  0  0  0  0  0
   18.9886   20.3970   18.0017 O   0  0  0  0  0  0
   19.2832   19.9943   15.5352 N   0  0  0  0  0  0
   28.3653   20.8400   19.2998 C   0  0  0  0  0  0
   29.5839   21.4370   19.1393 F   0  0  0  0  0  0
   28.5973   19.4935   19.2857 F   0  0  0  0  0  0
   27.9585   21.1452   20.5682 F   0  0  0  0  0  0
   25.7659   21.9298   14.0408 C   0  0  0  0  0  0
   25.5465   22.4705   12.7698 C   0  0  0  0  0  0
   25.8011   23.8166   12.5763 C   0  0  0  0  0  0
   26.2496   24.6240   13.6259 C   0  0  0  0  0  0
   26.4556   24.1028   14.8935 C   0  0  0  0  0  0
   25.6084   24.6234   11.3293 C   0  0  0  0  0  0
   26.4387   25.8738   11.6531 C   0  0  0  0  0  0
   26.4000   26.0452   13.1786 C   0  0  0  0  0  0
   21.4600   19.5575   18.3351 H   0  0  0  0  0  0
   23.8923   19.7502   18.5000 H   0  0  0  0  0  0
   23.7868   23.0835   15.7160 H   0  0  0  0  0  0
   21.3768   22.8444   15.5376 H   0  0  0  0  0  0
   28.5745   22.4723   16.8189 H   0  0  0  0  0  0
   18.7841   20.4406   14.7613 H   0  0  0  0  0  0
   18.8104   19.1402   15.8414 H   0  0  0  0  0  0
   25.5726   20.8696   14.2010 H   0  0  0  0  0  0
   25.1830   21.8440   11.9593 H   0  0  0  0  0  0
   26.7842   24.7490   15.7039 H   0  0  0  0  0  0
   24.5499   24.8728   11.2023 H   0  0  0  0  0  0
   25.9845   24.1137   10.4380 H   0  0  0  0  0  0
   26.0807   26.7623   11.1236 H   0  0  0  0  0  0
   27.4780   25.7063   11.3369 H   0  0  0  0  0  0
   27.3185   26.5064   13.5519 H   0  0  0  0  0  0
   25.5297   26.6318   13.4899 H   0  0  0  0  0  0
  1  2  2  0  0  0
  1  6  1  0  0  0
  1 13  1  0  0  0
  2  3  1  0  0  0
  2 29  1  0  0  0
  3  4  2  0  0  0
  3 30  1  0  0  0
  4  5  1  0  0  0
  4  7  1  0  0  0
  5  6  2  0  0  0
  5 31  1  0  0  0
  6 32  1  0  0  0
  7  9  1  0  0  0
  7 10  1  0  0  0
  8  9  1  0  0  0
  8 21  2  0  0  0
  8 25  1  0  0  0
  9 12  2  0  0  0
 10 11  2  0  0  0
 11 12  1  0  0  0
 11 17  1  0  0  0
 12 33  1  0  0  0
 13 14  2  0  0  0
 13 15  2  0  0  0
 13 16  1  0  0  0
 16 34  1  0  0  0
 16 35  1  0  0  0
 17 18  1  0  0  0
 17 19  1  0  0  0
 17 20  1  0  0  0
 21 22  1  0  0  0
 21 36  1  0  0  0
 22 23  2  0  0  0
 22 37  1  0  0  0
 23 24  1  0  0  0
 23 26  1  0  0  0
 24 25  2  0  0  0
 24 28  1  0  0  0
 25 38  1  0  0  0
 26 27  1  0  0  0
 26 39  1  0  0  0
 26 40  1  0  0  0
 27 28  1  0  0  0
 27 41  1  0  0  0
 27 42  1  0  0  0
 28 43  1  0  0  0
 28 44  1  0  0  0
M  END
>  <Name>
8-1aq

>  <Family>
E.2

>  <IC50_uM>
0.031000

>  <set>
2

$$$$
8-1ar
  Cerius2 12120216103D 1   1.00000                          
 Structure written by MMmdl.
 45 48  0  0  0  0  0  0  0  0999 V2000
   21.2590   21.1730   16.9111 C   0  0  0  0  0  0
   21.9690   20.3170   17.7531 C   0  0  0  0  0  0
   23.3605   20.4341   17.8451 C   0  0  0  0  0  0
   24.0545   21.4010   17.0926 C   0  0  0  0  0  0
   23.3222   22.2716   16.2739 C   0  0  0  0  0  0
   21.9293   22.1567   16.1808 C   0  0  0  0  0  0
   25.4789   21.4879   17.2196 N   0  0  0  0  0  0
   26.2292   22.7188   15.1006 C   0  0  0  0  0  0
   26.4260   22.1407   16.4280 C   0  0  0  0  0  0
   26.0781   20.8703   18.2872 N   0  0  0  0  0  0
   27.3646   21.2650   18.2619 C   0  0  0  0  0  0
   27.6180   22.0598   17.1254 C   0  0  0  0  0  0
   19.4936   21.0597   16.8106 S   0  0  0  0  0  0
   18.9583   22.3442   16.3955 O   0  0  0  0  0  0
   18.9835   20.3988   17.9990 O   0  0  0  0  0  0
   19.2826   19.9970   15.5334 N   0  0  0  0  0  0
   28.3655   20.8525   19.3076 C   0  0  0  0  0  0
   29.5788   21.4609   19.1505 F   0  0  0  0  0  0
   28.6100   19.5083   19.2928 F   0  0  0  0  0  0
   27.9528   21.1529   20.5752 F   0  0  0  0  0  0
   25.7700   21.9267   14.0476 C   0  0  0  0  0  0
   25.5596   22.4884   12.7855 C   0  0  0  0  0  0
   25.7929   23.8519   12.5518 C   0  0  0  0  0  0
   26.2566   24.6590   13.6014 C   0  0  0  0  0  0
   26.4504   24.0834   14.8738 C   0  0  0  0  0  0
   25.4919   24.4410   10.8923 S   0  0  0  0  0  0
   25.5840   26.2411   11.1331 C   0  0  0  0  0  0
   26.7481   26.6119   12.0314 C   0  0  0  0  0  0
   26.5125   26.1390   13.4604 C   0  0  0  0  0  0
   21.4569   19.5554   18.3372 H   0  0  0  0  0  0
   23.8900   19.7459   18.5032 H   0  0  0  0  0  0
   23.7885   23.0807   15.7213 H   0  0  0  0  0  0
   21.3782   22.8434   15.5408 H   0  0  0  0  0  0
   28.5714   22.4734   16.8198 H   0  0  0  0  0  0
   18.7844   20.4440   14.7595 H   0  0  0  0  0  0
   18.8090   19.1428   15.8386 H   0  0  0  0  0  0
   25.5762   20.8654   14.1937 H   0  0  0  0  0  0
   25.2050   21.8417   11.9834 H   0  0  0  0  0  0
   26.7822   24.7166   15.6974 H   0  0  0  0  0  0
   24.6354   26.5961   11.5503 H   0  0  0  0  0  0
   25.7064   26.7051   10.1494 H   0  0  0  0  0  0
   26.8625   27.7026   12.0383 H   0  0  0  0  0  0
   27.6876   26.2016   11.6393 H   0  0  0  0  0  0
   27.3937   26.4123   14.0547 H   0  0  0  0  0  0
   25.6551   26.6751   13.8872 H   0  0  0  0  0  0
  1  2  2  0  0  0
  1  6  1  0  0  0
  1 13  1  0  0  0
  2  3  1  0  0  0
  2 30  1  0  0  0
  3  4  2  0  0  0
  3 31  1  0  0  0
  4  5  1  0  0  0
  4  7  1  0  0  0
  5  6  2  0  0  0
  5 32  1  0  0  0
  6 33  1  0  0  0
  7  9  1  0  0  0
  7 10  1  0  0  0
  8  9  1  0  0  0
  8 21  2  0  0  0
  8 25  1  0  0  0
  9 12  2  0  0  0
 10 11  2  0  0  0
 11 12  1  0  0  0
 11 17  1  0  0  0
 12 34  1  0  0  0
 13 14  2  0  0  0
 13 15  2  0  0  0
 13 16  1  0  0  0
 16 35  1  0  0  0
 16 36  1  0  0  0
 17 18  1  0  0  0
 17 19  1  0  0  0
 17 20  1  0  0  0
 21 22  1  0  0  0
 21 37  1  0  0  0
 22 23  2  0  0  0
 22 38  1  0  0  0
 23 24  1  0  0  0
 23 26  1  0  0  0
 24 25  2  0  0  0
 24 29  1  0  0  0
 25 39  1  0  0  0
 26 27  1  0  0  0
 27 28  1  0  0  0
 27 40  1  0  0  0
 27 41  1  0  0  0
 28 29  1  0  0  0
 28 42  1  0  0  0
 28 43  1  0  0  0
 29 44  1  0  0  0
 29 45  1  0  0  0
M  END
>  <Name>
8-1ar

>  <Family>
E.2

>  <IC50_uM>
0.230000

>  <set>
1

$$$$
8-1as
  Cerius2 12120216103D 1   1.00000                          
 Structure written by MMmdl.
 42 45  0  0  0  0  0  0  0  0999 V2000
   21.2609   21.1748   16.9083 C   0  0  0  0  0  0
   21.9712   20.3185   17.7496 C   0  0  0  0  0  0
   23.3627   20.4356   17.8407 C   0  0  0  0  0  0
   24.0563   21.4027   17.0883 C   0  0  0  0  0  0
   23.3239   22.2731   16.2696 C   0  0  0  0  0  0
   21.9307   22.1586   16.1775 C   0  0  0  0  0  0
   25.4806   21.4903   17.2159 N   0  0  0  0  0  0
   26.2306   22.7342   15.1037 C   0  0  0  0  0  0
   26.4275   22.1483   16.4286 C   0  0  0  0  0  0
   26.0799   20.8677   18.2805 N   0  0  0  0  0  0
   27.3660   21.2637   18.2580 C   0  0  0  0  0  0
   27.6192   22.0645   17.1256 C   0  0  0  0  0  0
   19.4952   21.0620   16.8106 S   0  0  0  0  0  0
   18.9593   22.3468   16.3968 O   0  0  0  0  0  0
   18.9872   20.4013   18.0001 O   0  0  0  0  0  0
   19.2817   20.0001   15.5333 N   0  0  0  0  0  0
   28.3663   20.8471   19.3027 C   0  0  0  0  0  0
   29.5794   21.4566   19.1490 F   0  0  0  0  0  0
   28.6114   19.5031   19.2823 F   0  0  0  0  0  0
   27.9526   21.1420   20.5712 F   0  0  0  0  0  0
   25.7648   21.9296   14.0413 C   0  0  0  0  0  0
   25.5572   22.4699   12.7680 C   0  0  0  0  0  0
   25.8024   23.8151   12.5904 C   0  0  0  0  0  0
   26.2474   24.6213   13.6250 C   0  0  0  0  0  0
   26.4665   24.1023   14.8902 C   0  0  0  0  0  0
   25.6532   24.4791   11.4011 O   0  0  0  0  0  0
   25.7535   25.8797   11.7761 C   0  0  0  0  0  0
   26.4830   25.9911   13.1154 C   0  0  0  0  0  0
   21.4593   19.5572   18.3343 H   0  0  0  0  0  0
   23.8926   19.7472   18.4984 H   0  0  0  0  0  0
   23.7898   23.0820   15.7164 H   0  0  0  0  0  0
   21.3792   22.8454   15.5381 H   0  0  0  0  0  0
   28.5724   22.4805   16.8227 H   0  0  0  0  0  0
   18.7828   20.4480   14.7603 H   0  0  0  0  0  0
   18.8073   19.1465   15.8389 H   0  0  0  0  0  0
   25.5717   20.8694   14.2009 H   0  0  0  0  0  0
   25.2098   21.8477   11.9491 H   0  0  0  0  0  0
   26.8202   24.7451   15.6927 H   0  0  0  0  0  0
   24.7330   26.2771   11.8469 H   0  0  0  0  0  0
   26.2758   26.4270   10.9847 H   0  0  0  0  0  0
   27.5543   26.1616   12.9685 H   0  0  0  0  0  0
   26.0603   26.7774   13.7459 H   0  0  0  0  0  0
  1  2  2  0  0  0
  1  6  1  0  0  0
  1 13  1  0  0  0
  2  3  1  0  0  0
  2 29  1  0  0  0
  3  4  2  0  0  0
  3 30  1  0  0  0
  4  5  1  0  0  0
  4  7  1  0  0  0
  5  6  2  0  0  0
  5 31  1  0  0  0
  6 32  1  0  0  0
  7  9  1  0  0  0
  7 10  1  0  0  0
  8  9  1  0  0  0
  8 21  2  0  0  0
  8 25  1  0  0  0
  9 12  2  0  0  0
 10 11  2  0  0  0
 11 12  1  0  0  0
 11 17  1  0  0  0
 12 33  1  0  0  0
 13 14  2  0  0  0
 13 15  2  0  0  0
 13 16  1  0  0  0
 16 34  1  0  0  0
 16 35  1  0  0  0
 17 18  1  0  0  0
 17 19  1  0  0  0
 17 20  1  0  0  0
 21 22  1  0  0  0
 21 36  1  0  0  0
 22 23  2  0  0  0
 22 37  1  0  0  0
 23 24  1  0  0  0
 23 26  1  0  0  0
 24 25  2  0  0  0
 24 28  1  0  0  0
 25 38  1  0  0  0
 26 27  1  0  0  0
 27 28  1  0  0  0
 27 39  1  0  0  0
 27 40  1  0  0  0
 28 41  1  0  0  0
 28 42  1  0  0  0
M  END
>  <Name>
8-1as

>  <Family>
E.2

>  <IC50_uM>
0.021000

>  <set>
1

$$$$
8-1at
  Cerius2 12120216103D 1   1.00000                          
 Structure written by MMmdl.
 43 46  0  0  0  0  0  0  0  0999 V2000
   21.2629   21.1770   16.9054 C   0  0  0  0  0  0
   21.9721   20.3203   17.7475 C   0  0  0  0  0  0
   23.3635   20.4365   17.8406 C   0  0  0  0  0  0
   24.0581   21.4028   17.0883 C   0  0  0  0  0  0
   23.3273   22.2740   16.2689 C   0  0  0  0  0  0
   21.9341   22.1606   16.1756 C   0  0  0  0  0  0
   25.4821   21.4900   17.2165 N   0  0  0  0  0  0
   26.2307   22.7372   15.1053 C   0  0  0  0  0  0
   26.4279   22.1504   16.4299 C   0  0  0  0  0  0
   26.0823   20.8650   18.2788 N   0  0  0  0  0  0
   27.3677   21.2632   18.2573 C   0  0  0  0  0  0
   27.6202   22.0658   17.1259 C   0  0  0  0  0  0
   19.4972   21.0640   16.8066 S   0  0  0  0  0  0
   18.9605   22.3482   16.3922 O   0  0  0  0  0  0
   18.9891   20.4031   17.9959 O   0  0  0  0  0  0
   19.2853   20.0023   15.5288 N   0  0  0  0  0  0
   28.3690   20.8460   19.3009 C   0  0  0  0  0  0
   29.5698   21.4848   19.1696 F   0  0  0  0  0  0
   28.6431   19.5083   19.2537 F   0  0  0  0  0  0
   27.9399   21.1046   20.5723 F   0  0  0  0  0  0
   25.7596   21.9323   14.0428 C   0  0  0  0  0  0
   25.5301   22.4699   12.7651 C   0  0  0  0  0  0
   25.7927   23.8180   12.5953 C   0  0  0  0  0  0
   26.2390   24.6091   13.6296 C   0  0  0  0  0  0
   26.4605   24.1043   14.8939 C   0  0  0  0  0  0
   25.6492   24.5214   11.4380 O   0  0  0  0  0  0
   26.0513   25.8449   11.8592 C   0  0  0  0  0  0
   26.4248   25.9037   13.2549 O   0  0  0  0  0  0
   25.0660   21.6103   11.6318 C   0  0  0  0  0  0
   21.4590   19.5590   18.3311 H   0  0  0  0  0  0
   23.8926   19.7480   18.4987 H   0  0  0  0  0  0
   23.7946   23.0833   15.7176 H   0  0  0  0  0  0
   21.3838   22.8486   15.5364 H   0  0  0  0  0  0
   28.5730   22.4830   16.8233 H   0  0  0  0  0  0
   18.7871   20.4502   14.7554 H   0  0  0  0  0  0
   18.8107   19.1484   15.8336 H   0  0  0  0  0  0
   25.5765   20.8714   14.2168 H   0  0  0  0  0  0
   26.8029   24.7549   15.6929 H   0  0  0  0  0  0
   25.2183   26.5365   11.6889 H   0  0  0  0  0  0
   26.9073   26.1615   11.2524 H   0  0  0  0  0  0
   24.2719   22.1110   11.0682 H   0  0  0  0  0  0
   24.6584   20.6609   11.9944 H   0  0  0  0  0  0
   25.9014   21.3929   10.9590 H   0  0  0  0  0  0
  1  2  2  0  0  0
  1  6  1  0  0  0
  1 13  1  0  0  0
  2  3  1  0  0  0
  2 30  1  0  0  0
  3  4  2  0  0  0
  3 31  1  0  0  0
  4  5  1  0  0  0
  4  7  1  0  0  0
  5  6  2  0  0  0
  5 32  1  0  0  0
  6 33  1  0  0  0
  7  9  1  0  0  0
  7 10  1  0  0  0
  8  9  1  0  0  0
  8 21  2  0  0  0
  8 25  1  0  0  0
  9 12  2  0  0  0
 10 11  2  0  0  0
 11 12  1  0  0  0
 11 17  1  0  0  0
 12 34  1  0  0  0
 13 14  2  0  0  0
 13 15  2  0  0  0
 13 16  1  0  0  0
 16 35  1  0  0  0
 16 36  1  0  0  0
 17 18  1  0  0  0
 17 19  1  0  0  0
 17 20  1  0  0  0
 21 22  1  0  0  0
 21 37  1  0  0  0
 22 23  2  0  0  0
 22 29  1  0  0  0
 23 24  1  0  0  0
 23 26  1  0  0  0
 24 25  2  0  0  0
 24 28  1  0  0  0
 25 38  1  0  0  0
 26 27  1  0  0  0
 27 28  1  0  0  0
 27 39  1  0  0  0
 27 40  1  0  0  0
 29 41  1  0  0  0
 29 42  1  0  0  0
 29 43  1  0  0  0
M  END
>  <Name>
8-1at

>  <Family>
E.2

>  <IC50_uM>
0.052000

>  <set>
1

$$$$
8-2m
  Cerius2 12120216103D 1   1.00000                          
 Structure written by MMmdl.
 37 39  0  0  0  0  0  0  0  0999 V2000
   21.2555   21.1773   16.9273 C   0  0  0  0  0  0
   21.9663   20.3143   17.7626 C   0  0  0  0  0  0
   23.3590   20.4196   17.8430 C   0  0  0  0  0  0
   24.0507   21.3797   17.0820 C   0  0  0  0  0  0
   23.3203   22.2612   16.2729 C   0  0  0  0  0  0
   21.9262   22.1579   16.1924 C   0  0  0  0  0  0
   25.4736   21.4645   17.1978 N   0  0  0  0  0  0
   26.2228   22.7670   15.1572 C   0  0  0  0  0  0
   26.4050   22.1711   16.4451 C   0  0  0  0  0  0
   26.0878   20.8035   18.2311 N   0  0  0  0  0  0
   27.3484   21.2708   18.2517 C   0  0  0  0  0  0
   27.5826   22.1380   17.1647 C   0  0  0  0  0  0
   26.4784   24.0953   14.9270 O   0  0  0  0  0  0
   26.2425   24.3477   13.6106 C   0  0  0  0  0  0
   25.8569   23.1929   12.9711 C   0  0  0  0  0  0
   25.8579   22.1773   13.9578 C   0  0  0  0  0  0
   26.4469   25.7398   13.1611 C   0  0  0  0  0  0
   19.4879   21.0767   16.8453 S   0  0  0  0  0  0
   18.9560   22.3666   16.4426 O   0  0  0  0  0  0
   18.9871   20.4135   18.0364 O   0  0  0  0  0  0
   19.2564   20.0225   15.5646 N   0  0  0  0  0  0
   28.3408   20.8537   19.2978 C   0  0  0  0  0  0
   28.5505   19.5009   19.2718 F   0  0  0  0  0  0
   27.8781   21.1238   20.5580 F   0  0  0  0  0  0
   21.4525   19.5569   18.3509 H   0  0  0  0  0  0
   23.8919   19.7287   18.4955 H   0  0  0  0  0  0
   23.7939   23.0712   15.7248 H   0  0  0  0  0  0
   21.3743   22.8516   15.5607 H   0  0  0  0  0  0
   28.5163   22.6163   16.8960 H   0  0  0  0  0  0
   25.6140   23.0911   11.9210 H   0  0  0  0  0  0
   25.6207   21.1313   13.8093 H   0  0  0  0  0  0
   26.2153   25.8466   12.0969 H   0  0  0  0  0  0
   27.4867   26.0430   13.3166 H   0  0  0  0  0  0
   25.7996   26.4214   13.7214 H   0  0  0  0  0  0
   18.7530   20.4776   14.7986 H   0  0  0  0  0  0
   18.7796   19.1703   15.8703 H   0  0  0  0  0  0
   29.3059   21.3526   19.1737 H   0  0  0  0  0  0
  1  2  2  0  0  0
  1  6  1  0  0  0
  1 18  1  0  0  0
  2  3  1  0  0  0
  2 25  1  0  0  0
  3  4  2  0  0  0
  3 26  1  0  0  0
  4  5  1  0  0  0
  4  7  1  0  0  0
  5  6  2  0  0  0
  5 27  1  0  0  0
  6 28  1  0  0  0
  7  9  1  0  0  0
  7 10  1  0  0  0
  8  9  1  0  0  0
  8 13  1  0  0  0
  8 16  2  0  0  0
  9 12  2  0  0  0
 10 11  2  0  0  0
 11 12  1  0  0  0
 11 22  1  0  0  0
 12 29  1  0  0  0
 13 14  1  0  0  0
 14 15  2  0  0  0
 14 17  1  0  0  0
 15 16  1  0  0  0
 15 30  1  0  0  0
 16 31  1  0  0  0
 17 32  1  0  0  0
 17 33  1  0  0  0
 17 34  1  0  0  0
 18 19  2  0  0  0
 18 20  2  0  0  0
 18 21  1  0  0  0
 21 35  1  0  0  0
 21 36  1  0  0  0
 22 23  1  0  0  0
 22 24  1  0  0  0
 22 37  1  0  0  0
M  END
>  <Name>
8-2m

>  <Family>
E.2

>  <IC50_uM>
3.290000

>  <set>
2

$$$$
8-2n
  Cerius2 12120216103D 1   1.00000                          
 Structure written by MMmdl.
 40 43  0  0  0  0  0  0  0  0999 V2000
   21.2625   21.1764   16.9059 C   0  0  0  0  0  0
   21.9719   20.3201   17.7480 C   0  0  0  0  0  0
   23.3632   20.4369   17.8407 C   0  0  0  0  0  0
   24.0578   21.4037   17.0885 C   0  0  0  0  0  0
   23.3263   22.2745   16.2693 C   0  0  0  0  0  0
   21.9333   22.1601   16.1759 C   0  0  0  0  0  0
   25.4819   21.4905   17.2167 N   0  0  0  0  0  0
   26.2324   22.7361   15.1048 C   0  0  0  0  0  0
   26.4288   22.1493   16.4294 C   0  0  0  0  0  0
   26.0818   20.8671   18.2801 N   0  0  0  0  0  0
   27.3651   21.2611   18.2537 C   0  0  0  0  0  0
   27.6213   22.0633   17.1253 C   0  0  0  0  0  0
   19.4969   21.0632   16.8058 S   0  0  0  0  0  0
   18.9610   22.3477   16.3915 O   0  0  0  0  0  0
   18.9875   20.4018   17.9943 O   0  0  0  0  0  0
   19.2858   20.0013   15.5279 N   0  0  0  0  0  0
   25.7587   21.9331   14.0431 C   0  0  0  0  0  0
   25.5397   22.4760   12.7722 C   0  0  0  0  0  0
   25.7911   23.8193   12.5980 C   0  0  0  0  0  0
   26.2384   24.6111   13.6292 C   0  0  0  0  0  0
   26.4639   24.1045   14.8928 C   0  0  0  0  0  0
   25.6331   24.5138   11.4401 O   0  0  0  0  0  0
   26.0332   25.8411   11.8557 C   0  0  0  0  0  0
   26.4164   25.9052   13.2499 O   0  0  0  0  0  0
   28.3553   20.8387   19.2991 C   0  0  0  0  0  0
   28.4735   19.4755   19.3504 F   0  0  0  0  0  0
   27.9469   21.2134   20.5514 F   0  0  0  0  0  0
   21.4593   19.5587   18.3319 H   0  0  0  0  0  0
   23.8928   19.7490   18.4991 H   0  0  0  0  0  0
   23.7930   23.0842   15.7181 H   0  0  0  0  0  0
   21.3825   22.8473   15.5361 H   0  0  0  0  0  0
   28.5740   22.4794   16.8212 H   0  0  0  0  0  0
   18.7874   20.4489   14.7543 H   0  0  0  0  0  0
   18.8120   19.1471   15.8328 H   0  0  0  0  0  0
   25.5639   20.8729   14.2032 H   0  0  0  0  0  0
   25.1819   21.8574   11.9553 H   0  0  0  0  0  0
   26.8075   24.7542   15.6919 H   0  0  0  0  0  0
   25.1960   26.5285   11.6897 H   0  0  0  0  0  0
   26.8839   26.1598   11.2426 H   0  0  0  0  0  0
   29.3482   21.2619   19.1227 H   0  0  0  0  0  0
  1  2  2  0  0  0
  1  6  1  0  0  0
  1 13  1  0  0  0
  2  3  1  0  0  0
  2 28  1  0  0  0
  3  4  2  0  0  0
  3 29  1  0  0  0
  4  5  1  0  0  0
  4  7  1  0  0  0
  5  6  2  0  0  0
  5 30  1  0  0  0
  6 31  1  0  0  0
  7  9  1  0  0  0
  7 10  1  0  0  0
  8  9  1  0  0  0
  8 17  2  0  0  0
  8 21  1  0  0  0
  9 12  2  0  0  0
 10 11  2  0  0  0
 11 12  1  0  0  0
 11 25  1  0  0  0
 12 32  1  0  0  0
 13 14  2  0  0  0
 13 15  2  0  0  0
 13 16  1  0  0  0
 16 33  1  0  0  0
 16 34  1  0  0  0
 17 18  1  0  0  0
 17 35  1  0  0  0
 18 19  2  0  0  0
 18 36  1  0  0  0
 19 20  1  0  0  0
 19 22  1  0  0  0
 20 21  2  0  0  0
 20 24  1  0  0  0
 21 37  1  0  0  0
 22 23  1  0  0  0
 23 24  1  0  0  0
 23 38  1  0  0  0
 23 39  1  0  0  0
 25 26  1  0  0  0
 25 27  1  0  0  0
 25 40  1  0  0  0
M  END
>  <Name>
8-2n

>  <Family>
E.2

>  <IC50_uM>
0.024000

>  <set>
2

$$$$
9-3
  Cerius2 12120216103D 1   1.00000                          
 Structure written by MMmdl.
 43 46  0  0  0  0  0  0  0  0999 V2000
   26.3854   22.0827   16.4209 C   0  0  0  0  0  0
   25.4936   21.5023   17.2540 C   0  0  0  0  0  0
   26.1801   20.9253   18.4743 C   0  0  0  0  0  0
   27.6424   21.2769   18.2996 C   0  0  0  0  0  0
   27.7860   22.0290   16.9936 C   0  0  0  0  0  0
   24.0360   21.3881   17.1136 C   0  0  0  0  0  0
   26.1563   22.7061   15.1114 C   0  0  0  0  0  0
   23.3255   22.2650   16.2792 C   0  0  0  0  0  0
   21.9356   22.1714   16.1564 C   0  0  0  0  0  0
   21.2437   21.2027   16.8849 C   0  0  0  0  0  0
   21.9313   20.3217   17.7210 C   0  0  0  0  0  0
   23.3219   20.4222   17.8375 C   0  0  0  0  0  0
   26.4152   24.0710   14.9146 C   0  0  0  0  0  0
   26.2129   24.6610   13.6638 C   0  0  0  0  0  0
   25.7586   23.8856   12.6050 C   0  0  0  0  0  0
   25.5054   22.5307   12.7719 C   0  0  0  0  0  0
   25.7074   21.9416   14.0226 C   0  0  0  0  0  0
   28.7271   20.3330   18.7720 C   0  0  0  0  0  0
   28.5025   21.6286   19.4944 C   0  0  0  0  0  0
   25.5651   24.4517   11.4064 F   0  0  0  0  0  0
   19.4788   21.0684   16.7152 S   0  0  0  0  0  0
   18.9406   22.4116   16.5222 O   0  0  0  0  0  0
   18.9805   20.2757   17.8349 O   0  0  0  0  0  0
   19.2688   20.1455   15.2159 C   0  0  0  0  0  0
   26.0540   19.8386   18.5223 H   0  0  0  0  0  0
   25.7772   21.3754   19.3885 H   0  0  0  0  0  0
   28.1773   23.0354   17.1758 H   0  0  0  0  0  0
   28.4586   21.4990   16.3100 H   0  0  0  0  0  0
   23.8484   23.0387   15.7185 H   0  0  0  0  0  0
   21.4100   22.8602   15.4986 H   0  0  0  0  0  0
   21.4028   19.5577   18.2869 H   0  0  0  0  0  0
   23.8400   19.7221   18.4910 H   0  0  0  0  0  0
   26.7625   24.6961   15.7352 H   0  0  0  0  0  0
   26.4073   25.7195   13.5169 H   0  0  0  0  0  0
   25.1559   21.9357   11.9332 H   0  0  0  0  0  0
   25.5175   20.8754   14.1362 H   0  0  0  0  0  0
   29.6266   20.2361   18.1739 H   0  0  0  0  0  0
   28.4360   19.4168   19.2737 H   0  0  0  0  0  0
   28.0596   21.5863   20.4834 H   0  0  0  0  0  0
   29.2515   22.4051   19.3845 H   0  0  0  0  0  0
   18.1979   20.0232   15.0405 H   0  0  0  0  0  0
   19.7402   19.1678   15.3304 H   0  0  0  0  0  0
   19.7194   20.7001   14.3906 H   0  0  0  0  0  0
  1  2  2  0  0  0
  1  5  1  0  0  0
  1  7  1  0  0  0
  2  3  1  0  0  0
  2  6  1  0  0  0
  3  4  1  0  0  0
  3 25  1  0  0  0
  3 26  1  0  0  0
  4  5  1  0  0  0
  4 18  1  0  0  0
  4 19  1  0  0  0
  5 27  1  0  0  0
  5 28  1  0  0  0
  6  8  2  0  0  0
  6 12  1  0  0  0
  7 13  2  0  0  0
  7 17  1  0  0  0
  8  9  1  0  0  0
  8 29  1  0  0  0
  9 10  2  0  0  0
  9 30  1  0  0  0
 10 11  1  0  0  0
 10 21  1  0  0  0
 11 12  2  0  0  0
 11 31  1  0  0  0
 12 32  1  0  0  0
 13 14  1  0  0  0
 13 33  1  0  0  0
 14 15  2  0  0  0
 14 34  1  0  0  0
 15 16  1  0  0  0
 15 20  1  0  0  0
 16 17  2  0  0  0
 16 35  1  0  0  0
 17 36  1  0  0  0
 18 19  1  0  0  0
 18 37  1  0  0  0
 18 38  1  0  0  0
 19 39  1  0  0  0
 19 40  1  0  0  0
 21 22  2  0  0  0
 21 23  2  0  0  0
 21 24  1  0  0  0
 24 41  1  0  0  0
 24 42  1  0  0  0
 24 43  1  0  0  0
M  END
>  <Name>
9-3

>  <Family>
F

>  <IC50_uM>
0.007500

>  <set>
2

$$$$
9-20
  Cerius2 12120216103D 1   1.00000                          
 Structure written by MMmdl.
 47 50  0  0  0  0  0  0  0  0999 V2000
   26.3893   22.0788   16.4221 C   0  0  0  0  0  0
   25.4985   21.5012   17.2584 C   0  0  0  0  0  0
   26.1856   20.9281   18.4794 C   0  0  0  0  0  0
   27.6484   21.2767   18.3003 C   0  0  0  0  0  0
   27.7913   22.0216   16.9902 C   0  0  0  0  0  0
   24.0405   21.3911   17.1174 C   0  0  0  0  0  0
   26.1533   22.7051   15.1160 C   0  0  0  0  0  0
   23.3346   22.2669   16.2783 C   0  0  0  0  0  0
   21.9453   22.1745   16.1491 C   0  0  0  0  0  0
   21.2495   21.2068   16.8745 C   0  0  0  0  0  0
   21.9329   20.3251   17.7140 C   0  0  0  0  0  0
   23.3231   20.4260   17.8387 C   0  0  0  0  0  0
   26.4117   24.0648   14.9163 C   0  0  0  0  0  0
   26.1902   24.6522   13.6654 C   0  0  0  0  0  0
   25.7139   23.8941   12.5834 C   0  0  0  0  0  0
   25.4691   22.5338   12.7801 C   0  0  0  0  0  0
   25.6915   21.9470   14.0328 C   0  0  0  0  0  0
   28.7354   20.3355   18.7733 C   0  0  0  0  0  0
   28.5111   21.6330   19.4922 C   0  0  0  0  0  0
   19.4848   21.0730   16.7020 S   0  0  0  0  0  0
   18.9498   22.4176   16.5072 O   0  0  0  0  0  0
   18.9811   20.2810   17.8198 O   0  0  0  0  0  0
   19.2798   20.1479   15.2034 C   0  0  0  0  0  0
   26.5193   26.3448   13.4964 Cl  0  0  0  0  0  0
   25.5239   24.5561   11.3978 O   0  0  0  0  0  0
   25.0358   23.7950   10.2950 C   0  0  0  0  0  0
   26.0582   19.8420   18.5352 H   0  0  0  0  0  0
   25.7852   21.3859   19.3911 H   0  0  0  0  0  0
   28.1900   23.0261   17.1660 H   0  0  0  0  0  0
   28.4584   21.4833   16.3079 H   0  0  0  0  0  0
   23.8609   23.0389   15.7195 H   0  0  0  0  0  0
   21.4247   22.8637   15.4878 H   0  0  0  0  0  0
   21.4009   19.5606   18.2756 H   0  0  0  0  0  0
   23.8385   19.7259   18.4947 H   0  0  0  0  0  0
   26.7689   24.6813   15.7377 H   0  0  0  0  0  0
   25.1060   21.8902   11.9836 H   0  0  0  0  0  0
   25.5023   20.8800   14.1484 H   0  0  0  0  0  0
   29.6326   20.2374   18.1717 H   0  0  0  0  0  0
   28.4462   19.4199   19.2778 H   0  0  0  0  0  0
   28.0729   21.5918   20.4836 H   0  0  0  0  0  0
   29.2575   22.4114   19.3784 H   0  0  0  0  0  0
   18.2097   20.0292   15.0201 H   0  0  0  0  0  0
   19.7464   19.1683   15.3239 H   0  0  0  0  0  0
   19.7381   20.6980   14.3791 H   0  0  0  0  0  0
   24.9474   24.4708    9.4387 H   0  0  0  0  0  0
   24.0405   23.3901   10.5053 H   0  0  0  0  0  0
   25.7400   23.0027   10.0216 H   0  0  0  0  0  0
  1  2  2  0  0  0
  1  5  1  0  0  0
  1  7  1  0  0  0
  2  3  1  0  0  0
  2  6  1  0  0  0
  3  4  1  0  0  0
  3 27  1  0  0  0
  3 28  1  0  0  0
  4  5  1  0  0  0
  4 18  1  0  0  0
  4 19  1  0  0  0
  5 29  1  0  0  0
  5 30  1  0  0  0
  6  8  2  0  0  0
  6 12  1  0  0  0
  7 13  2  0  0  0
  7 17  1  0  0  0
  8  9  1  0  0  0
  8 31  1  0  0  0
  9 10  2  0  0  0
  9 32  1  0  0  0
 10 11  1  0  0  0
 10 20  1  0  0  0
 11 12  2  0  0  0
 11 33  1  0  0  0
 12 34  1  0  0  0
 13 14  1  0  0  0
 13 35  1  0  0  0
 14 15  2  0  0  0
 14 24  1  0  0  0
 15 16  1  0  0  0
 15 25  1  0  0  0
 16 17  2  0  0  0
 16 36  1  0  0  0
 17 37  1  0  0  0
 18 19  1  0  0  0
 18 38  1  0  0  0
 18 39  1  0  0  0
 19 40  1  0  0  0
 19 41  1  0  0  0
 20 21  2  0  0  0
 20 22  2  0  0  0
 20 23  1  0  0  0
 23 42  1  0  0  0
 23 43  1  0  0  0
 23 44  1  0  0  0
 25 26  1  0  0  0
 26 45  1  0  0  0
 26 46  1  0  0  0
 26 47  1  0  0  0
M  END
>  <Name>
9-20

>  <Family>
F

>  <IC50_uM>
0.017000

>  <set>
0

$$$$
9-24
  Cerius2 12120216103D 1   1.00000                          
 Structure written by MMmdl.
 46 49  0  0  0  0  0  0  0  0999 V2000
   26.3866   22.0832   16.4238 C   0  0  0  0  0  0
   25.4959   21.5021   17.2569 C   0  0  0  0  0  0
   26.1827   20.9209   18.4746 C   0  0  0  0  0  0
   27.6452   21.2706   18.2975 C   0  0  0  0  0  0
   27.7888   22.0248   16.9922 C   0  0  0  0  0  0
   24.0389   21.3898   17.1147 C   0  0  0  0  0  0
   26.1521   22.7071   15.1160 C   0  0  0  0  0  0
   23.3316   22.2678   16.2788 C   0  0  0  0  0  0
   21.9417   22.1758   16.1533 C   0  0  0  0  0  0
   21.2462   21.2076   16.8800 C   0  0  0  0  0  0
   21.9329   20.3260   17.7173 C   0  0  0  0  0  0
   23.3233   20.4242   17.8368 C   0  0  0  0  0  0
   26.4064   24.0673   14.9161 C   0  0  0  0  0  0
   26.1967   24.6513   13.6613 C   0  0  0  0  0  0
   25.7349   23.8888   12.5763 C   0  0  0  0  0  0
   25.4878   22.5291   12.7754 C   0  0  0  0  0  0
   25.6987   21.9462   14.0316 C   0  0  0  0  0  0
   28.7298   20.3239   18.7656 C   0  0  0  0  0  0
   28.5056   21.6168   19.4935 C   0  0  0  0  0  0
   19.4885   21.0704   16.7051 S   0  0  0  0  0  0
   18.9299   22.3805   16.4195 O   0  0  0  0  0  0
   18.9599   20.2670   17.7930 O   0  0  0  0  0  0
   19.3474   20.1610   15.3055 N   0  0  0  0  0  0
   26.5254   26.3436   13.4917 Cl  0  0  0  0  0  0
   25.5613   24.5446   11.3846 O   0  0  0  0  0  0
   25.0941   23.7760   10.2781 C   0  0  0  0  0  0
   26.0555   19.8343   18.5206 H   0  0  0  0  0  0
   25.7823   21.3693   19.3906 H   0  0  0  0  0  0
   28.1851   23.0295   17.1729 H   0  0  0  0  0  0
   28.4572   21.4931   16.3056 H   0  0  0  0  0  0
   23.8564   23.0421   15.7205 H   0  0  0  0  0  0
   21.4157   22.8661   15.4979 H   0  0  0  0  0  0
   21.3999   19.5644   18.2831 H   0  0  0  0  0  0
   23.8391   19.7237   18.4919 H   0  0  0  0  0  0
   26.7553   24.6867   15.7394 H   0  0  0  0  0  0
   25.1324   21.8829   11.9775 H   0  0  0  0  0  0
   25.5092   20.8796   14.1484 H   0  0  0  0  0  0
   29.6294   20.2289   18.1672 H   0  0  0  0  0  0
   28.4382   19.4056   19.2634 H   0  0  0  0  0  0
   28.0622   21.5697   20.4820 H   0  0  0  0  0  0
   29.2529   22.3953   19.3872 H   0  0  0  0  0  0
   18.8740   20.6881   14.5674 H   0  0  0  0  0  0
   18.8784   19.2702   15.4891 H   0  0  0  0  0  0
   25.0127   24.4473    9.4176 H   0  0  0  0  0  0
   24.0980   23.3668   10.4766 H   0  0  0  0  0  0
   25.8064   22.9857   10.0191 H   0  0  0  0  0  0
  1  2  2  0  0  0
  1  5  1  0  0  0
  1  7  1  0  0  0
  2  3  1  0  0  0
  2  6  1  0  0  0
  3  4  1  0  0  0
  3 27  1  0  0  0
  3 28  1  0  0  0
  4  5  1  0  0  0
  4 18  1  0  0  0
  4 19  1  0  0  0
  5 29  1  0  0  0
  5 30  1  0  0  0
  6  8  2  0  0  0
  6 12  1  0  0  0
  7 13  2  0  0  0
  7 17  1  0  0  0
  8  9  1  0  0  0
  8 31  1  0  0  0
  9 10  2  0  0  0
  9 32  1  0  0  0
 10 11  1  0  0  0
 10 20  1  0  0  0
 11 12  2  0  0  0
 11 33  1  0  0  0
 12 34  1  0  0  0
 13 14  1  0  0  0
 13 35  1  0  0  0
 14 15  2  0  0  0
 14 24  1  0  0  0
 15 16  1  0  0  0
 15 25  1  0  0  0
 16 17  2  0  0  0
 16 36  1  0  0  0
 17 37  1  0  0  0
 18 19  1  0  0  0
 18 38  1  0  0  0
 18 39  1  0  0  0
 19 40  1  0  0  0
 19 41  1  0  0  0
 20 21  2  0  0  0
 20 22  2  0  0  0
 20 23  1  0  0  0
 23 42  1  0  0  0
 23 43  1  0  0  0
 25 26  1  0  0  0
 26 44  1  0  0  0
 26 45  1  0  0  0
 26 46  1  0  0  0
M  END
>  <Name>
9-24

>  <Family>
F

>  <IC50_uM>
0.002000

>  <set>
0

$$$$
9-32
  Cerius2 12120216103D 1   1.00000                          
 Structure written by MMmdl.
 42 45  0  0  0  0  0  0  0  0999 V2000
   26.3851   22.0824   16.4206 C   0  0  0  0  0  0
   25.4935   21.5014   17.2536 C   0  0  0  0  0  0
   26.1802   20.9254   18.4743 C   0  0  0  0  0  0
   27.6416   21.2820   18.3016 C   0  0  0  0  0  0
   27.7857   22.0302   16.9934 C   0  0  0  0  0  0
   24.0359   21.3870   17.1135 C   0  0  0  0  0  0
   26.1553   22.7058   15.1114 C   0  0  0  0  0  0
   23.3250   22.2646   16.2799 C   0  0  0  0  0  0
   21.9350   22.1713   16.1592 C   0  0  0  0  0  0
   21.2420   21.2023   16.8876 C   0  0  0  0  0  0
   21.9312   20.3217   17.7232 C   0  0  0  0  0  0
   23.3222   20.4212   17.8380 C   0  0  0  0  0  0
   26.4141   24.0706   14.9147 C   0  0  0  0  0  0
   26.2113   24.6607   13.6641 C   0  0  0  0  0  0
   25.7569   23.8851   12.6055 C   0  0  0  0  0  0
   25.5033   22.5303   12.7724 C   0  0  0  0  0  0
   25.7058   21.9410   14.0231 C   0  0  0  0  0  0
   28.7293   20.3452   18.7816 C   0  0  0  0  0  0
   28.4966   21.6432   19.4973 C   0  0  0  0  0  0
   25.5635   24.4512   11.4068 F   0  0  0  0  0  0
   19.4844   21.0707   16.7102 S   0  0  0  0  0  0
   18.9272   22.3806   16.4220 O   0  0  0  0  0  0
   18.9567   20.2697   17.8006 O   0  0  0  0  0  0
   19.3388   20.1626   15.3100 N   0  0  0  0  0  0
   26.0576   19.8383   18.5206 H   0  0  0  0  0  0
   25.7745   21.3730   19.3885 H   0  0  0  0  0  0
   28.1776   23.0369   17.1722 H   0  0  0  0  0  0
   28.4580   21.4977   16.3115 H   0  0  0  0  0  0
   23.8472   23.0388   15.7193 H   0  0  0  0  0  0
   21.4048   22.8605   15.5054 H   0  0  0  0  0  0
   21.4019   19.5590   18.2902 H   0  0  0  0  0  0
   23.8406   19.7208   18.4911 H   0  0  0  0  0  0
   26.7616   24.6957   15.7355 H   0  0  0  0  0  0
   26.4056   25.7193   13.5171 H   0  0  0  0  0  0
   25.1534   21.9355   11.9339 H   0  0  0  0  0  0
   25.5156   20.8749   14.1369 H   0  0  0  0  0  0
   29.6304   20.2494   18.1859 H   0  0  0  0  0  0
   28.4406   19.4302   19.2869 H   0  0  0  0  0  0
   28.0504   21.6038   20.4849 H   0  0  0  0  0  0
   29.2420   22.4229   19.3858 H   0  0  0  0  0  0
   18.8608   20.6916   14.5759 H   0  0  0  0  0  0
   18.8698   19.2721   15.4947 H   0  0  0  0  0  0
  1  2  2  0  0  0
  1  5  1  0  0  0
  1  7  1  0  0  0
  2  3  1  0  0  0
  2  6  1  0  0  0
  3  4  1  0  0  0
  3 25  1  0  0  0
  3 26  1  0  0  0
  4  5  1  0  0  0
  4 18  1  0  0  0
  4 19  1  0  0  0
  5 27  1  0  0  0
  5 28  1  0  0  0
  6  8  2  0  0  0
  6 12  1  0  0  0
  7 13  2  0  0  0
  7 17  1  0  0  0
  8  9  1  0  0  0
  8 29  1  0  0  0
  9 10  2  0  0  0
  9 30  1  0  0  0
 10 11  1  0  0  0
 10 21  1  0  0  0
 11 12  2  0  0  0
 11 31  1  0  0  0
 12 32  1  0  0  0
 13 14  1  0  0  0
 13 33  1  0  0  0
 14 15  2  0  0  0
 14 34  1  0  0  0
 15 16  1  0  0  0
 15 20  1  0  0  0
 16 17  2  0  0  0
 16 35  1  0  0  0
 17 36  1  0  0  0
 18 19  1  0  0  0
 18 37  1  0  0  0
 18 38  1  0  0  0
 19 39  1  0  0  0
 19 40  1  0  0  0
 21 22  2  0  0  0
 21 23  2  0  0  0
 21 24  1  0  0  0
 24 41  1  0  0  0
 24 42  1  0  0  0
M  END
>  <Name>
9-32

>  <Family>
F

>  <IC50_uM>
0.003000

>  <set>
0

$$$$
9-33
  Cerius2 12120216103D 1   1.00000                          
 Structure written by MMmdl.
 43 46  0  0  0  0  0  0  0  0999 V2000
   26.3852   22.0831   16.4210 C   0  0  0  0  0  0
   25.4930   21.5017   17.2532 C   0  0  0  0  0  0
   26.1789   20.9252   18.4740 C   0  0  0  0  0  0
   27.6414   21.2756   18.2994 C   0  0  0  0  0  0
   27.7853   22.0304   16.9951 C   0  0  0  0  0  0
   24.0356   21.3867   17.1121 C   0  0  0  0  0  0
   26.1570   22.7064   15.1115 C   0  0  0  0  0  0
   23.3247   22.2638   16.2784 C   0  0  0  0  0  0
   21.9348   22.1703   16.1561 C   0  0  0  0  0  0
   21.2431   21.2017   16.8850 C   0  0  0  0  0  0
   21.9312   20.3202   17.7202 C   0  0  0  0  0  0
   23.3217   20.4204   17.8359 C   0  0  0  0  0  0
   26.4154   24.0699   14.9135 C   0  0  0  0  0  0
   26.2146   24.6610   13.6617 C   0  0  0  0  0  0
   25.7609   23.8892   12.5953 C   0  0  0  0  0  0
   25.5089   22.5314   12.7700 C   0  0  0  0  0  0
   25.7100   21.9430   14.0228 C   0  0  0  0  0  0
   28.7253   20.3287   18.7685 C   0  0  0  0  0  0
   28.5029   21.6227   19.4946 C   0  0  0  0  0  0
   25.5146   24.6157   11.0548 Cl  0  0  0  0  0  0
   19.4777   21.0696   16.7190 S   0  0  0  0  0  0
   18.9401   22.4142   16.5347 O   0  0  0  0  0  0
   18.9814   20.2709   17.8353 O   0  0  0  0  0  0
   19.2641   20.1555   15.2148 C   0  0  0  0  0  0
   26.0519   19.8387   18.5233 H   0  0  0  0  0  0
   25.7762   21.3769   19.3874 H   0  0  0  0  0  0
   28.1746   23.0371   17.1798 H   0  0  0  0  0  0
   28.4597   21.5032   16.3112 H   0  0  0  0  0  0
   23.8471   23.0381   15.7181 H   0  0  0  0  0  0
   21.4088   22.8597   15.4993 H   0  0  0  0  0  0
   21.4029   19.5563   18.2865 H   0  0  0  0  0  0
   23.8399   19.7200   18.4891 H   0  0  0  0  0  0
   26.7619   24.6957   15.7342 H   0  0  0  0  0  0
   26.4142   25.7221   13.5322 H   0  0  0  0  0  0
   25.1598   21.9204   11.9411 H   0  0  0  0  0  0
   25.5198   20.8768   14.1362 H   0  0  0  0  0  0
   29.6241   20.2321   18.1692 H   0  0  0  0  0  0
   28.4332   19.4114   19.2678 H   0  0  0  0  0  0
   28.0605   21.5783   20.4837 H   0  0  0  0  0  0
   29.2527   22.3986   19.3860 H   0  0  0  0  0  0
   18.1928   20.0356   15.0405 H   0  0  0  0  0  0
   19.7345   19.1764   15.3232 H   0  0  0  0  0  0
   19.7143   20.7142   14.3921 H   0  0  0  0  0  0
  1  2  2  0  0  0
  1  5  1  0  0  0
  1  7  1  0  0  0
  2  3  1  0  0  0
  2  6  1  0  0  0
  3  4  1  0  0  0
  3 25  1  0  0  0
  3 26  1  0  0  0
  4  5  1  0  0  0
  4 18  1  0  0  0
  4 19  1  0  0  0
  5 27  1  0  0  0
  5 28  1  0  0  0
  6  8  2  0  0  0
  6 12  1  0  0  0
  7 13  2  0  0  0
  7 17  1  0  0  0
  8  9  1  0  0  0
  8 29  1  0  0  0
  9 10  2  0  0  0
  9 30  1  0  0  0
 10 11  1  0  0  0
 10 21  1  0  0  0
 11 12  2  0  0  0
 11 31  1  0  0  0
 12 32  1  0  0  0
 13 14  1  0  0  0
 13 33  1  0  0  0
 14 15  2  0  0  0
 14 34  1  0  0  0
 15 16  1  0  0  0
 15 20  1  0  0  0
 16 17  2  0  0  0
 16 35  1  0  0  0
 17 36  1  0  0  0
 18 19  1  0  0  0
 18 37  1  0  0  0
 18 38  1  0  0  0
 19 39  1  0  0  0
 19 40  1  0  0  0
 21 22  2  0  0  0
 21 23  2  0  0  0
 21 24  1  0  0  0
 24 41  1  0  0  0
 24 42  1  0  0  0
 24 43  1  0  0  0
M  END
>  <Name>
9-33

>  <Family>
F

>  <IC50_uM>
0.001000

>  <set>
0

$$$$
9-34
  Cerius2 12120216103D 1   1.00000                          
 Structure written by MMmdl.
 42 45  0  0  0  0  0  0  0  0999 V2000
   26.3848   22.0815   16.4203 C   0  0  0  0  0  0
   25.4935   21.5014   17.2544 C   0  0  0  0  0  0
   26.1808   20.9280   18.4761 C   0  0  0  0  0  0
   27.6428   21.2810   18.3005 C   0  0  0  0  0  0
   27.7857   22.0282   16.9919 C   0  0  0  0  0  0
   24.0359   21.3869   17.1139 C   0  0  0  0  0  0
   26.1551   22.7055   15.1117 C   0  0  0  0  0  0
   23.3251   22.2638   16.2798 C   0  0  0  0  0  0
   21.9350   22.1699   16.1585 C   0  0  0  0  0  0
   21.2420   21.2010   16.8868 C   0  0  0  0  0  0
   21.9312   20.3203   17.7223 C   0  0  0  0  0  0
   23.3222   20.4205   17.8376 C   0  0  0  0  0  0
   26.4134   24.0691   14.9148 C   0  0  0  0  0  0
   26.2112   24.6611   13.6637 C   0  0  0  0  0  0
   25.7559   23.8899   12.5975 C   0  0  0  0  0  0
   25.5035   22.5322   12.7715 C   0  0  0  0  0  0
   25.7061   21.9428   14.0234 C   0  0  0  0  0  0
   28.7287   20.3404   18.7771 C   0  0  0  0  0  0
   28.5028   21.6392   19.4935 C   0  0  0  0  0  0
   25.5087   24.6175   11.0575 Cl  0  0  0  0  0  0
   19.4840   21.0720   16.7105 S   0  0  0  0  0  0
   18.9282   22.3826   16.4232 O   0  0  0  0  0  0
   18.9560   20.2706   17.8005 O   0  0  0  0  0  0
   19.3362   20.1654   15.3095 N   0  0  0  0  0  0
   26.0559   19.8414   18.5270 H   0  0  0  0  0  0
   25.7776   21.3804   19.3890 H   0  0  0  0  0  0
   28.1785   23.0349   17.1699 H   0  0  0  0  0  0
   28.4570   21.4953   16.3094 H   0  0  0  0  0  0
   23.8472   23.0380   15.7190 H   0  0  0  0  0  0
   21.4049   22.8588   15.5042 H   0  0  0  0  0  0
   21.4022   19.5570   18.2888 H   0  0  0  0  0  0
   23.8407   19.7202   18.4906 H   0  0  0  0  0  0
   26.7610   24.6942   15.7356 H   0  0  0  0  0  0
   26.4109   25.7223   13.5349 H   0  0  0  0  0  0
   25.1530   21.9219   11.9427 H   0  0  0  0  0  0
   25.5163   20.8765   14.1365 H   0  0  0  0  0  0
   29.6278   20.2415   18.1788 H   0  0  0  0  0  0
   28.4386   19.4264   19.2834 H   0  0  0  0  0  0
   28.0594   21.6017   20.4824 H   0  0  0  0  0  0
   29.2506   22.4163   19.3794 H   0  0  0  0  0  0
   18.8576   20.6954   14.5766 H   0  0  0  0  0  0
   18.8674   19.2746   15.4932 H   0  0  0  0  0  0
  1  2  2  0  0  0
  1  5  1  0  0  0
  1  7  1  0  0  0
  2  3  1  0  0  0
  2  6  1  0  0  0
  3  4  1  0  0  0
  3 25  1  0  0  0
  3 26  1  0  0  0
  4  5  1  0  0  0
  4 18  1  0  0  0
  4 19  1  0  0  0
  5 27  1  0  0  0
  5 28  1  0  0  0
  6  8  2  0  0  0
  6 12  1  0  0  0
  7 13  2  0  0  0
  7 17  1  0  0  0
  8  9  1  0  0  0
  8 29  1  0  0  0
  9 10  2  0  0  0
  9 30  1  0  0  0
 10 11  1  0  0  0
 10 21  1  0  0  0
 11 12  2  0  0  0
 11 31  1  0  0  0
 12 32  1  0  0  0
 13 14  1  0  0  0
 13 33  1  0  0  0
 14 15  2  0  0  0
 14 34  1  0  0  0
 15 16  1  0  0  0
 15 20  1  0  0  0
 16 17  2  0  0  0
 16 35  1  0  0  0
 17 36  1  0  0  0
 18 19  1  0  0  0
 18 37  1  0  0  0
 18 38  1  0  0  0
 19 39  1  0  0  0
 19 40  1  0  0  0
 21 22  2  0  0  0
 21 23  2  0  0  0
 21 24  1  0  0  0
 24 41  1  0  0  0
 24 42  1  0  0  0
M  END
>  <Name>
9-34

>  <Family>
F

>  <IC50_uM>
0.001000

>  <set>
0

$$$$
9-35
  Cerius2 12120216103D 1   1.00000                          
 Structure written by MMmdl.
 46 49  0  0  0  0  0  0  0  0999 V2000
   26.3843   22.0823   16.4202 C   0  0  0  0  0  0
   25.4919   21.5018   17.2530 C   0  0  0  0  0  0
   26.1775   20.9264   18.4747 C   0  0  0  0  0  0
   27.6398   21.2772   18.3010 C   0  0  0  0  0  0
   27.7845   22.0288   16.9947 C   0  0  0  0  0  0
   24.0341   21.3867   17.1131 C   0  0  0  0  0  0
   26.1590   22.7065   15.1097 C   0  0  0  0  0  0
   23.3225   22.2633   16.2796 C   0  0  0  0  0  0
   21.9324   22.1695   16.1584 C   0  0  0  0  0  0
   21.2413   21.2008   16.8877 C   0  0  0  0  0  0
   21.9301   20.3200   17.7231 C   0  0  0  0  0  0
   23.3208   20.4207   17.8379 C   0  0  0  0  0  0
   26.4155   24.0689   14.9127 C   0  0  0  0  0  0
   26.2189   24.6613   13.6604 C   0  0  0  0  0  0
   25.7788   23.8978   12.5748 C   0  0  0  0  0  0
   25.5171   22.5379   12.7665 C   0  0  0  0  0  0
   25.7144   21.9475   14.0193 C   0  0  0  0  0  0
   28.7242   20.3334   18.7747 C   0  0  0  0  0  0
   28.4989   21.6294   19.4963 C   0  0  0  0  0  0
   25.5344   24.5400   11.2409 C   0  0  0  0  0  0
   19.4762   21.0669   16.7203 S   0  0  0  0  0  0
   18.9369   22.4113   16.5406 O   0  0  0  0  0  0
   18.9806   20.2635   17.8335 O   0  0  0  0  0  0
   19.2646   20.1575   15.2128 C   0  0  0  0  0  0
   26.0510   19.8399   18.5245 H   0  0  0  0  0  0
   25.7740   21.3782   19.3877 H   0  0  0  0  0  0
   28.1757   23.0351   17.1773 H   0  0  0  0  0  0
   28.4579   21.4986   16.3121 H   0  0  0  0  0  0
   23.8447   23.0364   15.7175 H   0  0  0  0  0  0
   21.4060   22.8583   15.5012 H   0  0  0  0  0  0
   21.4023   19.5560   18.2899 H   0  0  0  0  0  0
   23.8395   19.7208   18.4911 H   0  0  0  0  0  0
   26.7553   24.6955   15.7356 H   0  0  0  0  0  0
   26.4127   25.7268   13.5421 H   0  0  0  0  0  0
   25.1602   21.9229   11.9413 H   0  0  0  0  0  0
   25.5196   20.8817   14.1306 H   0  0  0  0  0  0
   29.6238   20.2364   18.1767 H   0  0  0  0  0  0
   28.4322   19.4173   19.2760 H   0  0  0  0  0  0
   28.0545   21.5878   20.4845 H   0  0  0  0  0  0
   29.2473   22.4063   19.3861 H   0  0  0  0  0  0
   25.7000   23.8258   10.4274 H   0  0  0  0  0  0
   26.2193   25.3794   11.0805 H   0  0  0  0  0  0
   24.5051   24.9072   11.1858 H   0  0  0  0  0  0
   18.1934   20.0352   15.0389 H   0  0  0  0  0  0
   19.7378   19.1796   15.3173 H   0  0  0  0  0  0
   19.7126   20.7206   14.3919 H   0  0  0  0  0  0
  1  2  2  0  0  0
  1  5  1  0  0  0
  1  7  1  0  0  0
  2  3  1  0  0  0
  2  6  1  0  0  0
  3  4  1  0  0  0
  3 25  1  0  0  0
  3 26  1  0  0  0
  4  5  1  0  0  0
  4 18  1  0  0  0
  4 19  1  0  0  0
  5 27  1  0  0  0
  5 28  1  0  0  0
  6  8  2  0  0  0
  6 12  1  0  0  0
  7 13  2  0  0  0
  7 17  1  0  0  0
  8  9  1  0  0  0
  8 29  1  0  0  0
  9 10  2  0  0  0
  9 30  1  0  0  0
 10 11  1  0  0  0
 10 21  1  0  0  0
 11 12  2  0  0  0
 11 31  1  0  0  0
 12 32  1  0  0  0
 13 14  1  0  0  0
 13 33  1  0  0  0
 14 15  2  0  0  0
 14 34  1  0  0  0
 15 16  1  0  0  0
 15 20  1  0  0  0
 16 17  2  0  0  0
 16 35  1  0  0  0
 17 36  1  0  0  0
 18 19  1  0  0  0
 18 37  1  0  0  0
 18 38  1  0  0  0
 19 39  1  0  0  0
 19 40  1  0  0  0
 20 41  1  0  0  0
 20 42  1  0  0  0
 20 43  1  0  0  0
 21 22  2  0  0  0
 21 23  2  0  0  0
 21 24  1  0  0  0
 24 44  1  0  0  0
 24 45  1  0  0  0
 24 46  1  0  0  0
M  END
>  <Name>
9-35

>  <Family>
F

>  <IC50_uM>
0.001500

>  <set>
1

$$$$
9-36
  Cerius2 12120216103D 1   1.00000                          
 Structure written by MMmdl.
 47 50  0  0  0  0  0  0  0  0999 V2000
   26.3845   22.0817   16.4208 C   0  0  0  0  0  0
   25.4927   21.5015   17.2542 C   0  0  0  0  0  0
   26.1789   20.9250   18.4749 C   0  0  0  0  0  0
   27.6410   21.2770   18.3008 C   0  0  0  0  0  0
   27.7851   22.0278   16.9942 C   0  0  0  0  0  0
   24.0352   21.3874   17.1146 C   0  0  0  0  0  0
   26.1565   22.7053   15.1112 C   0  0  0  0  0  0
   23.3243   22.2645   16.2808 C   0  0  0  0  0  0
   21.9345   22.1704   16.1581 C   0  0  0  0  0  0
   21.2428   21.2012   16.8865 C   0  0  0  0  0  0
   21.9308   20.3209   17.7229 C   0  0  0  0  0  0
   23.3213   20.4217   17.8392 C   0  0  0  0  0  0
   26.4140   24.0670   14.9111 C   0  0  0  0  0  0
   26.2155   24.6630   13.6579 C   0  0  0  0  0  0
   25.7635   23.9014   12.5818 C   0  0  0  0  0  0
   25.5142   22.5412   12.7712 C   0  0  0  0  0  0
   25.7116   21.9468   14.0221 C   0  0  0  0  0  0
   28.7259   20.3338   18.7753 C   0  0  0  0  0  0
   28.5006   21.6305   19.4957 C   0  0  0  0  0  0
   19.4779   21.0678   16.7159 S   0  0  0  0  0  0
   18.9397   22.4104   16.5203 O   0  0  0  0  0  0
   18.9795   20.2769   17.8367 O   0  0  0  0  0  0
   19.2689   20.1435   15.2173 C   0  0  0  0  0  0
   25.5317   24.3576   11.3139 O   0  0  0  0  0  0
   25.7780   25.7428   11.0762 C   0  0  0  0  0  0
   26.0532   19.8382   18.5231 H   0  0  0  0  0  0
   25.7756   21.3752   19.3888 H   0  0  0  0  0  0
   28.1769   23.0343   17.1754 H   0  0  0  0  0  0
   28.4577   21.4968   16.3113 H   0  0  0  0  0  0
   23.8470   23.0381   15.7199 H   0  0  0  0  0  0
   21.4083   22.8589   15.5006 H   0  0  0  0  0  0
   21.4027   19.5573   18.2898 H   0  0  0  0  0  0
   23.8396   19.7221   18.4929 H   0  0  0  0  0  0
   26.7597   24.6928   15.7325 H   0  0  0  0  0  0
   26.4247   25.7253   13.5646 H   0  0  0  0  0  0
   25.1656   21.9296   11.9409 H   0  0  0  0  0  0
   25.5203   20.8805   14.1303 H   0  0  0  0  0  0
   29.6248   20.2357   18.1767 H   0  0  0  0  0  0
   28.4346   19.4183   19.2779 H   0  0  0  0  0  0
   28.0568   21.5897   20.4843 H   0  0  0  0  0  0
   29.2489   22.4074   19.3847 H   0  0  0  0  0  0
   18.1981   20.0217   15.0407 H   0  0  0  0  0  0
   19.7395   19.1654   15.3331 H   0  0  0  0  0  0
   19.7210   20.6975   14.3925 H   0  0  0  0  0  0
   25.5506   25.9450   10.0252 H   0  0  0  0  0  0
   26.8315   25.9895   11.2434 H   0  0  0  0  0  0
   25.1200   26.3694   11.6873 H   0  0  0  0  0  0
  1  2  2  0  0  0
  1  5  1  0  0  0
  1  7  1  0  0  0
  2  3  1  0  0  0
  2  6  1  0  0  0
  3  4  1  0  0  0
  3 26  1  0  0  0
  3 27  1  0  0  0
  4  5  1  0  0  0
  4 18  1  0  0  0
  4 19  1  0  0  0
  5 28  1  0  0  0
  5 29  1  0  0  0
  6  8  2  0  0  0
  6 12  1  0  0  0
  7 13  2  0  0  0
  7 17  1  0  0  0
  8  9  1  0  0  0
  8 30  1  0  0  0
  9 10  2  0  0  0
  9 31  1  0  0  0
 10 11  1  0  0  0
 10 20  1  0  0  0
 11 12  2  0  0  0
 11 32  1  0  0  0
 12 33  1  0  0  0
 13 14  1  0  0  0
 13 34  1  0  0  0
 14 15  2  0  0  0
 14 35  1  0  0  0
 15 16  1  0  0  0
 15 24  1  0  0  0
 16 17  2  0  0  0
 16 36  1  0  0  0
 17 37  1  0  0  0
 18 19  1  0  0  0
 18 38  1  0  0  0
 18 39  1  0  0  0
 19 40  1  0  0  0
 19 41  1  0  0  0
 20 21  2  0  0  0
 20 22  2  0  0  0
 20 23  1  0  0  0
 23 42  1  0  0  0
 23 43  1  0  0  0
 23 44  1  0  0  0
 24 25  1  0  0  0
 25 45  1  0  0  0
 25 46  1  0  0  0
 25 47  1  0  0  0
M  END
>  <Name>
9-36

>  <Family>
F

>  <IC50_uM>
0.005000

>  <set>
1

$$$$
9-37
  Cerius2 12120216103D 1   1.00000                          
 Structure written by MMmdl.
 46 49  0  0  0  0  0  0  0  0999 V2000
   26.3846   22.0806   16.4204 C   0  0  0  0  0  0
   25.4930   21.5003   17.2542 C   0  0  0  0  0  0
   26.1804   20.9257   18.4752 C   0  0  0  0  0  0
   27.6417   21.2818   18.3019 C   0  0  0  0  0  0
   27.7851   22.0290   16.9933 C   0  0  0  0  0  0
   24.0351   21.3864   17.1153 C   0  0  0  0  0  0
   26.1558   22.7042   15.1110 C   0  0  0  0  0  0
   23.3241   22.2643   16.2823 C   0  0  0  0  0  0
   21.9341   22.1710   16.1614 C   0  0  0  0  0  0
   21.2409   21.2015   16.8891 C   0  0  0  0  0  0
   21.9297   20.3218   17.7257 C   0  0  0  0  0  0
   23.3208   20.4215   17.8408 C   0  0  0  0  0  0
   26.4135   24.0658   14.9114 C   0  0  0  0  0  0
   26.2132   24.6628   13.6590 C   0  0  0  0  0  0
   25.7586   23.9021   12.5833 C   0  0  0  0  0  0
   25.5095   22.5419   12.7720 C   0  0  0  0  0  0
   25.7088   21.9465   14.0223 C   0  0  0  0  0  0
   28.7298   20.3452   18.7817 C   0  0  0  0  0  0
   28.4970   21.6432   19.4973 C   0  0  0  0  0  0
   19.4835   21.0693   16.7089 S   0  0  0  0  0  0
   18.9259   22.3785   16.4191 O   0  0  0  0  0  0
   18.9550   20.2681   17.7988 O   0  0  0  0  0  0
   19.3404   20.1611   15.3085 N   0  0  0  0  0  0
   25.5237   24.3606   11.3167 O   0  0  0  0  0  0
   25.7711   25.7461   11.0806 C   0  0  0  0  0  0
   26.0578   19.8386   18.5227 H   0  0  0  0  0  0
   25.7753   21.3745   19.3891 H   0  0  0  0  0  0
   28.1771   23.0358   17.1714 H   0  0  0  0  0  0
   28.4575   21.4961   16.3117 H   0  0  0  0  0  0
   23.8463   23.0385   15.7216 H   0  0  0  0  0  0
   21.4040   22.8602   15.5076 H   0  0  0  0  0  0
   21.4002   19.5596   18.2930 H   0  0  0  0  0  0
   23.8387   19.7219   18.4951 H   0  0  0  0  0  0
   26.7605   24.6910   15.7327 H   0  0  0  0  0  0
   26.4226   25.7250   13.5659 H   0  0  0  0  0  0
   25.1592   21.9308   11.9419 H   0  0  0  0  0  0
   25.5172   20.8800   14.1305 H   0  0  0  0  0  0
   29.6309   20.2499   18.1860 H   0  0  0  0  0  0
   28.4410   19.4297   19.2862 H   0  0  0  0  0  0
   28.0504   21.6040   20.4848 H   0  0  0  0  0  0
   29.2421   22.4231   19.3856 H   0  0  0  0  0  0
   18.8631   20.6898   14.5738 H   0  0  0  0  0  0
   18.8715   19.2705   15.4925 H   0  0  0  0  0  0
   25.5416   25.9507   10.0306 H   0  0  0  0  0  0
   26.8255   25.9909   11.2460 H   0  0  0  0  0  0
   25.1156   26.3727   11.6943 H   0  0  0  0  0  0
  1  2  2  0  0  0
  1  5  1  0  0  0
  1  7  1  0  0  0
  2  3  1  0  0  0
  2  6  1  0  0  0
  3  4  1  0  0  0
  3 26  1  0  0  0
  3 27  1  0  0  0
  4  5  1  0  0  0
  4 18  1  0  0  0
  4 19  1  0  0  0
  5 28  1  0  0  0
  5 29  1  0  0  0
  6  8  2  0  0  0
  6 12  1  0  0  0
  7 13  2  0  0  0
  7 17  1  0  0  0
  8  9  1  0  0  0
  8 30  1  0  0  0
  9 10  2  0  0  0
  9 31  1  0  0  0
 10 11  1  0  0  0
 10 20  1  0  0  0
 11 12  2  0  0  0
 11 32  1  0  0  0
 12 33  1  0  0  0
 13 14  1  0  0  0
 13 34  1  0  0  0
 14 15  2  0  0  0
 14 35  1  0  0  0
 15 16  1  0  0  0
 15 24  1  0  0  0
 16 17  2  0  0  0
 16 36  1  0  0  0
 17 37  1  0  0  0
 18 19  1  0  0  0
 18 38  1  0  0  0
 18 39  1  0  0  0
 19 40  1  0  0  0
 19 41  1  0  0  0
 20 21  2  0  0  0
 20 22  2  0  0  0
 20 23  1  0  0  0
 23 42  1  0  0  0
 23 43  1  0  0  0
 24 25  1  0  0  0
 25 44  1  0  0  0
 25 45  1  0  0  0
 25 46  1  0  0  0
M  END
>  <Name>
9-37

>  <Family>
F

>  <IC50_uM>
0.001000

>  <set>
2

$$$$
9-38
  Cerius2 12120216103D 1   1.00000                          
 Structure written by MMmdl.
 47 50  0  0  0  0  0  0  0  0999 V2000
   26.3844   22.0822   16.4213 C   0  0  0  0  0  0
   25.4928   21.5009   17.2543 C   0  0  0  0  0  0
   26.1789   20.9236   18.4746 C   0  0  0  0  0  0
   27.6406   21.2774   18.3013 C   0  0  0  0  0  0
   27.7846   22.0295   16.9955 C   0  0  0  0  0  0
   24.0354   21.3866   17.1141 C   0  0  0  0  0  0
   26.1559   22.7051   15.1115 C   0  0  0  0  0  0
   23.3250   22.2636   16.2800 C   0  0  0  0  0  0
   21.9351   22.1700   16.1573 C   0  0  0  0  0  0
   21.2433   21.2014   16.8862 C   0  0  0  0  0  0
   21.9309   20.3201   17.7219 C   0  0  0  0  0  0
   23.3215   20.4204   17.8380 C   0  0  0  0  0  0
   26.4127   24.0664   14.9099 C   0  0  0  0  0  0
   26.2153   24.6632   13.6562 C   0  0  0  0  0  0
   25.7637   23.9025   12.5793 C   0  0  0  0  0  0
   25.5147   22.5412   12.7721 C   0  0  0  0  0  0
   25.7119   21.9469   14.0227 C   0  0  0  0  0  0
   28.7264   20.3356   18.7756 C   0  0  0  0  0  0
   28.4984   21.6312   19.4972 C   0  0  0  0  0  0
   19.4781   21.0695   16.7173 S   0  0  0  0  0  0
   18.9412   22.4130   16.5239 O   0  0  0  0  0  0
   18.9797   20.2778   17.8377 O   0  0  0  0  0  0
   19.2669   20.1468   15.2178 C   0  0  0  0  0  0
   25.5299   24.3480   11.3108 O   0  0  0  0  0  0
   25.7699   25.7207   11.0388 C   0  0  0  0  0  0
   25.4845   25.9607    9.7342 F   0  0  0  0  0  0
   27.0680   26.0444   11.2455 F   0  0  0  0  0  0
   24.9753   26.5180   11.7905 F   0  0  0  0  0  0
   26.0542   19.8367   18.5213 H   0  0  0  0  0  0
   25.7745   21.3722   19.3888 H   0  0  0  0  0  0
   28.1753   23.0361   17.1782 H   0  0  0  0  0  0
   28.4582   21.4999   16.3125 H   0  0  0  0  0  0
   23.8480   23.0371   15.7190 H   0  0  0  0  0  0
   21.4092   22.8586   15.4997 H   0  0  0  0  0  0
   21.4026   19.5561   18.2881 H   0  0  0  0  0  0
   23.8400   19.7203   18.4911 H   0  0  0  0  0  0
   26.7579   24.6926   15.7314 H   0  0  0  0  0  0
   26.4275   25.7259   13.5728 H   0  0  0  0  0  0
   25.1660   21.9263   11.9436 H   0  0  0  0  0  0
   25.5208   20.8803   14.1306 H   0  0  0  0  0  0
   29.6266   20.2400   18.1783 H   0  0  0  0  0  0
   28.4362   19.4190   19.2773 H   0  0  0  0  0  0
   28.0538   21.5888   20.4854 H   0  0  0  0  0  0
   29.2459   22.4092   19.3878 H   0  0  0  0  0  0
   18.1960   20.0245   15.0430 H   0  0  0  0  0  0
   19.7383   19.1689   15.3320 H   0  0  0  0  0  0
   19.7171   20.7015   14.3925 H   0  0  0  0  0  0
  1  2  2  0  0  0
  1  5  1  0  0  0
  1  7  1  0  0  0
  2  3  1  0  0  0
  2  6  1  0  0  0
  3  4  1  0  0  0
  3 29  1  0  0  0
  3 30  1  0  0  0
  4  5  1  0  0  0
  4 18  1  0  0  0
  4 19  1  0  0  0
  5 31  1  0  0  0
  5 32  1  0  0  0
  6  8  2  0  0  0
  6 12  1  0  0  0
  7 13  2  0  0  0
  7 17  1  0  0  0
  8  9  1  0  0  0
  8 33  1  0  0  0
  9 10  2  0  0  0
  9 34  1  0  0  0
 10 11  1  0  0  0
 10 20  1  0  0  0
 11 12  2  0  0  0
 11 35  1  0  0  0
 12 36  1  0  0  0
 13 14  1  0  0  0
 13 37  1  0  0  0
 14 15  2  0  0  0
 14 38  1  0  0  0
 15 16  1  0  0  0
 15 24  1  0  0  0
 16 17  2  0  0  0
 16 39  1  0  0  0
 17 40  1  0  0  0
 18 19  1  0  0  0
 18 41  1  0  0  0
 18 42  1  0  0  0
 19 43  1  0  0  0
 19 44  1  0  0  0
 20 21  2  0  0  0
 20 22  2  0  0  0
 20 23  1  0  0  0
 23 45  1  0  0  0
 23 46  1  0  0  0
 23 47  1  0  0  0
 24 25  1  0  0  0
 25 26  1  0  0  0
 25 27  1  0  0  0
 25 28  1  0  0  0
M  END
>  <Name>
9-38

>  <Family>
F

>  <IC50_uM>
0.135000

>  <set>
2

$$$$
9-39
  Cerius2 12120216103D 1   1.00000                          
 Structure written by MMmdl.
 46 49  0  0  0  0  0  0  0  0999 V2000
   26.3846   22.0806   16.4201 C   0  0  0  0  0  0
   25.4926   21.5007   17.2538 C   0  0  0  0  0  0
   26.1792   20.9253   18.4749 C   0  0  0  0  0  0
   27.6406   21.2809   18.3024 C   0  0  0  0  0  0
   27.7850   22.0279   16.9937 C   0  0  0  0  0  0
   24.0348   21.3869   17.1149 C   0  0  0  0  0  0
   26.1564   22.7041   15.1109 C   0  0  0  0  0  0
   23.3235   22.2647   16.2824 C   0  0  0  0  0  0
   21.9331   22.1712   16.1624 C   0  0  0  0  0  0
   21.2403   21.2017   16.8903 C   0  0  0  0  0  0
   21.9298   20.3224   17.7269 C   0  0  0  0  0  0
   23.3210   20.4222   17.8409 C   0  0  0  0  0  0
   26.4141   24.0654   14.9102 C   0  0  0  0  0  0
   26.2143   24.6638   13.6578 C   0  0  0  0  0  0
   25.7599   23.9048   12.5810 C   0  0  0  0  0  0
   25.5110   22.5432   12.7726 C   0  0  0  0  0  0
   25.7101   21.9471   14.0222 C   0  0  0  0  0  0
   28.7277   20.3437   18.7827 C   0  0  0  0  0  0
   28.4956   21.6419   19.4980 C   0  0  0  0  0  0
   19.4834   21.0675   16.7092 S   0  0  0  0  0  0
   18.9249   22.3762   16.4181 O   0  0  0  0  0  0
   18.9555   20.2674   17.8001 O   0  0  0  0  0  0
   19.3404   20.1582   15.3096 N   0  0  0  0  0  0
   25.5224   24.3522   11.3138 O   0  0  0  0  0  0
   25.7574   25.7263   11.0437 C   0  0  0  0  0  0
   25.4645   25.9684    9.7411 F   0  0  0  0  0  0
   27.0557   26.0526   11.2444 F   0  0  0  0  0  0
   24.9648   26.5203   11.8011 F   0  0  0  0  0  0
   26.0563   19.8381   18.5221 H   0  0  0  0  0  0
   25.7735   21.3736   19.3888 H   0  0  0  0  0  0
   28.1773   23.0345   17.1720 H   0  0  0  0  0  0
   28.4575   21.4947   16.3122 H   0  0  0  0  0  0
   23.8454   23.0389   15.7216 H   0  0  0  0  0  0
   21.4026   22.8603   15.5086 H   0  0  0  0  0  0
   21.4011   19.5600   18.2947 H   0  0  0  0  0  0
   23.8395   19.7224   18.4946 H   0  0  0  0  0  0
   26.7608   24.6903   15.7322 H   0  0  0  0  0  0
   26.4269   25.7265   13.5754 H   0  0  0  0  0  0
   25.1604   21.9297   11.9438 H   0  0  0  0  0  0
   25.5183   20.8806   14.1297 H   0  0  0  0  0  0
   29.6290   20.2475   18.1873 H   0  0  0  0  0  0
   28.4383   19.4290   19.2879 H   0  0  0  0  0  0
   28.0486   21.6032   20.4853 H   0  0  0  0  0  0
   29.2410   22.4215   19.3862 H   0  0  0  0  0  0
   18.8622   20.6862   14.5752 H   0  0  0  0  0  0
   18.8712   19.2677   15.4945 H   0  0  0  0  0  0
  1  2  2  0  0  0
  1  5  1  0  0  0
  1  7  1  0  0  0
  2  3  1  0  0  0
  2  6  1  0  0  0
  3  4  1  0  0  0
  3 29  1  0  0  0
  3 30  1  0  0  0
  4  5  1  0  0  0
  4 18  1  0  0  0
  4 19  1  0  0  0
  5 31  1  0  0  0
  5 32  1  0  0  0
  6  8  2  0  0  0
  6 12  1  0  0  0
  7 13  2  0  0  0
  7 17  1  0  0  0
  8  9  1  0  0  0
  8 33  1  0  0  0
  9 10  2  0  0  0
  9 34  1  0  0  0
 10 11  1  0  0  0
 10 20  1  0  0  0
 11 12  2  0  0  0
 11 35  1  0  0  0
 12 36  1  0  0  0
 13 14  1  0  0  0
 13 37  1  0  0  0
 14 15  2  0  0  0
 14 38  1  0  0  0
 15 16  1  0  0  0
 15 24  1  0  0  0
 16 17  2  0  0  0
 16 39  1  0  0  0
 17 40  1  0  0  0
 18 19  1  0  0  0
 18 41  1  0  0  0
 18 42  1  0  0  0
 19 43  1  0  0  0
 19 44  1  0  0  0
 20 21  2  0  0  0
 20 22  2  0  0  0
 20 23  1  0  0  0
 23 45  1  0  0  0
 23 46  1  0  0  0
 24 25  1  0  0  0
 25 26  1  0  0  0
 25 27  1  0  0  0
 25 28  1  0  0  0
M  END
>  <Name>
9-39

>  <Family>
F

>  <IC50_uM>
0.130000

>  <set>
1

$$$$
9-40
  Cerius2 12120216103D 1   1.00000                          
 Structure written by MMmdl.
 46 49  0  0  0  0  0  0  0  0999 V2000
   26.3849   22.0822   16.4208 C   0  0  0  0  0  0
   25.4930   21.5014   17.2535 C   0  0  0  0  0  0
   26.1788   20.9260   18.4748 C   0  0  0  0  0  0
   27.6406   21.2798   18.3019 C   0  0  0  0  0  0
   27.7852   22.0295   16.9947 C   0  0  0  0  0  0
   24.0355   21.3867   17.1130 C   0  0  0  0  0  0
   26.1572   22.7058   15.1110 C   0  0  0  0  0  0
   23.3246   22.2636   16.2790 C   0  0  0  0  0  0
   21.9347   22.1700   16.1571 C   0  0  0  0  0  0
   21.2430   21.2014   16.8860 C   0  0  0  0  0  0
   21.9312   20.3202   17.7214 C   0  0  0  0  0  0
   23.3219   20.4207   17.8372 C   0  0  0  0  0  0
   26.4138   24.0681   14.9137 C   0  0  0  0  0  0
   26.2146   24.6605   13.6611 C   0  0  0  0  0  0
   25.7684   23.8992   12.5721 C   0  0  0  0  0  0
   25.5113   22.5357   12.7686 C   0  0  0  0  0  0
   25.7104   21.9458   14.0219 C   0  0  0  0  0  0
   28.7266   20.3393   18.7789 C   0  0  0  0  0  0
   28.4975   21.6361   19.4978 C   0  0  0  0  0  0
   19.4778   21.0694   16.7175 S   0  0  0  0  0  0
   18.9405   22.4128   16.5245 O   0  0  0  0  0  0
   18.9805   20.2774   17.8380 O   0  0  0  0  0  0
   19.2658   20.1469   15.2181 C   0  0  0  0  0  0
   25.5337   24.5421   11.2289 C   0  0  0  0  0  0
   24.2638   25.0296   11.0899 F   0  0  0  0  0  0
   25.7145   23.6899   10.1738 F   0  0  0  0  0  0
   26.3610   25.6026   10.9775 F   0  0  0  0  0  0
   26.0545   19.8391   18.5226 H   0  0  0  0  0  0
   25.7737   21.3754   19.3884 H   0  0  0  0  0  0
   28.1766   23.0361   17.1754 H   0  0  0  0  0  0
   28.4583   21.4983   16.3126 H   0  0  0  0  0  0
   23.8472   23.0373   15.7178 H   0  0  0  0  0  0
   21.4084   22.8589   15.4998 H   0  0  0  0  0  0
   21.4029   19.5561   18.2876 H   0  0  0  0  0  0
   23.8405   19.7206   18.4902 H   0  0  0  0  0  0
   26.7562   24.6944   15.7359 H   0  0  0  0  0  0
   26.4110   25.7259   13.5421 H   0  0  0  0  0  0
   25.1565   21.9186   11.9433 H   0  0  0  0  0  0
   25.5170   20.8798   14.1345 H   0  0  0  0  0  0
   29.6275   20.2431   18.1827 H   0  0  0  0  0  0
   28.4363   19.4235   19.2817 H   0  0  0  0  0  0
   28.0524   21.5953   20.4858 H   0  0  0  0  0  0
   29.2448   22.4141   19.3874 H   0  0  0  0  0  0
   18.1946   20.0230   15.0454 H   0  0  0  0  0  0
   19.7390   19.1698   15.3311 H   0  0  0  0  0  0
   19.7133   20.7029   14.3922 H   0  0  0  0  0  0
  1  2  2  0  0  0
  1  5  1  0  0  0
  1  7  1  0  0  0
  2  3  1  0  0  0
  2  6  1  0  0  0
  3  4  1  0  0  0
  3 28  1  0  0  0
  3 29  1  0  0  0
  4  5  1  0  0  0
  4 18  1  0  0  0
  4 19  1  0  0  0
  5 30  1  0  0  0
  5 31  1  0  0  0
  6  8  2  0  0  0
  6 12  1  0  0  0
  7 13  2  0  0  0
  7 17  1  0  0  0
  8  9  1  0  0  0
  8 32  1  0  0  0
  9 10  2  0  0  0
  9 33  1  0  0  0
 10 11  1  0  0  0
 10 20  1  0  0  0
 11 12  2  0  0  0
 11 34  1  0  0  0
 12 35  1  0  0  0
 13 14  1  0  0  0
 13 36  1  0  0  0
 14 15  2  0  0  0
 14 37  1  0  0  0
 15 16  1  0  0  0
 15 24  1  0  0  0
 16 17  2  0  0  0
 16 38  1  0  0  0
 17 39  1  0  0  0
 18 19  1  0  0  0
 18 40  1  0  0  0
 18 41  1  0  0  0
 19 42  1  0  0  0
 19 43  1  0  0  0
 20 21  2  0  0  0
 20 22  2  0  0  0
 20 23  1  0  0  0
 23 44  1  0  0  0
 23 45  1  0  0  0
 23 46  1  0  0  0
 24 25  1  0  0  0
 24 26  1  0  0  0
 24 27  1  0  0  0
M  END
>  <Name>
9-40

>  <Family>
F

>  <IC50_uM>
0.002000

>  <set>
1

$$$$
9-41
  Cerius2 12120216103D 1   1.00000                          
 Structure written by MMmdl.
 45 48  0  0  0  0  0  0  0  0999 V2000
   26.3852   22.0821   16.4204 C   0  0  0  0  0  0
   25.4929   21.5016   17.2534 C   0  0  0  0  0  0
   26.1790   20.9259   18.4746 C   0  0  0  0  0  0
   27.6409   21.2790   18.3011 C   0  0  0  0  0  0
   27.7854   22.0294   16.9938 C   0  0  0  0  0  0
   24.0354   21.3867   17.1132 C   0  0  0  0  0  0
   26.1568   22.7054   15.1112 C   0  0  0  0  0  0
   23.3240   22.2641   16.2804 C   0  0  0  0  0  0
   21.9338   22.1695   16.1601 C   0  0  0  0  0  0
   21.2413   21.1997   16.8882 C   0  0  0  0  0  0
   21.9309   20.3198   17.7239 C   0  0  0  0  0  0
   23.3221   20.4201   17.8376 C   0  0  0  0  0  0
   26.4140   24.0675   14.9137 C   0  0  0  0  0  0
   26.2121   24.6600   13.6616 C   0  0  0  0  0  0
   25.7622   23.8991   12.5740 C   0  0  0  0  0  0
   25.5058   22.5354   12.7705 C   0  0  0  0  0  0
   25.7081   21.9454   14.0231 C   0  0  0  0  0  0
   28.7258   20.3357   18.7749 C   0  0  0  0  0  0
   28.4996   21.6312   19.4967 C   0  0  0  0  0  0
   19.4836   21.0718   16.7113 S   0  0  0  0  0  0
   18.9285   22.3828   16.4235 O   0  0  0  0  0  0
   18.9565   20.2715   17.8022 O   0  0  0  0  0  0
   19.3339   20.1664   15.3097 N   0  0  0  0  0  0
   25.5221   24.5420   11.2320 C   0  0  0  0  0  0
   24.2500   25.0256   11.0968 F   0  0  0  0  0  0
   25.7029   23.6908   10.1760 F   0  0  0  0  0  0
   26.3446   25.6059   10.9788 F   0  0  0  0  0  0
   26.0538   19.8392   18.5220 H   0  0  0  0  0  0
   25.7737   21.3761   19.3878 H   0  0  0  0  0  0
   28.1777   23.0358   17.1738 H   0  0  0  0  0  0
   28.4577   21.4977   16.3114 H   0  0  0  0  0  0
   23.8452   23.0392   15.7205 H   0  0  0  0  0  0
   21.4020   22.8586   15.5072 H   0  0  0  0  0  0
   21.4028   19.5570   18.2916 H   0  0  0  0  0  0
   23.8409   19.7199   18.4908 H   0  0  0  0  0  0
   26.7585   24.6937   15.7354 H   0  0  0  0  0  0
   26.4090   25.7253   13.5423 H   0  0  0  0  0  0
   25.1489   21.9185   11.9461 H   0  0  0  0  0  0
   25.5151   20.8794   14.1362 H   0  0  0  0  0  0
   29.6256   20.2387   18.1776 H   0  0  0  0  0  0
   28.4344   19.4196   19.2773 H   0  0  0  0  0  0
   28.0560   21.5877   20.4855 H   0  0  0  0  0  0
   29.2479   22.4084   19.3875 H   0  0  0  0  0  0
   18.8556   20.6974   14.5774 H   0  0  0  0  0  0
   18.8614   19.2775   15.4943 H   0  0  0  0  0  0
  1  2  2  0  0  0
  1  5  1  0  0  0
  1  7  1  0  0  0
  2  3  1  0  0  0
  2  6  1  0  0  0
  3  4  1  0  0  0
  3 28  1  0  0  0
  3 29  1  0  0  0
  4  5  1  0  0  0
  4 18  1  0  0  0
  4 19  1  0  0  0
  5 30  1  0  0  0
  5 31  1  0  0  0
  6  8  2  0  0  0
  6 12  1  0  0  0
  7 13  2  0  0  0
  7 17  1  0  0  0
  8  9  1  0  0  0
  8 32  1  0  0  0
  9 10  2  0  0  0
  9 33  1  0  0  0
 10 11  1  0  0  0
 10 20  1  0  0  0
 11 12  2  0  0  0
 11 34  1  0  0  0
 12 35  1  0  0  0
 13 14  1  0  0  0
 13 36  1  0  0  0
 14 15  2  0  0  0
 14 37  1  0  0  0
 15 16  1  0  0  0
 15 24  1  0  0  0
 16 17  2  0  0  0
 16 38  1  0  0  0
 17 39  1  0  0  0
 18 19  1  0  0  0
 18 40  1  0  0  0
 18 41  1  0  0  0
 19 42  1  0  0  0
 19 43  1  0  0  0
 20 21  2  0  0  0
 20 22  2  0  0  0
 20 23  1  0  0  0
 23 44  1  0  0  0
 23 45  1  0  0  0
 24 25  1  0  0  0
 24 26  1  0  0  0
 24 27  1  0  0  0
M  END
>  <Name>
9-41

>  <Family>
F

>  <IC50_uM>
0.001000

>  <set>
1

$$$$
9-42
  Cerius2 12120216103D 1   1.00000                          
 Structure written by MMmdl.
 47 50  0  0  0  0  0  0  0  0999 V2000
   26.3865   22.0822   16.4215 C   0  0  0  0  0  0
   25.4947   21.5029   17.2552 C   0  0  0  0  0  0
   26.1809   20.9252   18.4751 C   0  0  0  0  0  0
   27.6434   21.2750   18.2993 C   0  0  0  0  0  0
   27.7876   22.0255   16.9924 C   0  0  0  0  0  0
   24.0373   21.3899   17.1146 C   0  0  0  0  0  0
   26.1553   22.7065   15.1135 C   0  0  0  0  0  0
   23.3277   22.2666   16.2794 C   0  0  0  0  0  0
   21.9381   22.1720   16.1547 C   0  0  0  0  0  0
   21.2456   21.2031   16.8827 C   0  0  0  0  0  0
   21.9327   20.3224   17.7197 C   0  0  0  0  0  0
   23.3231   20.4236   17.8378 C   0  0  0  0  0  0
   26.4125   24.0666   14.9143 C   0  0  0  0  0  0
   26.2050   24.6531   13.6638 C   0  0  0  0  0  0
   25.7463   23.9018   12.5799 C   0  0  0  0  0  0
   25.4991   22.5411   12.7744 C   0  0  0  0  0  0
   25.7042   21.9483   14.0256 C   0  0  0  0  0  0
   28.7273   20.3305   18.7722 C   0  0  0  0  0  0
   28.5042   21.6270   19.4933 C   0  0  0  0  0  0
   19.4809   21.0697   16.7105 S   0  0  0  0  0  0
   18.9436   22.4122   16.5106 O   0  0  0  0  0  0
   18.9810   20.2826   17.8335 O   0  0  0  0  0  0
   19.2724   20.1405   15.2149 C   0  0  0  0  0  0
   26.4628   25.9641   13.5474 F   0  0  0  0  0  0
   25.5015   24.3414   11.3075 O   0  0  0  0  0  0
   25.7368   25.7213   11.0388 C   0  0  0  0  0  0
   26.0531   19.8387   18.5232 H   0  0  0  0  0  0
   25.7790   21.3763   19.3892 H   0  0  0  0  0  0
   28.1823   23.0309   17.1725 H   0  0  0  0  0  0
   28.4577   21.4927   16.3084 H   0  0  0  0  0  0
   23.8508   23.0405   15.7194 H   0  0  0  0  0  0
   21.4127   22.8602   15.4962 H   0  0  0  0  0  0
   21.4041   19.5581   18.2852 H   0  0  0  0  0  0
   23.8411   19.7237   18.4916 H   0  0  0  0  0  0
   26.7619   24.6972   15.7277 H   0  0  0  0  0  0
   25.1456   21.9268   11.9479 H   0  0  0  0  0  0
   25.5129   20.8815   14.1357 H   0  0  0  0  0  0
   29.6264   20.2320   18.1737 H   0  0  0  0  0  0
   28.4354   19.4149   19.2747 H   0  0  0  0  0  0
   28.0611   21.5862   20.4824 H   0  0  0  0  0  0
   29.2536   22.4030   19.3823 H   0  0  0  0  0  0
   18.2017   20.0176   15.0390 H   0  0  0  0  0  0
   19.7435   19.1631   15.3342 H   0  0  0  0  0  0
   19.7240   20.6916   14.3880 H   0  0  0  0  0  0
   25.4954   25.8999    9.9864 H   0  0  0  0  0  0
   26.7913   25.9764   11.1843 H   0  0  0  0  0  0
   25.0805   26.3571   11.6417 H   0  0  0  0  0  0
  1  2  2  0  0  0
  1  5  1  0  0  0
  1  7  1  0  0  0
  2  3  1  0  0  0
  2  6  1  0  0  0
  3  4  1  0  0  0
  3 27  1  0  0  0
  3 28  1  0  0  0
  4  5  1  0  0  0
  4 18  1  0  0  0
  4 19  1  0  0  0
  5 29  1  0  0  0
  5 30  1  0  0  0
  6  8  2  0  0  0
  6 12  1  0  0  0
  7 13  2  0  0  0
  7 17  1  0  0  0
  8  9  1  0  0  0
  8 31  1  0  0  0
  9 10  2  0  0  0
  9 32  1  0  0  0
 10 11  1  0  0  0
 10 20  1  0  0  0
 11 12  2  0  0  0
 11 33  1  0  0  0
 12 34  1  0  0  0
 13 14  1  0  0  0
 13 35  1  0  0  0
 14 15  2  0  0  0
 14 24  1  0  0  0
 15 16  1  0  0  0
 15 25  1  0  0  0
 16 17  2  0  0  0
 16 36  1  0  0  0
 17 37  1  0  0  0
 18 19  1  0  0  0
 18 38  1  0  0  0
 18 39  1  0  0  0
 19 40  1  0  0  0
 19 41  1  0  0  0
 20 21  2  0  0  0
 20 22  2  0  0  0
 20 23  1  0  0  0
 23 42  1  0  0  0
 23 43  1  0  0  0
 23 44  1  0  0  0
 25 26  1  0  0  0
 26 45  1  0  0  0
 26 46  1  0  0  0
 26 47  1  0  0  0
M  END
>  <Name>
9-42

>  <Family>
F

>  <IC50_uM>
0.010000

>  <set>
0

$$$$
9-43
  Cerius2 12120216103D 1   1.00000                          
 Structure written by MMmdl.
 46 49  0  0  0  0  0  0  0  0999 V2000
   26.3859   22.0817   16.4210 C   0  0  0  0  0  0
   25.4946   21.5020   17.2551 C   0  0  0  0  0  0
   26.1817   20.9237   18.4742 C   0  0  0  0  0  0
   27.6432   21.2788   18.3006 C   0  0  0  0  0  0
   27.7872   22.0255   16.9917 C   0  0  0  0  0  0
   24.0367   21.3900   17.1164 C   0  0  0  0  0  0
   26.1545   22.7064   15.1130 C   0  0  0  0  0  0
   23.3268   22.2674   16.2823 C   0  0  0  0  0  0
   21.9369   22.1731   16.1598 C   0  0  0  0  0  0
   21.2431   21.2035   16.8868 C   0  0  0  0  0  0
   21.9315   20.3246   17.7249 C   0  0  0  0  0  0
   23.3223   20.4251   17.8417 C   0  0  0  0  0  0
   26.4118   24.0666   14.9138 C   0  0  0  0  0  0
   26.2043   24.6533   13.6632 C   0  0  0  0  0  0
   25.7456   23.9021   12.5793 C   0  0  0  0  0  0
   25.4985   22.5413   12.7737 C   0  0  0  0  0  0
   25.7035   21.9485   14.0249 C   0  0  0  0  0  0
   28.7307   20.3422   18.7814 C   0  0  0  0  0  0
   28.4984   21.6407   19.4960 C   0  0  0  0  0  0
   19.4865   21.0687   16.7024 S   0  0  0  0  0  0
   18.9281   22.3772   16.4100 O   0  0  0  0  0  0
   18.9565   20.2687   17.7923 O   0  0  0  0  0  0
   19.3464   20.1589   15.3027 N   0  0  0  0  0  0
   26.4629   25.9641   13.5464 F   0  0  0  0  0  0
   25.5008   24.3418   11.3068 O   0  0  0  0  0  0
   25.7296   25.7231   11.0398 C   0  0  0  0  0  0
   26.0579   19.8365   18.5191 H   0  0  0  0  0  0
   25.7775   21.3706   19.3894 H   0  0  0  0  0  0
   28.1828   23.0312   17.1687 H   0  0  0  0  0  0
   28.4566   21.4902   16.3089 H   0  0  0  0  0  0
   23.8493   23.0418   15.7226 H   0  0  0  0  0  0
   21.4072   22.8618   15.5049 H   0  0  0  0  0  0
   21.4020   19.5618   18.2915 H   0  0  0  0  0  0
   23.8404   19.7260   18.4964 H   0  0  0  0  0  0
   26.7617   24.6972   15.7268 H   0  0  0  0  0  0
   25.1451   21.9271   11.9470 H   0  0  0  0  0  0
   25.5125   20.8816   14.1348 H   0  0  0  0  0  0
   29.6327   20.2461   18.1869 H   0  0  0  0  0  0
   28.4416   19.4274   19.2871 H   0  0  0  0  0  0
   28.0523   21.6023   20.4838 H   0  0  0  0  0  0
   29.2440   22.4202   19.3840 H   0  0  0  0  0  0
   18.8702   20.6865   14.5665 H   0  0  0  0  0  0
   18.8771   19.2685   15.4873 H   0  0  0  0  0  0
   25.4851   25.9021    9.9882 H   0  0  0  0  0  0
   26.7833   25.9825   11.1832 H   0  0  0  0  0  0
   25.0718   26.3552   11.6448 H   0  0  0  0  0  0
  1  2  2  0  0  0
  1  5  1  0  0  0
  1  7  1  0  0  0
  2  3  1  0  0  0
  2  6  1  0  0  0
  3  4  1  0  0  0
  3 27  1  0  0  0
  3 28  1  0  0  0
  4  5  1  0  0  0
  4 18  1  0  0  0
  4 19  1  0  0  0
  5 29  1  0  0  0
  5 30  1  0  0  0
  6  8  2  0  0  0
  6 12  1  0  0  0
  7 13  2  0  0  0
  7 17  1  0  0  0
  8  9  1  0  0  0
  8 31  1  0  0  0
  9 10  2  0  0  0
  9 32  1  0  0  0
 10 11  1  0  0  0
 10 20  1  0  0  0
 11 12  2  0  0  0
 11 33  1  0  0  0
 12 34  1  0  0  0
 13 14  1  0  0  0
 13 35  1  0  0  0
 14 15  2  0  0  0
 14 24  1  0  0  0
 15 16  1  0  0  0
 15 25  1  0  0  0
 16 17  2  0  0  0
 16 36  1  0  0  0
 17 37  1  0  0  0
 18 19  1  0  0  0
 18 38  1  0  0  0
 18 39  1  0  0  0
 19 40  1  0  0  0
 19 41  1  0  0  0
 20 21  2  0  0  0
 20 22  2  0  0  0
 20 23  1  0  0  0
 23 42  1  0  0  0
 23 43  1  0  0  0
 25 26  1  0  0  0
 26 44  1  0  0  0
 26 45  1  0  0  0
 26 46  1  0  0  0
M  END
>  <Name>
9-43

>  <Family>
F

>  <IC50_uM>
0.002000

>  <set>
0

$$$$
9-44
  Cerius2 12120216103D 1   1.00000                          
 Structure written by MMmdl.
 47 50  0  0  0  0  0  0  0  0999 V2000
   26.3864   22.0823   16.4218 C   0  0  0  0  0  0
   25.4940   21.5019   17.2542 C   0  0  0  0  0  0
   26.1793   20.9254   18.4752 C   0  0  0  0  0  0
   27.6416   21.2775   18.3016 C   0  0  0  0  0  0
   27.7869   22.0266   16.9942 C   0  0  0  0  0  0
   24.0369   21.3879   17.1121 C   0  0  0  0  0  0
   26.1564   22.7072   15.1137 C   0  0  0  0  0  0
   23.3271   22.2648   16.2772 C   0  0  0  0  0  0
   21.9373   22.1715   16.1540 C   0  0  0  0  0  0
   21.2450   21.2031   16.8825 C   0  0  0  0  0  0
   21.9323   20.3213   17.7182 C   0  0  0  0  0  0
   23.3227   20.4214   17.8350 C   0  0  0  0  0  0
   26.4132   24.0676   14.9158 C   0  0  0  0  0  0
   26.2070   24.6545   13.6610 C   0  0  0  0  0  0
   25.7477   23.8953   12.5738 C   0  0  0  0  0  0
   25.5012   22.5349   12.7703 C   0  0  0  0  0  0
   25.7070   21.9487   14.0263 C   0  0  0  0  0  0
   28.7265   20.3359   18.7784 C   0  0  0  0  0  0
   28.4995   21.6333   19.4968 C   0  0  0  0  0  0
   19.4796   21.0703   16.7160 S   0  0  0  0  0  0
   18.9424   22.4143   16.5272 O   0  0  0  0  0  0
   18.9823   20.2752   17.8344 O   0  0  0  0  0  0
   19.2672   20.1508   15.2149 C   0  0  0  0  0  0
   26.5709   26.5142   13.4860 Br  0  0  0  0  0  0
   25.5751   24.5522   11.3833 O   0  0  0  0  0  0
   25.1034   23.7879   10.2759 C   0  0  0  0  0  0
   26.0532   19.8386   18.5235 H   0  0  0  0  0  0
   25.7754   21.3759   19.3887 H   0  0  0  0  0  0
   28.1812   23.0323   17.1738 H   0  0  0  0  0  0
   28.4578   21.4934   16.3115 H   0  0  0  0  0  0
   23.8504   23.0387   15.7172 H   0  0  0  0  0  0
   21.4119   22.8611   15.4970 H   0  0  0  0  0  0
   21.4032   19.5574   18.2838 H   0  0  0  0  0  0
   23.8408   19.7212   18.4885 H   0  0  0  0  0  0
   26.7608   24.6823   15.7435 H   0  0  0  0  0  0
   25.1497   21.8900   11.9695 H   0  0  0  0  0  0
   25.5170   20.8818   14.1397 H   0  0  0  0  0  0
   29.6271   20.2382   18.1820 H   0  0  0  0  0  0
   28.4355   19.4208   19.2823 H   0  0  0  0  0  0
   28.0548   21.5937   20.4851 H   0  0  0  0  0  0
   29.2475   22.4106   19.3857 H   0  0  0  0  0  0
   18.1961   20.0274   15.0417 H   0  0  0  0  0  0
   19.7404   19.1734   15.3258 H   0  0  0  0  0  0
   19.7150   20.7081   14.3900 H   0  0  0  0  0  0
   24.1073   23.3793   10.4752 H   0  0  0  0  0  0
   25.8139   22.9978   10.0119 H   0  0  0  0  0  0
   25.0215   24.4620    9.4179 H   0  0  0  0  0  0
  1  2  2  0  0  0
  1  5  1  0  0  0
  1  7  1  0  0  0
  2  3  1  0  0  0
  2  6  1  0  0  0
  3  4  1  0  0  0
  3 27  1  0  0  0
  3 28  1  0  0  0
  4  5  1  0  0  0
  4 18  1  0  0  0
  4 19  1  0  0  0
  5 29  1  0  0  0
  5 30  1  0  0  0
  6  8  2  0  0  0
  6 12  1  0  0  0
  7 13  2  0  0  0
  7 17  1  0  0  0
  8  9  1  0  0  0
  8 31  1  0  0  0
  9 10  2  0  0  0
  9 32  1  0  0  0
 10 11  1  0  0  0
 10 20  1  0  0  0
 11 12  2  0  0  0
 11 33  1  0  0  0
 12 34  1  0  0  0
 13 14  1  0  0  0
 13 35  1  0  0  0
 14 15  2  0  0  0
 14 24  1  0  0  0
 15 16  1  0  0  0
 15 25  1  0  0  0
 16 17  2  0  0  0
 16 36  1  0  0  0
 17 37  1  0  0  0
 18 19  1  0  0  0
 18 38  1  0  0  0
 18 39  1  0  0  0
 19 40  1  0  0  0
 19 41  1  0  0  0
 20 21  2  0  0  0
 20 22  2  0  0  0
 20 23  1  0  0  0
 23 42  1  0  0  0
 23 43  1  0  0  0
 23 44  1  0  0  0
 25 26  1  0  0  0
 26 45  1  0  0  0
 26 46  1  0  0  0
 26 47  1  0  0  0
M  END
>  <Name>
9-44

>  <Family>
F

>  <IC50_uM>
0.013000

>  <set>
0

$$$$
9-45
  Cerius2 12120216103D 1   1.00000                          
 Structure written by MMmdl.
 46 49  0  0  0  0  0  0  0  0999 V2000
   26.3861   22.0813   16.4215 C   0  0  0  0  0  0
   25.4945   21.5020   17.2555 C   0  0  0  0  0  0
   26.1812   20.9233   18.4746 C   0  0  0  0  0  0
   27.6436   21.2741   18.2991 C   0  0  0  0  0  0
   27.7875   22.0237   16.9916 C   0  0  0  0  0  0
   24.0368   21.3903   17.1160 C   0  0  0  0  0  0
   26.1545   22.7068   15.1138 C   0  0  0  0  0  0
   23.3276   22.2677   16.2811 C   0  0  0  0  0  0
   21.9376   22.1748   16.1583 C   0  0  0  0  0  0
   21.2432   21.2063   16.8858 C   0  0  0  0  0  0
   21.9312   20.3264   17.7234 C   0  0  0  0  0  0
   23.3219   20.4256   17.8406 C   0  0  0  0  0  0
   26.4114   24.0671   14.9158 C   0  0  0  0  0  0
   26.2037   24.6544   13.6612 C   0  0  0  0  0  0
   25.7427   23.8957   12.5744 C   0  0  0  0  0  0
   25.4963   22.5353   12.7712 C   0  0  0  0  0  0
   25.7038   21.9486   14.0265 C   0  0  0  0  0  0
   28.7287   20.3321   18.7744 C   0  0  0  0  0  0
   28.5028   21.6294   19.4934 C   0  0  0  0  0  0
   19.4865   21.0661   16.7043 S   0  0  0  0  0  0
   18.9261   22.3738   16.4129 O   0  0  0  0  0  0
   18.9568   20.2650   17.7937 O   0  0  0  0  0  0
   19.3494   20.1532   15.3066 N   0  0  0  0  0  0
   26.5684   26.5140   13.4864 Br  0  0  0  0  0  0
   25.5682   24.5526   11.3842 O   0  0  0  0  0  0
   25.1008   23.7871   10.2758 C   0  0  0  0  0  0
   26.0542   19.8366   18.5215 H   0  0  0  0  0  0
   25.7791   21.3727   19.3895 H   0  0  0  0  0  0
   28.1835   23.0287   17.1708 H   0  0  0  0  0  0
   28.4565   21.4897   16.3074 H   0  0  0  0  0  0
   23.8511   23.0412   15.7207 H   0  0  0  0  0  0
   21.4099   22.8640   15.5026 H   0  0  0  0  0  0
   21.4001   19.5645   18.2898 H   0  0  0  0  0  0
   23.8391   19.7258   18.4950 H   0  0  0  0  0  0
   26.7602   24.6816   15.7430 H   0  0  0  0  0  0
   25.1432   21.8907   11.9707 H   0  0  0  0  0  0
   25.5138   20.8817   14.1396 H   0  0  0  0  0  0
   29.6288   20.2345   18.1774 H   0  0  0  0  0  0
   28.4378   19.4170   19.2783 H   0  0  0  0  0  0
   28.0588   21.5898   20.4820 H   0  0  0  0  0  0
   29.2508   22.4067   19.3818 H   0  0  0  0  0  0
   18.8691   20.6765   14.5699 H   0  0  0  0  0  0
   18.8857   19.2602   15.4931 H   0  0  0  0  0  0
   24.1059   23.3749   10.4735 H   0  0  0  0  0  0
   25.8145   22.9997   10.0124 H   0  0  0  0  0  0
   25.0175   24.4614    9.4180 H   0  0  0  0  0  0
  1  2  2  0  0  0
  1  5  1  0  0  0
  1  7  1  0  0  0
  2  3  1  0  0  0
  2  6  1  0  0  0
  3  4  1  0  0  0
  3 27  1  0  0  0
  3 28  1  0  0  0
  4  5  1  0  0  0
  4 18  1  0  0  0
  4 19  1  0  0  0
  5 29  1  0  0  0
  5 30  1  0  0  0
  6  8  2  0  0  0
  6 12  1  0  0  0
  7 13  2  0  0  0
  7 17  1  0  0  0
  8  9  1  0  0  0
  8 31  1  0  0  0
  9 10  2  0  0  0
  9 32  1  0  0  0
 10 11  1  0  0  0
 10 20  1  0  0  0
 11 12  2  0  0  0
 11 33  1  0  0  0
 12 34  1  0  0  0
 13 14  1  0  0  0
 13 35  1  0  0  0
 14 15  2  0  0  0
 14 24  1  0  0  0
 15 16  1  0  0  0
 15 25  1  0  0  0
 16 17  2  0  0  0
 16 36  1  0  0  0
 17 37  1  0  0  0
 18 19  1  0  0  0
 18 38  1  0  0  0
 18 39  1  0  0  0
 19 40  1  0  0  0
 19 41  1  0  0  0
 20 21  2  0  0  0
 20 22  2  0  0  0
 20 23  1  0  0  0
 23 42  1  0  0  0
 23 43  1  0  0  0
 25 26  1  0  0  0
 26 44  1  0  0  0
 26 45  1  0  0  0
 26 46  1  0  0  0
M  END
>  <Name>
9-45

>  <Family>
F

>  <IC50_uM>
0.002000

>  <set>
0

$$$$
9-46
  Cerius2 12120216103D 1   1.00000                          
 Structure written by MMmdl.
 46 50  0  0  0  0  0  0  0  0999 V2000
   26.3877   22.0874   16.4217 C   0  0  0  0  0  0
   25.4958   21.5041   17.2527 C   0  0  0  0  0  0
   26.1823   20.9215   18.4703 C   0  0  0  0  0  0
   27.6447   21.2729   18.2964 C   0  0  0  0  0  0
   27.7886   22.0298   16.9932 C   0  0  0  0  0  0
   24.0382   21.3914   17.1120 C   0  0  0  0  0  0
   26.1572   22.7178   15.1152 C   0  0  0  0  0  0
   23.3281   22.2683   16.2772 C   0  0  0  0  0  0
   21.9382   22.1742   16.1534 C   0  0  0  0  0  0
   21.2461   21.2054   16.8816 C   0  0  0  0  0  0
   21.9334   20.3248   17.7183 C   0  0  0  0  0  0
   23.3238   20.4255   17.8355 C   0  0  0  0  0  0
   26.4171   24.0844   14.9304 C   0  0  0  0  0  0
   26.1984   24.6285   13.6802 C   0  0  0  0  0  0
   25.7467   23.8712   12.6263 C   0  0  0  0  0  0
   25.4899   22.5259   12.7621 C   0  0  0  0  0  0
   25.7022   21.9480   14.0193 C   0  0  0  0  0  0
   28.7292   20.3262   18.7645 C   0  0  0  0  0  0
   28.5055   21.6191   19.4924 C   0  0  0  0  0  0
   19.4813   21.0700   16.7103 S   0  0  0  0  0  0
   18.9425   22.4127   16.5155 O   0  0  0  0  0  0
   18.9824   20.2782   17.8304 O   0  0  0  0  0  0
   19.2731   20.1457   15.2117 C   0  0  0  0  0  0
   26.3914   25.9310   13.3379 O   0  0  0  0  0  0
   25.5988   24.5989   11.4878 O   0  0  0  0  0  0
   26.0075   25.9107   11.9425 C   0  0  0  0  0  0
   26.0554   19.8347   18.5139 H   0  0  0  0  0  0
   25.7799   21.3683   19.3863 H   0  0  0  0  0  0
   28.1814   23.0351   17.1785 H   0  0  0  0  0  0
   28.4599   21.5016   16.3072 H   0  0  0  0  0  0
   23.8511   23.0423   15.7171 H   0  0  0  0  0  0
   21.4127   22.8629   15.4953 H   0  0  0  0  0  0
   21.4046   19.5607   18.2840 H   0  0  0  0  0  0
   23.8417   19.7254   18.4892 H   0  0  0  0  0  0
   26.7663   24.7145   15.7425 H   0  0  0  0  0  0
   25.1386   21.9294   11.9265 H   0  0  0  0  0  0
   25.5161   20.8811   14.1398 H   0  0  0  0  0  0
   29.6282   20.2315   18.1654 H   0  0  0  0  0  0
   28.4376   19.4081   19.2623 H   0  0  0  0  0  0
   28.0627   21.5730   20.4812 H   0  0  0  0  0  0
   29.2545   22.3960   19.3850 H   0  0  0  0  0  0
   18.2024   20.0230   15.0353 H   0  0  0  0  0  0
   19.7446   19.1681   15.3276 H   0  0  0  0  0  0
   19.7242   20.6997   14.3864 H   0  0  0  0  0  0
   26.8602   26.2418   11.3388 H   0  0  0  0  0  0
   25.1748   26.6082   11.7972 H   0  0  0  0  0  0
  1  2  2  0  0  0
  1  5  1  0  0  0
  1  7  1  0  0  0
  2  3  1  0  0  0
  2  6  1  0  0  0
  3  4  1  0  0  0
  3 27  1  0  0  0
  3 28  1  0  0  0
  4  5  1  0  0  0
  4 18  1  0  0  0
  4 19  1  0  0  0
  5 29  1  0  0  0
  5 30  1  0  0  0
  6  8  2  0  0  0
  6 12  1  0  0  0
  7 13  2  0  0  0
  7 17  1  0  0  0
  8  9  1  0  0  0
  8 31  1  0  0  0
  9 10  2  0  0  0
  9 32  1  0  0  0
 10 11  1  0  0  0
 10 20  1  0  0  0
 11 12  2  0  0  0
 11 33  1  0  0  0
 12 34  1  0  0  0
 13 14  1  0  0  0
 13 35  1  0  0  0
 14 15  2  0  0  0
 14 24  1  0  0  0
 15 16  1  0  0  0
 15 25  1  0  0  0
 16 17  2  0  0  0
 16 36  1  0  0  0
 17 37  1  0  0  0
 18 19  1  0  0  0
 18 38  1  0  0  0
 18 39  1  0  0  0
 19 40  1  0  0  0
 19 41  1  0  0  0
 20 21  2  0  0  0
 20 22  2  0  0  0
 20 23  1  0  0  0
 23 42  1  0  0  0
 23 43  1  0  0  0
 23 44  1  0  0  0
 24 26  1  0  0  0
 25 26  1  0  0  0
 26 45  1  0  0  0
 26 46  1  0  0  0
M  END
>  <Name>
9-46

>  <Family>
F

>  <IC50_uM>
0.002500

>  <set>
1

$$$$
9-47
  Cerius2 12120216103D 1   1.00000                          
 Structure written by MMmdl.
 43 46  0  0  0  0  0  0  0  0999 V2000
   26.3872   22.0835   16.4215 C   0  0  0  0  0  0
   25.4953   21.5029   17.2542 C   0  0  0  0  0  0
   26.1812   20.9240   18.4737 C   0  0  0  0  0  0
   27.6435   21.2759   18.2995 C   0  0  0  0  0  0
   27.7878   22.0285   16.9939 C   0  0  0  0  0  0
   24.0380   21.3899   17.1132 C   0  0  0  0  0  0
   26.1555   22.7086   15.1135 C   0  0  0  0  0  0
   23.3287   22.2669   16.2779 C   0  0  0  0  0  0
   21.9391   22.1732   16.1536 C   0  0  0  0  0  0
   21.2464   21.2045   16.8815 C   0  0  0  0  0  0
   21.9333   20.3234   17.7183 C   0  0  0  0  0  0
   23.3236   20.4239   17.8363 C   0  0  0  0  0  0
   26.4141   24.0721   14.9188 C   0  0  0  0  0  0
   26.2031   24.6495   13.6694 C   0  0  0  0  0  0
   25.7443   23.8852   12.6044 C   0  0  0  0  0  0
   25.4924   22.5306   12.7725 C   0  0  0  0  0  0
   25.7014   21.9438   14.0245 C   0  0  0  0  0  0
   28.7282   20.3319   18.7718 C   0  0  0  0  0  0
   28.5030   21.6272   19.4946 C   0  0  0  0  0  0
   19.4815   21.0703   16.7111 S   0  0  0  0  0  0
   18.9445   22.4127   16.5101 O   0  0  0  0  0  0
   18.9818   20.2842   17.8349 O   0  0  0  0  0  0
   19.2728   20.1391   15.2167 C   0  0  0  0  0  0
   26.4462   25.9574   13.4981 F   0  0  0  0  0  0
   25.5455   24.4527   11.4062 F   0  0  0  0  0  0
   26.0548   19.8373   18.5198 H   0  0  0  0  0  0
   25.7782   21.3728   19.3884 H   0  0  0  0  0  0
   28.1797   23.0346   17.1761 H   0  0  0  0  0  0
   28.4597   21.4984   16.3099 H   0  0  0  0  0  0
   23.8519   23.0412   15.7184 H   0  0  0  0  0  0
   21.4138   22.8622   15.4957 H   0  0  0  0  0  0
   21.4040   19.5594   18.2836 H   0  0  0  0  0  0
   23.8413   19.7238   18.4901 H   0  0  0  0  0  0
   26.7647   24.7026   15.7309 H   0  0  0  0  0  0
   25.1394   21.9344   11.9364 H   0  0  0  0  0  0
   25.5124   20.8771   14.1395 H   0  0  0  0  0  0
   29.6285   20.2356   18.1748 H   0  0  0  0  0  0
   28.4372   19.4155   19.2732 H   0  0  0  0  0  0
   28.0599   21.5843   20.4836 H   0  0  0  0  0  0
   29.2522   22.4037   19.3857 H   0  0  0  0  0  0
   18.2019   20.0156   15.0412 H   0  0  0  0  0  0
   19.7443   19.1620   15.3372 H   0  0  0  0  0  0
   19.7238   20.6894   14.3888 H   0  0  0  0  0  0
  1  2  2  0  0  0
  1  5  1  0  0  0
  1  7  1  0  0  0
  2  3  1  0  0  0
  2  6  1  0  0  0
  3  4  1  0  0  0
  3 26  1  0  0  0
  3 27  1  0  0  0
  4  5  1  0  0  0
  4 18  1  0  0  0
  4 19  1  0  0  0
  5 28  1  0  0  0
  5 29  1  0  0  0
  6  8  2  0  0  0
  6 12  1  0  0  0
  7 13  2  0  0  0
  7 17  1  0  0  0
  8  9  1  0  0  0
  8 30  1  0  0  0
  9 10  2  0  0  0
  9 31  1  0  0  0
 10 11  1  0  0  0
 10 20  1  0  0  0
 11 12  2  0  0  0
 11 32  1  0  0  0
 12 33  1  0  0  0
 13 14  1  0  0  0
 13 34  1  0  0  0
 14 15  2  0  0  0
 14 24  1  0  0  0
 15 16  1  0  0  0
 15 25  1  0  0  0
 16 17  2  0  0  0
 16 35  1  0  0  0
 17 36  1  0  0  0
 18 19  1  0  0  0
 18 37  1  0  0  0
 18 38  1  0  0  0
 19 39  1  0  0  0
 19 40  1  0  0  0
 20 21  2  0  0  0
 20 22  2  0  0  0
 20 23  1  0  0  0
 23 41  1  0  0  0
 23 42  1  0  0  0
 23 43  1  0  0  0
M  END
>  <Name>
9-47

>  <Family>
F

>  <IC50_uM>
0.003300

>  <set>
2

$$$$
9-48
  Cerius2 12120216103D 1   1.00000                          
 Structure written by MMmdl.
 42 45  0  0  0  0  0  0  0  0999 V2000
   26.3866   22.0824   16.4209 C   0  0  0  0  0  0
   25.4957   21.5022   17.2548 C   0  0  0  0  0  0
   26.1823   20.9254   18.4749 C   0  0  0  0  0  0
   27.6446   21.2774   18.2989 C   0  0  0  0  0  0
   27.7877   22.0278   16.9920 C   0  0  0  0  0  0
   24.0384   21.3894   17.1144 C   0  0  0  0  0  0
   26.1536   22.7078   15.1136 C   0  0  0  0  0  0
   23.3294   22.2670   16.2797 C   0  0  0  0  0  0
   21.9395   22.1737   16.1567 C   0  0  0  0  0  0
   21.2453   21.2045   16.8838 C   0  0  0  0  0  0
   21.9330   20.3241   17.7209 C   0  0  0  0  0  0
   23.3238   20.4237   17.8381 C   0  0  0  0  0  0
   26.4123   24.0713   14.9195 C   0  0  0  0  0  0
   26.2003   24.6494   13.6705 C   0  0  0  0  0  0
   25.7407   23.8856   12.6056 C   0  0  0  0  0  0
   25.4886   22.5310   12.7733 C   0  0  0  0  0  0
   25.6982   21.9436   14.0247 C   0  0  0  0  0  0
   28.7308   20.3359   18.7730 C   0  0  0  0  0  0
   28.5042   21.6326   19.4930 C   0  0  0  0  0  0
   19.4880   21.0720   16.7031 S   0  0  0  0  0  0
   18.9308   22.3817   16.4140 O   0  0  0  0  0  0
   18.9581   20.2708   17.7924 O   0  0  0  0  0  0
   19.3459   20.1636   15.3028 N   0  0  0  0  0  0
   26.4437   25.9573   13.4999 F   0  0  0  0  0  0
   25.5419   24.4537   11.4076 F   0  0  0  0  0  0
   26.0557   19.8388   18.5237 H   0  0  0  0  0  0
   25.7797   21.3764   19.3888 H   0  0  0  0  0  0
   28.1805   23.0339   17.1719 H   0  0  0  0  0  0
   28.4587   21.4961   16.3082 H   0  0  0  0  0  0
   23.8524   23.0416   15.7206 H   0  0  0  0  0  0
   21.4105   22.8633   15.5025 H   0  0  0  0  0  0
   21.4028   19.5618   18.2875 H   0  0  0  0  0  0
   23.8417   19.7241   18.4922 H   0  0  0  0  0  0
   26.7642   24.7012   15.7315 H   0  0  0  0  0  0
   25.1352   21.9352   11.9370 H   0  0  0  0  0  0
   25.5093   20.8768   14.1395 H   0  0  0  0  0  0
   29.6310   20.2395   18.1760 H   0  0  0  0  0  0
   28.4413   19.4203   19.2767 H   0  0  0  0  0  0
   28.0609   21.5918   20.4819 H   0  0  0  0  0  0
   29.2517   22.4102   19.3817 H   0  0  0  0  0  0
   18.8665   20.6908   14.5685 H   0  0  0  0  0  0
   18.8796   19.2716   15.4873 H   0  0  0  0  0  0
  1  2  2  0  0  0
  1  5  1  0  0  0
  1  7  1  0  0  0
  2  3  1  0  0  0
  2  6  1  0  0  0
  3  4  1  0  0  0
  3 26  1  0  0  0
  3 27  1  0  0  0
  4  5  1  0  0  0
  4 18  1  0  0  0
  4 19  1  0  0  0
  5 28  1  0  0  0
  5 29  1  0  0  0
  6  8  2  0  0  0
  6 12  1  0  0  0
  7 13  2  0  0  0
  7 17  1  0  0  0
  8  9  1  0  0  0
  8 30  1  0  0  0
  9 10  2  0  0  0
  9 31  1  0  0  0
 10 11  1  0  0  0
 10 20  1  0  0  0
 11 12  2  0  0  0
 11 32  1  0  0  0
 12 33  1  0  0  0
 13 14  1  0  0  0
 13 34  1  0  0  0
 14 15  2  0  0  0
 14 24  1  0  0  0
 15 16  1  0  0  0
 15 25  1  0  0  0
 16 17  2  0  0  0
 16 35  1  0  0  0
 17 36  1  0  0  0
 18 19  1  0  0  0
 18 37  1  0  0  0
 18 38  1  0  0  0
 19 39  1  0  0  0
 19 40  1  0  0  0
 20 21  2  0  0  0
 20 22  2  0  0  0
 20 23  1  0  0  0
 23 41  1  0  0  0
 23 42  1  0  0  0
M  END
>  <Name>
9-48

>  <Family>
F

>  <IC50_uM>
0.003000

>  <set>
2

$$$$
9-49
  Cerius2 12120216103D 1   1.00000                          
 Structure written by MMmdl.
 43 46  0  0  0  0  0  0  0  0999 V2000
   26.3866   22.0823   16.4218 C   0  0  0  0  0  0
   25.4945   21.5023   17.2546 C   0  0  0  0  0  0
   26.1805   20.9250   18.4749 C   0  0  0  0  0  0
   27.6432   21.2750   18.2994 C   0  0  0  0  0  0
   27.7872   22.0278   16.9939 C   0  0  0  0  0  0
   24.0373   21.3884   17.1126 C   0  0  0  0  0  0
   26.1556   22.7053   15.1128 C   0  0  0  0  0  0
   23.3276   22.2656   16.2778 C   0  0  0  0  0  0
   21.9377   22.1720   16.1539 C   0  0  0  0  0  0
   21.2453   21.2033   16.8821 C   0  0  0  0  0  0
   21.9324   20.3219   17.7181 C   0  0  0  0  0  0
   23.3228   20.4220   17.8355 C   0  0  0  0  0  0
   26.4134   24.0682   14.9144 C   0  0  0  0  0  0
   26.2075   24.6605   13.6622 C   0  0  0  0  0  0
   25.7470   23.8894   12.5903 C   0  0  0  0  0  0
   25.4974   22.5291   12.7759 C   0  0  0  0  0  0
   25.7039   21.9417   14.0278 C   0  0  0  0  0  0
   28.7272   20.3293   18.7700 C   0  0  0  0  0  0
   28.5043   21.6243   19.4941 C   0  0  0  0  0  0
   19.4802   21.0703   16.7142 S   0  0  0  0  0  0
   18.9427   22.4142   16.5250 O   0  0  0  0  0  0
   18.9823   20.2750   17.8324 O   0  0  0  0  0  0
   19.2690   20.1510   15.2128 C   0  0  0  0  0  0
   26.5405   26.3512   13.5062 Cl  0  0  0  0  0  0
   25.4717   24.5561   11.0192 Cl  0  0  0  0  0  0
   26.0531   19.8384   18.5235 H   0  0  0  0  0  0
   25.7785   21.3764   19.3889 H   0  0  0  0  0  0
   28.1787   23.0341   17.1763 H   0  0  0  0  0  0
   28.4595   21.4981   16.3099 H   0  0  0  0  0  0
   23.8503   23.0403   15.7184 H   0  0  0  0  0  0
   21.4123   22.8616   15.4968 H   0  0  0  0  0  0
   21.4032   19.5582   18.2840 H   0  0  0  0  0  0
   23.8404   19.7217   18.4891 H   0  0  0  0  0  0
   26.7624   24.6835   15.7412 H   0  0  0  0  0  0
   25.1439   21.9132   11.9519 H   0  0  0  0  0  0
   25.5138   20.8753   14.1426 H   0  0  0  0  0  0
   29.6270   20.2323   18.1723 H   0  0  0  0  0  0
   28.4361   19.4128   19.2714 H   0  0  0  0  0  0
   28.0621   21.5810   20.4833 H   0  0  0  0  0  0
   29.2543   22.4000   19.3849 H   0  0  0  0  0  0
   18.1981   20.0287   15.0380 H   0  0  0  0  0  0
   19.7408   19.1731   15.3248 H   0  0  0  0  0  0
   19.7189   20.7076   14.3887 H   0  0  0  0  0  0
  1  2  2  0  0  0
  1  5  1  0  0  0
  1  7  1  0  0  0
  2  3  1  0  0  0
  2  6  1  0  0  0
  3  4  1  0  0  0
  3 26  1  0  0  0
  3 27  1  0  0  0
  4  5  1  0  0  0
  4 18  1  0  0  0
  4 19  1  0  0  0
  5 28  1  0  0  0
  5 29  1  0  0  0
  6  8  2  0  0  0
  6 12  1  0  0  0
  7 13  2  0  0  0
  7 17  1  0  0  0
  8  9  1  0  0  0
  8 30  1  0  0  0
  9 10  2  0  0  0
  9 31  1  0  0  0
 10 11  1  0  0  0
 10 20  1  0  0  0
 11 12  2  0  0  0
 11 32  1  0  0  0
 12 33  1  0  0  0
 13 14  1  0  0  0
 13 34  1  0  0  0
 14 15  2  0  0  0
 14 24  1  0  0  0
 15 16  1  0  0  0
 15 25  1  0  0  0
 16 17  2  0  0  0
 16 35  1  0  0  0
 17 36  1  0  0  0
 18 19  1  0  0  0
 18 37  1  0  0  0
 18 38  1  0  0  0
 19 39  1  0  0  0
 19 40  1  0  0  0
 20 21  2  0  0  0
 20 22  2  0  0  0
 20 23  1  0  0  0
 23 41  1  0  0  0
 23 42  1  0  0  0
 23 43  1  0  0  0
M  END
>  <Name>
9-49

>  <Family>
F

>  <IC50_uM>
0.003000

>  <set>
0

$$$$
9-50
  Cerius2 12120216103D 1   1.00000                          
 Structure written by MMmdl.
 42 45  0  0  0  0  0  0  0  0999 V2000
   26.3867   22.0812   16.4213 C   0  0  0  0  0  0
   25.4951   21.5018   17.2551 C   0  0  0  0  0  0
   26.1816   20.9276   18.4764 C   0  0  0  0  0  0
   27.6434   21.2814   18.3017 C   0  0  0  0  0  0
   27.7876   22.0274   16.9925 C   0  0  0  0  0  0
   24.0378   21.3873   17.1131 C   0  0  0  0  0  0
   26.1544   22.7041   15.1128 C   0  0  0  0  0  0
   23.3280   22.2650   16.2791 C   0  0  0  0  0  0
   21.9381   22.1712   16.1565 C   0  0  0  0  0  0
   21.2441   21.2021   16.8837 C   0  0  0  0  0  0
   21.9324   20.3211   17.7195 C   0  0  0  0  0  0
   23.3234   20.4208   17.8359 C   0  0  0  0  0  0
   26.4123   24.0670   14.9152 C   0  0  0  0  0  0
   26.2037   24.6602   13.6640 C   0  0  0  0  0  0
   25.7413   23.8898   12.5925 C   0  0  0  0  0  0
   25.4911   22.5294   12.7777 C   0  0  0  0  0  0
   25.6996   21.9413   14.0287 C   0  0  0  0  0  0
   28.7300   20.3432   18.7813 C   0  0  0  0  0  0
   28.5003   21.6421   19.4961 C   0  0  0  0  0  0
   19.4864   21.0743   16.7069 S   0  0  0  0  0  0
   18.9313   22.3856   16.4206 O   0  0  0  0  0  0
   18.9578   20.2725   17.7963 O   0  0  0  0  0  0
   19.3384   20.1691   15.3051 N   0  0  0  0  0  0
   26.5360   26.3512   13.5090 Cl  0  0  0  0  0  0
   25.4641   24.5573   11.0221 Cl  0  0  0  0  0  0
   26.0568   19.8408   18.5260 H   0  0  0  0  0  0
   25.7776   21.3788   19.3895 H   0  0  0  0  0  0
   28.1819   23.0336   17.1690 H   0  0  0  0  0  0
   28.4581   21.4925   16.3106 H   0  0  0  0  0  0
   23.8501   23.0404   15.7205 H   0  0  0  0  0  0
   21.4085   22.8612   15.5030 H   0  0  0  0  0  0
   21.4028   19.5584   18.2860 H   0  0  0  0  0  0
   23.8409   19.7206   18.4897 H   0  0  0  0  0  0
   26.7632   24.6814   15.7418 H   0  0  0  0  0  0
   25.1357   21.9139   11.9541 H   0  0  0  0  0  0
   25.5085   20.8752   14.1440 H   0  0  0  0  0  0
   29.6310   20.2455   18.1858 H   0  0  0  0  0  0
   28.4409   19.4294   19.2886 H   0  0  0  0  0  0
   28.0555   21.6041   20.4843 H   0  0  0  0  0  0
   29.2472   22.4204   19.3832 H   0  0  0  0  0  0
   18.8587   20.6996   14.5731 H   0  0  0  0  0  0
   18.8699   19.2781   15.4887 H   0  0  0  0  0  0
  1  2  2  0  0  0
  1  5  1  0  0  0
  1  7  1  0  0  0
  2  3  1  0  0  0
  2  6  1  0  0  0
  3  4  1  0  0  0
  3 26  1  0  0  0
  3 27  1  0  0  0
  4  5  1  0  0  0
  4 18  1  0  0  0
  4 19  1  0  0  0
  5 28  1  0  0  0
  5 29  1  0  0  0
  6  8  2  0  0  0
  6 12  1  0  0  0
  7 13  2  0  0  0
  7 17  1  0  0  0
  8  9  1  0  0  0
  8 30  1  0  0  0
  9 10  2  0  0  0
  9 31  1  0  0  0
 10 11  1  0  0  0
 10 20  1  0  0  0
 11 12  2  0  0  0
 11 32  1  0  0  0
 12 33  1  0  0  0
 13 14  1  0  0  0
 13 34  1  0  0  0
 14 15  2  0  0  0
 14 24  1  0  0  0
 15 16  1  0  0  0
 15 25  1  0  0  0
 16 17  2  0  0  0
 16 35  1  0  0  0
 17 36  1  0  0  0
 18 19  1  0  0  0
 18 37  1  0  0  0
 18 38  1  0  0  0
 19 39  1  0  0  0
 19 40  1  0  0  0
 20 21  2  0  0  0
 20 22  2  0  0  0
 20 23  1  0  0  0
 23 41  1  0  0  0
 23 42  1  0  0  0
M  END
>  <Name>
9-50

>  <Family>
F

>  <IC50_uM>
0.001000

>  <set>
0

$$$$
9-51
  Cerius2 12120216103D 1   1.00000                          
 Structure written by MMmdl.
 43 46  0  0  0  0  0  0  0  0999 V2000
   26.3869   22.0831   16.4218 C   0  0  0  0  0  0
   25.4952   21.5030   17.2548 C   0  0  0  0  0  0
   26.1816   20.9245   18.4742 C   0  0  0  0  0  0
   27.6439   21.2763   18.2993 C   0  0  0  0  0  0
   27.7879   22.0276   16.9931 C   0  0  0  0  0  0
   24.0378   21.3896   17.1131 C   0  0  0  0  0  0
   26.1552   22.7070   15.1133 C   0  0  0  0  0  0
   23.3284   22.2667   16.2781 C   0  0  0  0  0  0
   21.9387   22.1727   16.1535 C   0  0  0  0  0  0
   21.2460   21.2040   16.8813 C   0  0  0  0  0  0
   21.9329   20.3228   17.7180 C   0  0  0  0  0  0
   23.3232   20.4234   17.8361 C   0  0  0  0  0  0
   26.4137   24.0717   14.9176 C   0  0  0  0  0  0
   26.2046   24.6560   13.6662 C   0  0  0  0  0  0
   25.7451   23.8823   12.6035 C   0  0  0  0  0  0
   25.4935   22.5268   12.7763 C   0  0  0  0  0  0
   25.7015   21.9408   14.0272 C   0  0  0  0  0  0
   28.7291   20.3330   18.7722 C   0  0  0  0  0  0
   28.5033   21.6287   19.4943 C   0  0  0  0  0  0
   19.4810   21.0705   16.7115 S   0  0  0  0  0  0
   18.9445   22.4127   16.5086 O   0  0  0  0  0  0
   18.9812   20.2861   17.8363 O   0  0  0  0  0  0
   19.2717   20.1374   15.2183 C   0  0  0  0  0  0
   26.5188   26.3369   13.4500 Cl  0  0  0  0  0  0
   25.5406   24.4304   11.3957 F   0  0  0  0  0  0
   26.0554   19.8378   18.5210 H   0  0  0  0  0  0
   25.7787   21.3738   19.3889 H   0  0  0  0  0  0
   28.1813   23.0336   17.1737 H   0  0  0  0  0  0
   28.4589   21.4962   16.3089 H   0  0  0  0  0  0
   23.8515   23.0416   15.7192 H   0  0  0  0  0  0
   21.4135   22.8619   15.4957 H   0  0  0  0  0  0
   21.4035   19.5589   18.2834 H   0  0  0  0  0  0
   23.8406   19.7234   18.4903 H   0  0  0  0  0  0
   26.7636   24.6890   15.7417 H   0  0  0  0  0  0
   25.1404   21.9294   11.9409 H   0  0  0  0  0  0
   25.5121   20.8744   14.1439 H   0  0  0  0  0  0
   29.6293   20.2366   18.1751 H   0  0  0  0  0  0
   28.4386   19.4168   19.2745 H   0  0  0  0  0  0
   28.0604   21.5858   20.4832 H   0  0  0  0  0  0
   29.2519   22.4057   19.3848 H   0  0  0  0  0  0
   18.2008   20.0158   15.0422 H   0  0  0  0  0  0
   19.7413   19.1597   15.3404 H   0  0  0  0  0  0
   19.7246   20.6854   14.3899 H   0  0  0  0  0  0
  1  2  2  0  0  0
  1  5  1  0  0  0
  1  7  1  0  0  0
  2  3  1  0  0  0
  2  6  1  0  0  0
  3  4  1  0  0  0
  3 26  1  0  0  0
  3 27  1  0  0  0
  4  5  1  0  0  0
  4 18  1  0  0  0
  4 19  1  0  0  0
  5 28  1  0  0  0
  5 29  1  0  0  0
  6  8  2  0  0  0
  6 12  1  0  0  0
  7 13  2  0  0  0
  7 17  1  0  0  0
  8  9  1  0  0  0
  8 30  1  0  0  0
  9 10  2  0  0  0
  9 31  1  0  0  0
 10 11  1  0  0  0
 10 20  1  0  0  0
 11 12  2  0  0  0
 11 32  1  0  0  0
 12 33  1  0  0  0
 13 14  1  0  0  0
 13 34  1  0  0  0
 14 15  2  0  0  0
 14 24  1  0  0  0
 15 16  1  0  0  0
 15 25  1  0  0  0
 16 17  2  0  0  0
 16 35  1  0  0  0
 17 36  1  0  0  0
 18 19  1  0  0  0
 18 37  1  0  0  0
 18 38  1  0  0  0
 19 39  1  0  0  0
 19 40  1  0  0  0
 20 21  2  0  0  0
 20 22  2  0  0  0
 20 23  1  0  0  0
 23 41  1  0  0  0
 23 42  1  0  0  0
 23 43  1  0  0  0
M  END
>  <Name>
9-51

>  <Family>
F

>  <IC50_uM>
0.007000

>  <set>
0

$$$$
9-52
  Cerius2 12120216103D 1   1.00000                          
 Structure written by MMmdl.
 42 45  0  0  0  0  0  0  0  0999 V2000
   26.3865   22.0819   16.4213 C   0  0  0  0  0  0
   25.4956   21.5015   17.2550 C   0  0  0  0  0  0
   26.1832   20.9256   18.4751 C   0  0  0  0  0  0
   27.6446   21.2809   18.3004 C   0  0  0  0  0  0
   27.7876   22.0285   16.9921 C   0  0  0  0  0  0
   24.0382   21.3883   17.1141 C   0  0  0  0  0  0
   26.1534   22.7061   15.1132 C   0  0  0  0  0  0
   23.3288   22.2661   16.2799 C   0  0  0  0  0  0
   21.9390   22.1728   16.1571 C   0  0  0  0  0  0
   21.2447   21.2035   16.8840 C   0  0  0  0  0  0
   21.9326   20.3230   17.7208 C   0  0  0  0  0  0
   23.3235   20.4225   17.8375 C   0  0  0  0  0  0
   26.4116   24.0708   14.9181 C   0  0  0  0  0  0
   26.2016   24.6558   13.6672 C   0  0  0  0  0  0
   25.7414   23.8827   12.6044 C   0  0  0  0  0  0
   25.4893   22.5272   12.7769 C   0  0  0  0  0  0
   25.6981   21.9405   14.0275 C   0  0  0  0  0  0
   28.7324   20.3434   18.7788 C   0  0  0  0  0  0
   28.5014   21.6414   19.4950 C   0  0  0  0  0  0
   19.4874   21.0735   16.7032 S   0  0  0  0  0  0
   18.9315   22.3838   16.4139 O   0  0  0  0  0  0
   18.9577   20.2725   17.7926 O   0  0  0  0  0  0
   19.3432   20.1667   15.3020 N   0  0  0  0  0  0
   26.5157   26.3369   13.4521 Cl  0  0  0  0  0  0
   25.5367   24.4313   11.3969 F   0  0  0  0  0  0
   26.0595   19.8386   18.5223 H   0  0  0  0  0  0
   25.7791   21.3745   19.3893 H   0  0  0  0  0  0
   28.1808   23.0349   17.1698 H   0  0  0  0  0  0
   28.4581   21.4952   16.3091 H   0  0  0  0  0  0
   23.8515   23.0411   15.7210 H   0  0  0  0  0  0
   21.4097   22.8623   15.5030 H   0  0  0  0  0  0
   21.4026   19.5603   18.2871 H   0  0  0  0  0  0
   23.8412   19.7222   18.4914 H   0  0  0  0  0  0
   26.7621   24.6879   15.7424 H   0  0  0  0  0  0
   25.1353   21.9306   11.9413 H   0  0  0  0  0  0
   25.5082   20.8742   14.1437 H   0  0  0  0  0  0
   29.6340   20.2477   18.1835 H   0  0  0  0  0  0
   28.4444   19.4283   19.2845 H   0  0  0  0  0  0
   28.0568   21.6022   20.4834 H   0  0  0  0  0  0
   29.2476   22.4203   19.3829 H   0  0  0  0  0  0
   18.8648   20.6956   14.5683 H   0  0  0  0  0  0
   18.8750   19.2755   15.4855 H   0  0  0  0  0  0
  1  2  2  0  0  0
  1  5  1  0  0  0
  1  7  1  0  0  0
  2  3  1  0  0  0
  2  6  1  0  0  0
  3  4  1  0  0  0
  3 26  1  0  0  0
  3 27  1  0  0  0
  4  5  1  0  0  0
  4 18  1  0  0  0
  4 19  1  0  0  0
  5 28  1  0  0  0
  5 29  1  0  0  0
  6  8  2  0  0  0
  6 12  1  0  0  0
  7 13  2  0  0  0
  7 17  1  0  0  0
  8  9  1  0  0  0
  8 30  1  0  0  0
  9 10  2  0  0  0
  9 31  1  0  0  0
 10 11  1  0  0  0
 10 20  1  0  0  0
 11 12  2  0  0  0
 11 32  1  0  0  0
 12 33  1  0  0  0
 13 14  1  0  0  0
 13 34  1  0  0  0
 14 15  2  0  0  0
 14 24  1  0  0  0
 15 16  1  0  0  0
 15 25  1  0  0  0
 16 17  2  0  0  0
 16 35  1  0  0  0
 17 36  1  0  0  0
 18 19  1  0  0  0
 18 37  1  0  0  0
 18 38  1  0  0  0
 19 39  1  0  0  0
 19 40  1  0  0  0
 20 21  2  0  0  0
 20 22  2  0  0  0
 20 23  1  0  0  0
 23 41  1  0  0  0
 23 42  1  0  0  0
M  END
>  <Name>
9-52

>  <Family>
F

>  <IC50_uM>
0.001500

>  <set>
0

$$$$
9-53
  Cerius2 12120216103D 1   1.00000                          
 Structure written by MMmdl.
 43 46  0  0  0  0  0  0  0  0999 V2000
   26.3882   22.0867   16.4274 C   0  0  0  0  0  0
   25.4970   21.5034   17.2588 C   0  0  0  0  0  0
   26.1849   20.9151   18.4724 C   0  0  0  0  0  0
   27.6486   21.2594   18.2924 C   0  0  0  0  0  0
   27.7908   22.0222   16.9919 C   0  0  0  0  0  0
   24.0399   21.3911   17.1148 C   0  0  0  0  0  0
   26.1523   22.7105   15.1192 C   0  0  0  0  0  0
   23.3327   22.2685   16.2782 C   0  0  0  0  0  0
   21.9431   22.1749   16.1506 C   0  0  0  0  0  0
   21.2487   21.2061   16.8769 C   0  0  0  0  0  0
   21.9335   20.3245   17.7147 C   0  0  0  0  0  0
   23.3237   20.4247   17.8357 C   0  0  0  0  0  0
   26.4004   24.0736   14.8978 C   0  0  0  0  0  0
   26.1929   24.6596   13.6525 C   0  0  0  0  0  0
   25.7353   23.8728   12.6064 C   0  0  0  0  0  0
   25.4858   22.5176   12.7864 C   0  0  0  0  0  0
   25.6969   21.9364   14.0398 C   0  0  0  0  0  0
   28.7308   20.3059   18.7516 C   0  0  0  0  0  0
   28.5159   21.5964   19.4861 C   0  0  0  0  0  0
   19.4839   21.0731   16.7046 S   0  0  0  0  0  0
   18.9493   22.4152   16.4948 O   0  0  0  0  0  0
   18.9811   20.2942   17.8319 O   0  0  0  0  0  0
   19.2767   20.1333   15.2154 C   0  0  0  0  0  0
   25.5323   24.4265   11.4033 F   0  0  0  0  0  0
   26.8276   24.8574   15.9002 F   0  0  0  0  0  0
   26.0526   19.8289   18.5145 H   0  0  0  0  0  0
   25.7885   21.3623   19.3907 H   0  0  0  0  0  0
   28.1906   23.0232   17.1822 H   0  0  0  0  0  0
   28.4571   21.4941   16.3008 H   0  0  0  0  0  0
   23.8563   23.0441   15.7212 H   0  0  0  0  0  0
   21.4194   22.8645   15.4923 H   0  0  0  0  0  0
   21.4028   19.5606   18.2788 H   0  0  0  0  0  0
   23.8398   19.7241   18.4904 H   0  0  0  0  0  0
   26.3841   25.7163   13.5046 H   0  0  0  0  0  0
   25.1317   21.9156   11.9541 H   0  0  0  0  0  0
   25.5092   20.8708   14.1625 H   0  0  0  0  0  0
   29.6276   20.2104   18.1493 H   0  0  0  0  0  0
   28.4377   19.3870   19.2472 H   0  0  0  0  0  0
   28.0767   21.5490   20.4764 H   0  0  0  0  0  0
   29.2663   22.3720   19.3781 H   0  0  0  0  0  0
   18.2060   20.0111   15.0380 H   0  0  0  0  0  0
   19.7458   19.1559   15.3429 H   0  0  0  0  0  0
   19.7310   20.6772   14.3853 H   0  0  0  0  0  0
  1  2  2  0  0  0
  1  5  1  0  0  0
  1  7  1  0  0  0
  2  3  1  0  0  0
  2  6  1  0  0  0
  3  4  1  0  0  0
  3 26  1  0  0  0
  3 27  1  0  0  0
  4  5  1  0  0  0
  4 18  1  0  0  0
  4 19  1  0  0  0
  5 28  1  0  0  0
  5 29  1  0  0  0
  6  8  2  0  0  0
  6 12  1  0  0  0
  7 13  2  0  0  0
  7 17  1  0  0  0
  8  9  1  0  0  0
  8 30  1  0  0  0
  9 10  2  0  0  0
  9 31  1  0  0  0
 10 11  1  0  0  0
 10 20  1  0  0  0
 11 12  2  0  0  0
 11 32  1  0  0  0
 12 33  1  0  0  0
 13 14  1  0  0  0
 13 25  1  0  0  0
 14 15  2  0  0  0
 14 34  1  0  0  0
 15 16  1  0  0  0
 15 24  1  0  0  0
 16 17  2  0  0  0
 16 35  1  0  0  0
 17 36  1  0  0  0
 18 19  1  0  0  0
 18 37  1  0  0  0
 18 38  1  0  0  0
 19 39  1  0  0  0
 19 40  1  0  0  0
 20 21  2  0  0  0
 20 22  2  0  0  0
 20 23  1  0  0  0
 23 41  1  0  0  0
 23 42  1  0  0  0
 23 43  1  0  0  0
M  END
>  <Name>
9-53

>  <Family>
F

>  <IC50_uM>
0.022000

>  <set>
1

$$$$
9-54
  Cerius2 12120216103D 1   1.00000                          
 Structure written by MMmdl.
 43 46  0  0  0  0  0  0  0  0999 V2000
   26.3989   22.0977   16.4449 C   0  0  0  0  0  0
   25.5061   21.5152   17.2727 C   0  0  0  0  0  0
   26.1997   20.8998   18.4688 C   0  0  0  0  0  0
   27.6671   21.2307   18.2783 C   0  0  0  0  0  0
   27.8105   21.9789   16.9689 C   0  0  0  0  0  0
   24.0509   21.4051   17.1147 C   0  0  0  0  0  0
   26.1508   22.7323   15.1466 C   0  0  0  0  0  0
   23.3492   22.2809   16.2726 C   0  0  0  0  0  0
   21.9608   22.1856   16.1336 C   0  0  0  0  0  0
   21.2614   21.2154   16.8531 C   0  0  0  0  0  0
   21.9405   20.3343   17.6955 C   0  0  0  0  0  0
   23.3293   20.4366   17.8280 C   0  0  0  0  0  0
   26.3696   24.0988   14.8963 C   0  0  0  0  0  0
   26.1189   24.6404   13.6316 C   0  0  0  0  0  0
   25.6454   23.8210   12.6105 C   0  0  0  0  0  0
   25.4169   22.4671   12.8399 C   0  0  0  0  0  0
   25.6679   21.9259   14.1030 C   0  0  0  0  0  0
   28.7445   20.2769   18.7474 C   0  0  0  0  0  0
   28.5395   21.5784   19.4653 C   0  0  0  0  0  0
   19.4984   21.0825   16.6663 S   0  0  0  0  0  0
   18.9692   22.4190   16.4126 O   0  0  0  0  0  0
   18.9822   20.3373   17.8102 O   0  0  0  0  0  0
   19.3041   20.1015   15.2020 C   0  0  0  0  0  0
   25.3363   24.4873   11.0534 Cl  0  0  0  0  0  0
   26.9145   25.1830   16.1317 Cl  0  0  0  0  0  0
   26.0578   19.8144   18.4949 H   0  0  0  0  0  0
   25.8174   21.3358   19.3984 H   0  0  0  0  0  0
   28.2632   22.9612   17.1332 H   0  0  0  0  0  0
   28.4320   21.4136   16.2652 H   0  0  0  0  0  0
   23.8739   23.0606   15.7234 H   0  0  0  0  0  0
   21.4414   22.8760   15.4725 H   0  0  0  0  0  0
   21.4066   19.5691   18.2548 H   0  0  0  0  0  0
   23.8404   19.7356   18.4861 H   0  0  0  0  0  0
   26.2871   25.6980   13.4464 H   0  0  0  0  0  0
   25.0445   21.8243   12.0455 H   0  0  0  0  0  0
   25.4859   20.8643   14.2665 H   0  0  0  0  0  0
   29.6393   20.1682   18.1445 H   0  0  0  0  0  0
   28.4469   19.3668   19.2562 H   0  0  0  0  0  0
   28.1028   21.5465   20.4575 H   0  0  0  0  0  0
   29.2946   22.3476   19.3460 H   0  0  0  0  0  0
   18.2350   19.9783   15.0162 H   0  0  0  0  0  0
   19.7679   19.1264   15.3622 H   0  0  0  0  0  0
   19.7698   20.6203   14.3620 H   0  0  0  0  0  0
  1  2  2  0  0  0
  1  5  1  0  0  0
  1  7  1  0  0  0
  2  3  1  0  0  0
  2  6  1  0  0  0
  3  4  1  0  0  0
  3 26  1  0  0  0
  3 27  1  0  0  0
  4  5  1  0  0  0
  4 18  1  0  0  0
  4 19  1  0  0  0
  5 28  1  0  0  0
  5 29  1  0  0  0
  6  8  2  0  0  0
  6 12  1  0  0  0
  7 13  2  0  0  0
  7 17  1  0  0  0
  8  9  1  0  0  0
  8 30  1  0  0  0
  9 10  2  0  0  0
  9 31  1  0  0  0
 10 11  1  0  0  0
 10 20  1  0  0  0
 11 12  2  0  0  0
 11 32  1  0  0  0
 12 33  1  0  0  0
 13 14  1  0  0  0
 13 25  1  0  0  0
 14 15  2  0  0  0
 14 34  1  0  0  0
 15 16  1  0  0  0
 15 24  1  0  0  0
 16 17  2  0  0  0
 16 35  1  0  0  0
 17 36  1  0  0  0
 18 19  1  0  0  0
 18 37  1  0  0  0
 18 38  1  0  0  0
 19 39  1  0  0  0
 19 40  1  0  0  0
 20 21  2  0  0  0
 20 22  2  0  0  0
 20 23  1  0  0  0
 23 41  1  0  0  0
 23 42  1  0  0  0
 23 43  1  0  0  0
M  END
>  <Name>
9-54

>  <Family>
F

>  <IC50_uM>
0.033000

>  <set>
0

$$$$
9-55
  Cerius2 12120216103D 1   1.00000                          
 Structure written by MMmdl.
 47 50  0  0  0  0  0  0  0  0999 V2000
   26.3901   22.0799   16.4222 C   0  0  0  0  0  0
   25.4980   21.5024   17.2566 C   0  0  0  0  0  0
   26.1824   20.9274   18.4783 C   0  0  0  0  0  0
   27.6456   21.2749   18.3014 C   0  0  0  0  0  0
   27.7906   22.0255   16.9945 C   0  0  0  0  0  0
   24.0414   21.3904   17.1137 C   0  0  0  0  0  0
   26.1551   22.7022   15.1135 C   0  0  0  0  0  0
   23.3346   22.2676   16.2766 C   0  0  0  0  0  0
   21.9454   22.1736   16.1490 C   0  0  0  0  0  0
   21.2511   21.2050   16.8756 C   0  0  0  0  0  0
   21.9360   20.3229   17.7130 C   0  0  0  0  0  0
   23.3260   20.4232   17.8339 C   0  0  0  0  0  0
   26.4075   24.0656   14.9166 C   0  0  0  0  0  0
   26.1908   24.6567   13.6676 C   0  0  0  0  0  0
   25.7439   23.8872   12.5873 C   0  0  0  0  0  0
   25.4690   22.5298   12.7854 C   0  0  0  0  0  0
   25.6878   21.9401   14.0338 C   0  0  0  0  0  0
   28.7279   20.3280   18.7734 C   0  0  0  0  0  0
   28.5079   21.6249   19.4951 C   0  0  0  0  0  0
   19.4859   21.0763   16.7044 S   0  0  0  0  0  0
   18.9533   22.4186   16.4925 O   0  0  0  0  0  0
   18.9828   20.3003   17.8336 O   0  0  0  0  0  0
   19.2756   20.1351   15.2163 C   0  0  0  0  0  0
   26.4711   26.3558   13.5092 Cl  0  0  0  0  0  0
   24.8420   21.5405   11.5139 Cl  0  0  0  0  0  0
   25.5014   24.4749   11.3683 O   0  0  0  0  0  0
   26.6750   24.4178   10.5487 C   0  0  0  0  0  0
   26.0526   19.8413   18.5302 H   0  0  0  0  0  0
   25.7810   21.3822   19.3908 H   0  0  0  0  0  0
   28.1829   23.0318   17.1750 H   0  0  0  0  0  0
   28.4625   21.4942   16.3114 H   0  0  0  0  0  0
   23.8595   23.0423   15.7192 H   0  0  0  0  0  0
   21.4212   22.8630   15.4906 H   0  0  0  0  0  0
   21.4055   19.5590   18.2773 H   0  0  0  0  0  0
   23.8429   19.7229   18.4883 H   0  0  0  0  0  0
   26.7524   24.6829   15.7437 H   0  0  0  0  0  0
   25.4903   20.8775   14.1631 H   0  0  0  0  0  0
   29.6273   20.2277   18.1758 H   0  0  0  0  0  0
   28.4346   19.4130   19.2765 H   0  0  0  0  0  0
   28.0662   21.5841   20.4847 H   0  0  0  0  0  0
   29.2594   22.3988   19.3844 H   0  0  0  0  0  0
   18.2047   20.0161   15.0391 H   0  0  0  0  0  0
   19.7417   19.1565   15.3450 H   0  0  0  0  0  0
   19.7318   20.6769   14.3858 H   0  0  0  0  0  0
   26.9721   23.3834   10.3469 H   0  0  0  0  0  0
   27.5070   24.9664   11.0025 H   0  0  0  0  0  0
   26.4362   24.8943    9.5933 H   0  0  0  0  0  0
  1  2  2  0  0  0
  1  5  1  0  0  0
  1  7  1  0  0  0
  2  3  1  0  0  0
  2  6  1  0  0  0
  3  4  1  0  0  0
  3 28  1  0  0  0
  3 29  1  0  0  0
  4  5  1  0  0  0
  4 18  1  0  0  0
  4 19  1  0  0  0
  5 30  1  0  0  0
  5 31  1  0  0  0
  6  8  2  0  0  0
  6 12  1  0  0  0
  7 13  2  0  0  0
  7 17  1  0  0  0
  8  9  1  0  0  0
  8 32  1  0  0  0
  9 10  2  0  0  0
  9 33  1  0  0  0
 10 11  1  0  0  0
 10 20  1  0  0  0
 11 12  2  0  0  0
 11 34  1  0  0  0
 12 35  1  0  0  0
 13 14  1  0  0  0
 13 36  1  0  0  0
 14 15  2  0  0  0
 14 24  1  0  0  0
 15 16  1  0  0  0
 15 26  1  0  0  0
 16 17  2  0  0  0
 16 25  1  0  0  0
 17 37  1  0  0  0
 18 19  1  0  0  0
 18 38  1  0  0  0
 18 39  1  0  0  0
 19 40  1  0  0  0
 19 41  1  0  0  0
 20 21  2  0  0  0
 20 22  2  0  0  0
 20 23  1  0  0  0
 23 42  1  0  0  0
 23 43  1  0  0  0
 23 44  1  0  0  0
 26 27  1  0  0  0
 27 45  1  0  0  0
 27 46  1  0  0  0
 27 47  1  0  0  0
M  END
>  <Name>
9-55

>  <Family>
F

>  <IC50_uM>
0.006000

>  <set>
1

$$$$
9-56
  Cerius2 12120216103D 1   1.00000                          
 Structure written by MMmdl.
 46 49  0  0  0  0  0  0  0  0999 V2000
   26.3897   22.0799   16.4220 C   0  0  0  0  0  0
   25.4979   21.5023   17.2569 C   0  0  0  0  0  0
   26.1829   20.9263   18.4777 C   0  0  0  0  0  0
   27.6463   21.2712   18.2986 C   0  0  0  0  0  0
   27.7904   22.0246   16.9934 C   0  0  0  0  0  0
   24.0411   21.3908   17.1153 C   0  0  0  0  0  0
   26.1537   22.7023   15.1135 C   0  0  0  0  0  0
   23.3342   22.2683   16.2789 C   0  0  0  0  0  0
   21.9449   22.1740   16.1532 C   0  0  0  0  0  0
   21.2498   21.2037   16.8785 C   0  0  0  0  0  0
   21.9356   20.3238   17.7174 C   0  0  0  0  0  0
   23.3260   20.4242   17.8372 C   0  0  0  0  0  0
   26.4064   24.0656   14.9160 C   0  0  0  0  0  0
   26.1886   24.6566   13.6672 C   0  0  0  0  0  0
   25.7405   23.8868   12.5876 C   0  0  0  0  0  0
   25.4656   22.5293   12.7862 C   0  0  0  0  0  0
   25.6859   21.9399   14.0343 C   0  0  0  0  0  0
   28.7277   20.3207   18.7657 C   0  0  0  0  0  0
   28.5114   21.6160   19.4916 C   0  0  0  0  0  0
   19.4926   21.0772   16.6958 S   0  0  0  0  0  0
   18.9386   22.3882   16.4072 O   0  0  0  0  0  0
   18.9622   20.2752   17.7839 O   0  0  0  0  0  0
   19.3478   20.1733   15.2930 N   0  0  0  0  0  0
   24.8361   21.5400   11.5158 Cl  0  0  0  0  0  0
   26.4689   26.3556   13.5083 Cl  0  0  0  0  0  0
   25.4960   24.4739   11.3686 O   0  0  0  0  0  0
   26.6676   24.4139   10.5464 C   0  0  0  0  0  0
   26.0510   19.8404   18.5300 H   0  0  0  0  0  0
   25.7836   21.3825   19.3903 H   0  0  0  0  0  0
   28.1825   23.0306   17.1761 H   0  0  0  0  0  0
   28.4622   21.4949   16.3087 H   0  0  0  0  0  0
   23.8582   23.0434   15.7216 H   0  0  0  0  0  0
   21.4157   22.8635   15.4989 H   0  0  0  0  0  0
   21.4050   19.5610   18.2827 H   0  0  0  0  0  0
   23.8435   19.7245   18.4918 H   0  0  0  0  0  0
   26.7523   24.6830   15.7426 H   0  0  0  0  0  0
   25.4891   20.8772   14.1637 H   0  0  0  0  0  0
   29.6256   20.2207   18.1659 H   0  0  0  0  0  0
   28.4332   19.4049   19.2665 H   0  0  0  0  0  0
   28.0708   21.5737   20.4818 H   0  0  0  0  0  0
   29.2637   22.3891   19.3814 H   0  0  0  0  0  0
   18.8734   20.7053   14.5590 H   0  0  0  0  0  0
   18.8762   19.2833   15.4740 H   0  0  0  0  0  0
   26.9763   23.3795   10.3621 H   0  0  0  0  0  0
   27.4943   24.9802   10.9880 H   0  0  0  0  0  0
   26.4206   24.8698    9.5830 H   0  0  0  0  0  0
  1  2  2  0  0  0
  1  5  1  0  0  0
  1  7  1  0  0  0
  2  3  1  0  0  0
  2  6  1  0  0  0
  3  4  1  0  0  0
  3 28  1  0  0  0
  3 29  1  0  0  0
  4  5  1  0  0  0
  4 18  1  0  0  0
  4 19  1  0  0  0
  5 30  1  0  0  0
  5 31  1  0  0  0
  6  8  2  0  0  0
  6 12  1  0  0  0
  7 13  2  0  0  0
  7 17  1  0  0  0
  8  9  1  0  0  0
  8 32  1  0  0  0
  9 10  2  0  0  0
  9 33  1  0  0  0
 10 11  1  0  0  0
 10 20  1  0  0  0
 11 12  2  0  0  0
 11 34  1  0  0  0
 12 35  1  0  0  0
 13 14  1  0  0  0
 13 36  1  0  0  0
 14 15  2  0  0  0
 14 25  1  0  0  0
 15 16  1  0  0  0
 15 26  1  0  0  0
 16 17  2  0  0  0
 16 24  1  0  0  0
 17 37  1  0  0  0
 18 19  1  0  0  0
 18 38  1  0  0  0
 18 39  1  0  0  0
 19 40  1  0  0  0
 19 41  1  0  0  0
 20 21  2  0  0  0
 20 22  2  0  0  0
 20 23  1  0  0  0
 23 42  1  0  0  0
 23 43  1  0  0  0
 26 27  1  0  0  0
 27 44  1  0  0  0
 27 45  1  0  0  0
 27 46  1  0  0  0
M  END
>  <Name>
9-56

>  <Family>
F

>  <IC50_uM>
0.004000

>  <set>
2

$$$$
9-25
  Cerius2 12120216103D 1   1.00000                          
 Structure written by MMmdl.
 46 49  0  0  0  0  0  0  0  0999 V2000
   26.3870   22.0710   16.4217 C   0  0  0  0  0  0
   25.5022   21.4967   17.2609 C   0  0  0  0  0  0
   26.1737   20.9344   18.4861 C   0  0  0  0  0  0
   27.6616   21.0109   18.1104 C   0  0  0  0  0  0
   27.7853   22.0339   16.9789 C   0  0  0  0  0  0
   24.0450   21.3883   17.1186 C   0  0  0  0  0  0
   26.1453   22.6975   15.1147 C   0  0  0  0  0  0
   23.3422   22.2658   16.2787 C   0  0  0  0  0  0
   21.9529   22.1748   16.1500 C   0  0  0  0  0  0
   21.2558   21.2077   16.8761 C   0  0  0  0  0  0
   21.9378   20.3244   17.7150 C   0  0  0  0  0  0
   23.3277   20.4219   17.8379 C   0  0  0  0  0  0
   26.4077   24.0627   14.9220 C   0  0  0  0  0  0
   26.1966   24.6602   13.6762 C   0  0  0  0  0  0
   25.7305   23.8919   12.6176 C   0  0  0  0  0  0
   25.4751   22.5368   12.7795 C   0  0  0  0  0  0
   25.6864   21.9401   14.0253 C   0  0  0  0  0  0
   19.4912   21.0764   16.6993 S   0  0  0  0  0  0
   18.9592   22.4180   16.4806 O   0  0  0  0  0  0
   18.9841   20.3049   17.8299 O   0  0  0  0  0  0
   19.2866   20.1283   15.2151 C   0  0  0  0  0  0
   25.5286   24.4647   11.4237 F   0  0  0  0  0  0
   28.6819   21.1313   19.2912 C   0  0  0  0  0  0
   29.5875   20.1459   18.5274 C   0  0  0  0  0  0
   28.3207   19.6302   17.8183 C   0  0  0  0  0  0
   25.8634   19.9100   18.7132 H   0  0  0  0  0  0
   25.9495   21.5702   19.3505 H   0  0  0  0  0  0
   28.0617   23.0195   17.3708 H   0  0  0  0  0  0
   28.5216   21.7304   16.2276 H   0  0  0  0  0  0
   23.8717   23.0348   15.7177 H   0  0  0  0  0  0
   21.4314   22.8639   15.4892 H   0  0  0  0  0  0
   21.4047   19.5610   18.2777 H   0  0  0  0  0  0
   23.8440   19.7207   18.4919 H   0  0  0  0  0  0
   26.7669   24.6815   15.7425 H   0  0  0  0  0  0
   26.3939   25.7187   13.5330 H   0  0  0  0  0  0
   25.1174   21.9473   11.9404 H   0  0  0  0  0  0
   25.4965   20.8734   14.1330 H   0  0  0  0  0  0
   18.2162   20.0060   15.0360 H   0  0  0  0  0  0
   19.7545   19.1513   15.3492 H   0  0  0  0  0  0
   19.7432   20.6673   14.3829 H   0  0  0  0  0  0
   28.3244   20.7291   20.2470 H   0  0  0  0  0  0
   29.1095   22.1214   19.4728 H   0  0  0  0  0  0
   30.1186   19.4148   19.1420 H   0  0  0  0  0  0
   30.3038   20.6322   17.8553 H   0  0  0  0  0  0
   28.4466   19.3645   16.7652 H   0  0  0  0  0  0
   27.8455   18.7886   18.3368 H   0  0  0  0  0  0
  1  2  2  0  0  0
  1  5  1  0  0  0
  1  7  1  0  0  0
  2  3  1  0  0  0
  2  6  1  0  0  0
  3  4  1  0  0  0
  3 26  1  0  0  0
  3 27  1  0  0  0
  4  5  1  0  0  0
  4 23  1  0  0  0
  4 25  1  0  0  0
  5 28  1  0  0  0
  5 29  1  0  0  0
  6  8  2  0  0  0
  6 12  1  0  0  0
  7 13  2  0  0  0
  7 17  1  0  0  0
  8  9  1  0  0  0
  8 30  1  0  0  0
  9 10  2  0  0  0
  9 31  1  0  0  0
 10 11  1  0  0  0
 10 18  1  0  0  0
 11 12  2  0  0  0
 11 32  1  0  0  0
 12 33  1  0  0  0
 13 14  1  0  0  0
 13 34  1  0  0  0
 14 15  2  0  0  0
 14 35  1  0  0  0
 15 16  1  0  0  0
 15 22  1  0  0  0
 16 17  2  0  0  0
 16 36  1  0  0  0
 17 37  1  0  0  0
 18 19  2  0  0  0
 18 20  2  0  0  0
 18 21  1  0  0  0
 21 38  1  0  0  0
 21 39  1  0  0  0
 21 40  1  0  0  0
 23 24  1  0  0  0
 23 41  1  0  0  0
 23 42  1  0  0  0
 24 25  1  0  0  0
 24 43  1  0  0  0
 24 44  1  0  0  0
 25 45  1  0  0  0
 25 46  1  0  0  0
M  END
>  <Name>
9-25

>  <Family>
F

>  <IC50_uM>
0.004000

>  <set>
2

$$$$
9-30
  Cerius2 12120216103D 1   1.00000                          
 Structure written by MMmdl.
 49 52  0  0  0  0  0  0  0  0999 V2000
   26.3805   22.0706   16.4147 C   0  0  0  0  0  0
   25.4936   21.5001   17.2549 C   0  0  0  0  0  0
   26.1820   20.9506   18.4781 C   0  0  0  0  0  0
   27.6524   20.8961   18.0434 C   0  0  0  0  0  0
   27.7728   22.0174   16.9917 C   0  0  0  0  0  0
   24.0372   21.3901   17.1191 C   0  0  0  0  0  0
   26.1526   22.6996   15.1076 C   0  0  0  0  0  0
   23.3297   22.2645   16.2805 C   0  0  0  0  0  0
   21.9401   22.1698   16.1563 C   0  0  0  0  0  0
   21.2479   21.2016   16.8860 C   0  0  0  0  0  0
   21.9348   20.3214   17.7239 C   0  0  0  0  0  0
   23.3249   20.4226   17.8420 C   0  0  0  0  0  0
   26.4179   24.0652   14.9220 C   0  0  0  0  0  0
   26.2204   24.6670   13.6761 C   0  0  0  0  0  0
   25.7658   23.9022   12.6100 C   0  0  0  0  0  0
   25.5085   22.5466   12.7647 C   0  0  0  0  0  0
   25.7060   21.9459   14.0107 C   0  0  0  0  0  0
   25.5769   24.4789   11.4158 F   0  0  0  0  0  0
   19.4832   21.0652   16.7135 S   0  0  0  0  0  0
   18.9439   22.4080   16.5215 O   0  0  0  0  0  0
   18.9844   20.2705   17.8313 O   0  0  0  0  0  0
   19.2771   20.1441   15.2125 C   0  0  0  0  0  0
   28.0493   19.5262   17.4593 C   0  0  0  0  0  0
   29.5737   19.4787   17.5665 C   0  0  0  0  0  0
   29.9602   20.5116   18.6244 C   0  0  0  0  0  0
   28.6467   21.0332   19.1955 C   0  0  0  0  0  0
   25.8127   19.9637   18.7728 H   0  0  0  0  0  0
   26.0349   21.6388   19.3194 H   0  0  0  0  0  0
   28.0228   22.9802   17.4529 H   0  0  0  0  0  0
   28.5231   21.7882   16.2273 H   0  0  0  0  0  0
   23.8554   23.0339   15.7166 H   0  0  0  0  0  0
   21.4146   22.8561   15.4960 H   0  0  0  0  0  0
   21.4059   19.5572   18.2894 H   0  0  0  0  0  0
   23.8456   19.7234   18.4946 H   0  0  0  0  0  0
   26.7690   24.6809   15.7486 H   0  0  0  0  0  0
   26.4197   25.7258   13.5385 H   0  0  0  0  0  0
   25.1601   21.9598   11.9198 H   0  0  0  0  0  0
   25.5157   20.8787   14.1123 H   0  0  0  0  0  0
   18.2066   20.0196   15.0356 H   0  0  0  0  0  0
   19.7507   19.1673   15.3261 H   0  0  0  0  0  0
   19.7274   20.7011   14.3888 H   0  0  0  0  0  0
   27.7121   19.3746   16.4285 H   0  0  0  0  0  0
   27.6273   18.7137   18.0644 H   0  0  0  0  0  0
   30.0395   19.7307   16.6072 H   0  0  0  0  0  0
   29.9143   18.4747   17.8406 H   0  0  0  0  0  0
   30.5220   21.3287   18.1568 H   0  0  0  0  0  0
   30.5962   20.0808   19.4041 H   0  0  0  0  0  0
   28.3400   20.4046   20.0412 H   0  0  0  0  0  0
   28.7422   22.0596   19.5637 H   0  0  0  0  0  0
  1  2  2  0  0  0
  1  5  1  0  0  0
  1  7  1  0  0  0
  2  3  1  0  0  0
  2  6  1  0  0  0
  3  4  1  0  0  0
  3 27  1  0  0  0
  3 28  1  0  0  0
  4  5  1  0  0  0
  4 23  1  0  0  0
  4 26  1  0  0  0
  5 29  1  0  0  0
  5 30  1  0  0  0
  6  8  2  0  0  0
  6 12  1  0  0  0
  7 13  2  0  0  0
  7 17  1  0  0  0
  8  9  1  0  0  0
  8 31  1  0  0  0
  9 10  2  0  0  0
  9 32  1  0  0  0
 10 11  1  0  0  0
 10 19  1  0  0  0
 11 12  2  0  0  0
 11 33  1  0  0  0
 12 34  1  0  0  0
 13 14  1  0  0  0
 13 35  1  0  0  0
 14 15  2  0  0  0
 14 36  1  0  0  0
 15 16  1  0  0  0
 15 18  1  0  0  0
 16 17  2  0  0  0
 16 37  1  0  0  0
 17 38  1  0  0  0
 19 20  2  0  0  0
 19 21  2  0  0  0
 19 22  1  0  0  0
 22 39  1  0  0  0
 22 40  1  0  0  0
 22 41  1  0  0  0
 23 24  1  0  0  0
 23 42  1  0  0  0
 23 43  1  0  0  0
 24 25  1  0  0  0
 24 44  1  0  0  0
 24 45  1  0  0  0
 25 26  1  0  0  0
 25 46  1  0  0  0
 25 47  1  0  0  0
 26 48  1  0  0  0
 26 49  1  0  0  0
M  END
>  <Name>
9-30

>  <Family>
F

>  <IC50_uM>
0.062000

>  <set>
0

$$$$
9-31
  Cerius2 12120216103D 1   1.00000                          
 Structure written by MMmdl.
 52 55  0  0  0  0  0  0  0  0999 V2000
   26.3794   22.0716   16.4150 C   0  0  0  0  0  0
   25.4925   21.5022   17.2550 C   0  0  0  0  0  0
   26.1842   20.9504   18.4752 C   0  0  0  0  0  0
   27.6682   20.8830   18.0422 C   0  0  0  0  0  0
   27.7713   22.0149   16.9919 C   0  0  0  0  0  0
   24.0363   21.3914   17.1200 C   0  0  0  0  0  0
   26.1526   22.7001   15.1077 C   0  0  0  0  0  0
   23.3282   22.2652   16.2812 C   0  0  0  0  0  0
   21.9389   22.1696   16.1571 C   0  0  0  0  0  0
   21.2472   21.2008   16.8869 C   0  0  0  0  0  0
   21.9347   20.3213   17.7252 C   0  0  0  0  0  0
   23.3247   20.4236   17.8432 C   0  0  0  0  0  0
   26.4177   24.0657   14.9221 C   0  0  0  0  0  0
   26.2224   24.6669   13.6757 C   0  0  0  0  0  0
   25.7702   23.9013   12.6091 C   0  0  0  0  0  0
   25.5130   22.5457   12.7638 C   0  0  0  0  0  0
   25.7082   21.9456   14.0106 C   0  0  0  0  0  0
   25.5845   24.4773   11.4139 F   0  0  0  0  0  0
   19.4828   21.0638   16.7134 S   0  0  0  0  0  0
   18.9423   22.4062   16.5214 O   0  0  0  0  0  0
   18.9844   20.2684   17.8312 O   0  0  0  0  0  0
   19.2774   20.1430   15.2121 C   0  0  0  0  0  0
   27.9742   19.4951   17.4132 C   0  0  0  0  0  0
   29.4539   19.2892   17.0847 C   0  0  0  0  0  0
   30.3482   19.5693   18.2868 C   0  0  0  0  0  0
   30.0776   20.9456   18.8828 C   0  0  0  0  0  0
   28.6035   21.1172   19.2427 C   0  0  0  0  0  0
   25.8113   19.9659   18.7745 H   0  0  0  0  0  0
   26.0359   21.6401   19.3155 H   0  0  0  0  0  0
   28.0162   22.9776   17.4569 H   0  0  0  0  0  0
   28.5211   21.8036   16.2240 H   0  0  0  0  0  0
   23.8536   23.0349   15.7170 H   0  0  0  0  0  0
   21.4128   22.8556   15.4970 H   0  0  0  0  0  0
   21.4063   19.5567   18.2906 H   0  0  0  0  0  0
   23.8458   19.7248   18.4959 H   0  0  0  0  0  0
   26.7672   24.6816   15.7492 H   0  0  0  0  0  0
   26.4215   25.7257   13.5379 H   0  0  0  0  0  0
   25.1668   21.9583   11.9185 H   0  0  0  0  0  0
   25.5178   20.8786   14.1125 H   0  0  0  0  0  0
   18.2072   20.0148   15.0371 H   0  0  0  0  0  0
   19.7545   19.1676   15.3244 H   0  0  0  0  0  0
   19.7244   20.7022   14.3880 H   0  0  0  0  0  0
   27.3825   19.3365   16.5033 H   0  0  0  0  0  0
   27.6708   18.7083   18.1172 H   0  0  0  0  0  0
   29.7489   19.9356   16.2506 H   0  0  0  0  0  0
   29.6106   18.2581   16.7472 H   0  0  0  0  0  0
   31.4002   19.4952   17.9893 H   0  0  0  0  0  0
   30.1792   18.8016   19.0521 H   0  0  0  0  0  0
   30.3817   21.7227   18.1715 H   0  0  0  0  0  0
   30.6907   21.0810   19.7811 H   0  0  0  0  0  0
   28.3500   20.4109   20.0445 H   0  0  0  0  0  0
   28.4499   22.1215   19.6569 H   0  0  0  0  0  0
  1  2  2  0  0  0
  1  5  1  0  0  0
  1  7  1  0  0  0
  2  3  1  0  0  0
  2  6  1  0  0  0
  3  4  1  0  0  0
  3 28  1  0  0  0
  3 29  1  0  0  0
  4  5  1  0  0  0
  4 23  1  0  0  0
  4 27  1  0  0  0
  5 30  1  0  0  0
  5 31  1  0  0  0
  6  8  2  0  0  0
  6 12  1  0  0  0
  7 13  2  0  0  0
  7 17  1  0  0  0
  8  9  1  0  0  0
  8 32  1  0  0  0
  9 10  2  0  0  0
  9 33  1  0  0  0
 10 11  1  0  0  0
 10 19  1  0  0  0
 11 12  2  0  0  0
 11 34  1  0  0  0
 12 35  1  0  0  0
 13 14  1  0  0  0
 13 36  1  0  0  0
 14 15  2  0  0  0
 14 37  1  0  0  0
 15 16  1  0  0  0
 15 18  1  0  0  0
 16 17  2  0  0  0
 16 38  1  0  0  0
 17 39  1  0  0  0
 19 20  2  0  0  0
 19 21  2  0  0  0
 19 22  1  0  0  0
 22 40  1  0  0  0
 22 41  1  0  0  0
 22 42  1  0  0  0
 23 24  1  0  0  0
 23 43  1  0  0  0
 23 44  1  0  0  0
 24 25  1  0  0  0
 24 45  1  0  0  0
 24 46  1  0  0  0
 25 26  1  0  0  0
 25 47  1  0  0  0
 25 48  1  0  0  0
 26 27  1  0  0  0
 26 49  1  0  0  0
 26 50  1  0  0  0
 27 51  1  0  0  0
 27 52  1  0  0  0
M  END
>  <Name>
9-31

>  <Family>
F

>  <IC50_uM>
>100

>  <set>
0

$$$$
9-19
  Cerius2 12120216103D 1   1.00000                          
 Structure written by MMmdl.
 41 44  0  0  0  0  0  0  0  0999 V2000
   26.4505   22.1000   16.4009 C   0  0  0  0  0  0
   25.4754   21.4723   17.3113 C   0  0  0  0  0  0
   26.1629   21.0046   18.3780 C   0  0  0  0  0  0
   27.5939   21.2833   18.2549 C   0  0  0  0  0  0
   27.6711   21.9794   16.9706 C   0  0  0  0  0  0
   24.0193   21.3718   17.1733 C   0  0  0  0  0  0
   26.2208   22.7215   15.0938 C   0  0  0  0  0  0
   23.3259   22.2448   16.3222 C   0  0  0  0  0  0
   21.9376   22.1526   16.1822 C   0  0  0  0  0  0
   21.2344   21.1868   16.9052 C   0  0  0  0  0  0
   21.9089   20.3042   17.7515 C   0  0  0  0  0  0
   23.2975   20.4020   17.8854 C   0  0  0  0  0  0
   26.4719   24.0884   14.8970 C   0  0  0  0  0  0
   26.2444   24.6786   13.6515 C   0  0  0  0  0  0
   25.7672   23.9024   12.6026 C   0  0  0  0  0  0
   25.5139   22.5474   12.7745 C   0  0  0  0  0  0
   25.7412   21.9566   14.0198 C   0  0  0  0  0  0
   28.6418   20.3299   18.7179 C   0  0  0  0  0  0
   28.4450   21.6521   19.4216 C   0  0  0  0  0  0
   19.4711   21.0561   16.7138 S   0  0  0  0  0  0
   18.9392   22.3995   16.5066 O   0  0  0  0  0  0
   18.9565   20.2710   17.8316 O   0  0  0  0  0  0
   19.2778   20.1252   15.2170 C   0  0  0  0  0  0
   25.5483   24.4690   11.4084 F   0  0  0  0  0  0
   25.7259   20.5039   19.2330 H   0  0  0  0  0  0
   28.6004   22.3292   16.5382 H   0  0  0  0  0  0
   23.8614   23.0094   15.7608 H   0  0  0  0  0  0
   21.4213   22.8387   15.5143 H   0  0  0  0  0  0
   21.3711   19.5420   18.3111 H   0  0  0  0  0  0
   23.8128   19.7058   18.5463 H   0  0  0  0  0  0
   26.8385   24.7066   15.7152 H   0  0  0  0  0  0
   26.4359   25.7370   13.5003 H   0  0  0  0  0  0
   25.1421   21.9547   11.9436 H   0  0  0  0  0  0
   25.5434   20.8929   14.1434 H   0  0  0  0  0  0
   29.5352   20.2056   18.1166 H   0  0  0  0  0  0
   28.3351   19.4300   19.2383 H   0  0  0  0  0  0
   28.0066   21.6364   20.4127 H   0  0  0  0  0  0
   29.2076   22.4114   19.2914 H   0  0  0  0  0  0
   18.2088   20.0046   15.0288 H   0  0  0  0  0  0
   19.7453   19.1469   15.3428 H   0  0  0  0  0  0
   19.7401   20.6741   14.3945 H   0  0  0  0  0  0
  1  2  1  0  0  0
  1  5  2  0  0  0
  1  7  1  0  0  0
  2  3  2  0  0  0
  2  6  1  0  0  0
  3  4  1  0  0  0
  3 25  1  0  0  0
  4  5  1  0  0  0
  4 18  1  0  0  0
  4 19  1  0  0  0
  5 26  1  0  0  0
  6  8  2  0  0  0
  6 12  1  0  0  0
  7 13  2  0  0  0
  7 17  1  0  0  0
  8  9  1  0  0  0
  8 27  1  0  0  0
  9 10  2  0  0  0
  9 28  1  0  0  0
 10 11  1  0  0  0
 10 20  1  0  0  0
 11 12  2  0  0  0
 11 29  1  0  0  0
 12 30  1  0  0  0
 13 14  1  0  0  0
 13 31  1  0  0  0
 14 15  2  0  0  0
 14 32  1  0  0  0
 15 16  1  0  0  0
 15 24  1  0  0  0
 16 17  2  0  0  0
 16 33  1  0  0  0
 17 34  1  0  0  0
 18 19  1  0  0  0
 18 35  1  0  0  0
 18 36  1  0  0  0
 19 37  1  0  0  0
 19 38  1  0  0  0
 20 21  2  0  0  0
 20 22  2  0  0  0
 20 23  1  0  0  0
 23 39  1  0  0  0
 23 40  1  0  0  0
 23 41  1  0  0  0
M  END
>  <Name>
9-19

>  <Family>
G

>  <IC50_uM>
0.026000

>  <set>
1

$$$$
9-29
  Cerius2 12120216103D 1   1.00000                          
 Structure written by MMmdl.
 45 48  0  0  0  0  0  0  0  0999 V2000
   26.4529   22.0981   16.4026 C   0  0  0  0  0  0
   25.4786   21.4717   17.3142 C   0  0  0  0  0  0
   26.1661   21.0016   18.3794 C   0  0  0  0  0  0
   27.5972   21.2777   18.2545 C   0  0  0  0  0  0
   27.6743   21.9743   16.9699 C   0  0  0  0  0  0
   24.0232   21.3746   17.1768 C   0  0  0  0  0  0
   26.2172   22.7215   15.0978 C   0  0  0  0  0  0
   23.3339   22.2487   16.3235 C   0  0  0  0  0  0
   21.9465   22.1570   16.1787 C   0  0  0  0  0  0
   21.2406   21.1910   16.8989 C   0  0  0  0  0  0
   21.9112   20.3090   17.7491 C   0  0  0  0  0  0
   23.2992   20.4060   17.8882 C   0  0  0  0  0  0
   26.4662   24.0832   14.8977 C   0  0  0  0  0  0
   26.2255   24.6693   13.6502 C   0  0  0  0  0  0
   25.7350   23.9088   12.5757 C   0  0  0  0  0  0
   25.4894   22.5487   12.7787 C   0  0  0  0  0  0
   25.7291   21.9624   14.0282 C   0  0  0  0  0  0
   28.6427   20.3221   18.7177 C   0  0  0  0  0  0
   28.4498   21.6456   19.4205 C   0  0  0  0  0  0
   19.4787   21.0580   16.7000 S   0  0  0  0  0  0
   18.9477   22.4001   16.4813 O   0  0  0  0  0  0
   18.9584   20.2799   17.8199 O   0  0  0  0  0  0
   19.2940   20.1164   15.2090 C   0  0  0  0  0  0
   26.5493   26.3619   13.4756 Cl  0  0  0  0  0  0
   25.5292   24.5687   11.3910 O   0  0  0  0  0  0
   25.0483   23.8008   10.2897 C   0  0  0  0  0  0
   25.7286   20.4996   19.2337 H   0  0  0  0  0  0
   28.6040   22.3222   16.5367 H   0  0  0  0  0  0
   23.8724   23.0126   15.7641 H   0  0  0  0  0  0
   21.4332   22.8435   15.5089 H   0  0  0  0  0  0
   21.3705   19.5472   18.3068 H   0  0  0  0  0  0
   23.8126   19.7102   18.5507 H   0  0  0  0  0  0
   26.8391   24.6945   15.7167 H   0  0  0  0  0  0
   25.1090   21.9066   11.9887 H   0  0  0  0  0  0
   25.5301   20.8986   14.1549 H   0  0  0  0  0  0
   29.5354   20.1944   18.1162 H   0  0  0  0  0  0
   28.3333   19.4237   19.2394 H   0  0  0  0  0  0
   28.0111   21.6326   20.4117 H   0  0  0  0  0  0
   29.2140   22.4030   19.2895 H   0  0  0  0  0  0
   18.2259   19.9883   15.0203 H   0  0  0  0  0  0
   19.7671   19.1418   15.3428 H   0  0  0  0  0  0
   19.7546   20.6623   14.3834 H   0  0  0  0  0  0
   24.9446   24.4753    9.4342 H   0  0  0  0  0  0
   24.0603   23.3806   10.5039 H   0  0  0  0  0  0
   25.7629   23.0189   10.0126 H   0  0  0  0  0  0
  1  2  1  0  0  0
  1  5  2  0  0  0
  1  7  1  0  0  0
  2  3  2  0  0  0
  2  6  1  0  0  0
  3  4  1  0  0  0
  3 27  1  0  0  0
  4  5  1  0  0  0
  4 18  1  0  0  0
  4 19  1  0  0  0
  5 28  1  0  0  0
  6  8  2  0  0  0
  6 12  1  0  0  0
  7 13  2  0  0  0
  7 17  1  0  0  0
  8  9  1  0  0  0
  8 29  1  0  0  0
  9 10  2  0  0  0
  9 30  1  0  0  0
 10 11  1  0  0  0
 10 20  1  0  0  0
 11 12  2  0  0  0
 11 31  1  0  0  0
 12 32  1  0  0  0
 13 14  1  0  0  0
 13 33  1  0  0  0
 14 15  2  0  0  0
 14 24  1  0  0  0
 15 16  1  0  0  0
 15 25  1  0  0  0
 16 17  2  0  0  0
 16 34  1  0  0  0
 17 35  1  0  0  0
 18 19  1  0  0  0
 18 36  1  0  0  0
 18 37  1  0  0  0
 19 38  1  0  0  0
 19 39  1  0  0  0
 20 21  2  0  0  0
 20 22  2  0  0  0
 20 23  1  0  0  0
 23 40  1  0  0  0
 23 41  1  0  0  0
 23 42  1  0  0  0
 25 26  1  0  0  0
 26 43  1  0  0  0
 26 44  1  0  0  0
 26 45  1  0  0  0
M  END
>  <Name>
9-29

>  <Family>
G

>  <IC50_uM>
0.027000

>  <set>
2

$$$$
10-2
  Cerius2 12120216103D 1   1.00000                          
 Structure written by MMmdl.
 36 38  0  0  0  0  0  0  0  0999 V2000
   26.4184   22.0762   16.4046 C   0  0  0  0  0  0
   25.4430   21.4851   17.2682 C   0  0  0  0  0  0
   26.1690   21.0489   18.3562 C   0  0  0  0  0  0
   27.4812   21.3398   18.1619 O   0  0  0  0  0  0
   27.6433   21.9861   16.9552 N   0  0  0  0  0  0
   24.0013   21.3781   17.1588 C   0  0  0  0  0  0
   26.2330   22.7061   15.0975 C   0  0  0  0  0  0
   23.2949   22.2456   16.3141 C   0  0  0  0  0  0
   21.9056   22.1431   16.1981 C   0  0  0  0  0  0
   21.2188   21.1728   16.9337 C   0  0  0  0  0  0
   21.9132   20.2964   17.7712 C   0  0  0  0  0  0
   23.3029   20.4022   17.8837 C   0  0  0  0  0  0
   26.4970   24.0737   14.9294 C   0  0  0  0  0  0
   26.3171   24.6848   13.6859 C   0  0  0  0  0  0
   25.8766   23.9347   12.5973 C   0  0  0  0  0  0
   25.6193   22.5736   12.7492 C   0  0  0  0  0  0
   25.7986   21.9606   13.9922 C   0  0  0  0  0  0
   25.8342   20.3799   19.6303 C   0  0  0  0  0  0
   19.4608   21.0321   16.7587 S   0  0  0  0  0  0
   18.8975   22.3379   16.4644 O   0  0  0  0  0  0
   18.9390   20.2343   17.8541 O   0  0  0  0  0  0
   19.3188   20.1167   15.3633 N   0  0  0  0  0  0
   23.8162   23.0114   15.7413 H   0  0  0  0  0  0
   21.3696   22.8234   15.5397 H   0  0  0  0  0  0
   21.3880   19.5319   18.3393 H   0  0  0  0  0  0
   23.8323   19.7077   18.5346 H   0  0  0  0  0  0
   26.8381   24.6785   15.7689 H   0  0  0  0  0  0
   26.5212   25.7476   13.5683 H   0  0  0  0  0  0
   25.7363   24.4111   11.6286 H   0  0  0  0  0  0
   25.2806   21.9855   11.8979 H   0  0  0  0  0  0
   25.6034   20.8933   14.0796 H   0  0  0  0  0  0
   25.6947   19.3064   19.4711 H   0  0  0  0  0  0
   24.9134   20.7898   20.0566 H   0  0  0  0  0  0
   26.6317   20.5136   20.3681 H   0  0  0  0  0  0
   18.8352   20.6388   14.6281 H   0  0  0  0  0  0
   18.8563   19.2238   15.5528 H   0  0  0  0  0  0
  1  2  1  0  0  0
  1  5  2  0  0  0
  1  7  1  0  0  0
  2  3  2  0  0  0
  2  6  1  0  0  0
  3  4  1  0  0  0
  3 18  1  0  0  0
  4  5  1  0  0  0
  6  8  2  0  0  0
  6 12  1  0  0  0
  7 13  2  0  0  0
  7 17  1  0  0  0
  8  9  1  0  0  0
  8 23  1  0  0  0
  9 10  2  0  0  0
  9 24  1  0  0  0
 10 11  1  0  0  0
 10 19  1  0  0  0
 11 12  2  0  0  0
 11 25  1  0  0  0
 12 26  1  0  0  0
 13 14  1  0  0  0
 13 27  1  0  0  0
 14 15  2  0  0  0
 14 28  1  0  0  0
 15 16  1  0  0  0
 15 29  1  0  0  0
 16 17  2  0  0  0
 16 30  1  0  0  0
 17 31  1  0  0  0
 18 32  1  0  0  0
 18 33  1  0  0  0
 18 34  1  0  0  0
 19 20  2  0  0  0
 19 21  2  0  0  0
 19 22  1  0  0  0
 22 35  1  0  0  0
 22 36  1  0  0  0
M  END
>  <Name>
10-2

>  <Family>
H

>  <IC50_uM>
0.005000

>  <set>
1

$$$$
10-3
  Cerius2 12120216103D 1   1.00000                          
 Structure written by MMmdl.
 37 39  0  0  0  0  0  0  0  0999 V2000
   26.4176   22.0764   16.4058 C   0  0  0  0  0  0
   25.4459   21.4814   17.2712 C   0  0  0  0  0  0
   26.1756   21.0416   18.3565 C   0  0  0  0  0  0
   27.4868   21.3428   18.1595 O   0  0  0  0  0  0
   27.6436   21.9931   16.9544 N   0  0  0  0  0  0
   24.0036   21.3776   17.1626 C   0  0  0  0  0  0
   26.2276   22.7058   15.0989 C   0  0  0  0  0  0
   23.2998   22.2465   16.3171 C   0  0  0  0  0  0
   21.9106   22.1454   16.1980 C   0  0  0  0  0  0
   21.2211   21.1751   16.9309 C   0  0  0  0  0  0
   21.9124   20.2988   17.7711 C   0  0  0  0  0  0
   23.3022   20.4033   17.8865 C   0  0  0  0  0  0
   26.4903   24.0736   14.9291 C   0  0  0  0  0  0
   26.3105   24.6827   13.6846 C   0  0  0  0  0  0
   25.8712   23.9307   12.5970 C   0  0  0  0  0  0
   25.6133   22.5699   12.7510 C   0  0  0  0  0  0
   25.7923   21.9587   13.9950 C   0  0  0  0  0  0
   19.4636   21.0362   16.7487 S   0  0  0  0  0  0
   18.9022   22.3423   16.4520 O   0  0  0  0  0  0
   18.9380   20.2386   17.8425 O   0  0  0  0  0  0
   19.3256   20.1214   15.3523 N   0  0  0  0  0  0
   25.8528   20.3743   19.6353 C   0  0  0  0  0  0
   25.9936   18.9705   19.4195 O   0  0  0  0  0  0
   23.8227   23.0113   15.7445 H   0  0  0  0  0  0
   21.3763   22.8265   15.5386 H   0  0  0  0  0  0
   21.3853   19.5348   18.3383 H   0  0  0  0  0  0
   23.8301   19.7100   18.5404 H   0  0  0  0  0  0
   26.8313   24.6794   15.7677 H   0  0  0  0  0  0
   26.5136   25.7455   13.5655 H   0  0  0  0  0  0
   25.7323   24.4050   11.6270 H   0  0  0  0  0  0
   25.2744   21.9806   11.9006 H   0  0  0  0  0  0
   25.5973   20.8913   14.0841 H   0  0  0  0  0  0
   18.8478   20.6449   14.6143 H   0  0  0  0  0  0
   18.8580   19.2305   15.5396 H   0  0  0  0  0  0
   24.8283   20.5848   19.9553 H   0  0  0  0  0  0
   26.5427   20.6802   20.4278 H   0  0  0  0  0  0
   25.7794   18.5619   20.2844 H   0  0  0  0  0  0
  1  2  1  0  0  0
  1  5  2  0  0  0
  1  7  1  0  0  0
  2  3  2  0  0  0
  2  6  1  0  0  0
  3  4  1  0  0  0
  3 22  1  0  0  0
  4  5  1  0  0  0
  6  8  2  0  0  0
  6 12  1  0  0  0
  7 13  2  0  0  0
  7 17  1  0  0  0
  8  9  1  0  0  0
  8 24  1  0  0  0
  9 10  2  0  0  0
  9 25  1  0  0  0
 10 11  1  0  0  0
 10 18  1  0  0  0
 11 12  2  0  0  0
 11 26  1  0  0  0
 12 27  1  0  0  0
 13 14  1  0  0  0
 13 28  1  0  0  0
 14 15  2  0  0  0
 14 29  1  0  0  0
 15 16  1  0  0  0
 15 30  1  0  0  0
 16 17  2  0  0  0
 16 31  1  0  0  0
 17 32  1  0  0  0
 18 19  2  0  0  0
 18 20  2  0  0  0
 18 21  1  0  0  0
 21 33  1  0  0  0
 21 34  1  0  0  0
 22 23  1  0  0  0
 22 35  1  0  0  0
 22 36  1  0  0  0
 23 37  1  0  0  0
M  END
>  <Name>
10-3

>  <Family>
H

>  <IC50_uM>
0.180000

>  <set>
2

$$$$
6-Dup697
  Cerius2 12120216103D 1   1.00000                          
 Structure written by MMmdl.
 35 37  0  0  0  0  0  0  0  0999 V2000
   26.3696   22.0594   16.4367 C   0  0  0  0  0  0
   25.5252   21.4551   17.3620 C   0  0  0  0  0  0
   26.2636   20.9705   18.4846 C   0  0  0  0  0  0
   27.6136   21.1993   18.3935 C   0  0  0  0  0  0
   28.0126   22.0107   16.9456 S   0  0  0  0  0  0
   24.0850   21.3795   17.1473 C   0  0  0  0  0  0
   26.0625   22.6785   15.1425 C   0  0  0  0  0  0
   23.3092   20.4710   17.8796 C   0  0  0  0  0  0
   21.9293   20.3983   17.6725 C   0  0  0  0  0  0
   21.3288   21.2304   16.7230 C   0  0  0  0  0  0
   22.0926   22.1448   15.9926 C   0  0  0  0  0  0
   23.4721   22.2150   16.2040 C   0  0  0  0  0  0
   25.5363   21.9126   14.0903 C   0  0  0  0  0  0
   25.2612   22.5042   12.8553 C   0  0  0  0  0  0
   25.5134   23.8585   12.6728 C   0  0  0  0  0  0
   26.0354   24.6340   13.7011 C   0  0  0  0  0  0
   26.3107   24.0442   14.9368 C   0  0  0  0  0  0
   25.4617   20.1117   19.9693 Br  0  0  0  0  0  0
   25.2500   24.4249   11.4876 F   0  0  0  0  0  0
   19.5693   21.1463   16.4737 S   0  0  0  0  0  0
   19.1655   22.3176   15.7023 O   0  0  0  0  0  0
   18.9453   20.9226   17.7740 O   0  0  0  0  0  0
   19.3551   19.6993   15.4717 C   0  0  0  0  0  0
   28.3867   20.9358   19.1034 H   0  0  0  0  0  0
   23.7715   19.8152   18.6155 H   0  0  0  0  0  0
   21.3383   19.6907   18.2501 H   0  0  0  0  0  0
   21.6309   22.8014   15.2585 H   0  0  0  0  0  0
   24.0619   22.9288   15.6309 H   0  0  0  0  0  0
   25.3443   20.8490   14.2226 H   0  0  0  0  0  0
   24.8551   21.9129   12.0396 H   0  0  0  0  0  0
   26.2269   25.6910   13.5404 H   0  0  0  0  0  0
   26.7189   24.6581   15.7380 H   0  0  0  0  0  0
   18.2884   19.5824   15.2690 H   0  0  0  0  0  0
   19.7267   18.8296   16.0170 H   0  0  0  0  0  0
   19.8988   19.8321   14.5346 H   0  0  0  0  0  0
  1  2  2  0  0  0
  1  5  1  0  0  0
  1  7  1  0  0  0
  2  3  1  0  0  0
  2  6  1  0  0  0
  3  4  2  0  0  0
  3 18  1  0  0  0
  4  5  1  0  0  0
  4 24  1  0  0  0
  6  8  2  0  0  0
  6 12  1  0  0  0
  7 13  2  0  0  0
  7 17  1  0  0  0
  8  9  1  0  0  0
  8 25  1  0  0  0
  9 10  2  0  0  0
  9 26  1  0  0  0
 10 11  1  0  0  0
 10 20  1  0  0  0
 11 12  2  0  0  0
 11 27  1  0  0  0
 12 28  1  0  0  0
 13 14  1  0  0  0
 13 29  1  0  0  0
 14 15  2  0  0  0
 14 30  1  0  0  0
 15 16  1  0  0  0
 15 19  1  0  0  0
 16 17  2  0  0  0
 16 31  1  0  0  0
 17 32  1  0  0  0
 20 21  2  0  0  0
 20 22  2  0  0  0
 20 23  1  0  0  0
 23 33  1  0  0  0
 23 34  1  0  0  0
 23 35  1  0  0  0
M  END
>  <Name>
6-Dup697

>  <Family>
I

>  <IC50_uM>
0.010000

>  <set>
2

$$$$
11-7
  Cerius2 12120216103D 1   1.00000                          
 Structure written by MMmdl.
 37 39  0  0  0  0  0  0  0  0999 V2000
   26.3625   22.0939   16.4107 C   0  0  0  0  0  0
   25.4889   21.4965   17.3094 C   0  0  0  0  0  0
   26.0853   20.9404   18.4362 N   0  0  0  0  0  0
   27.3951   21.1402   18.4131 C   0  0  0  0  0  0
   27.9673   21.9845   17.0253 S   0  0  0  0  0  0
   24.0432   21.4034   17.1391 C   0  0  0  0  0  0
   26.1399   22.7125   15.1013 C   0  0  0  0  0  0
   23.3470   22.2773   16.2912 C   0  0  0  0  0  0
   21.9597   22.1733   16.1485 C   0  0  0  0  0  0
   21.2614   21.2022   16.8705 C   0  0  0  0  0  0
   21.9392   20.3278   17.7227 C   0  0  0  0  0  0
   23.3266   20.4363   17.8601 C   0  0  0  0  0  0
   26.3867   24.0800   14.8984 C   0  0  0  0  0  0
   26.1582   24.6634   13.6498 C   0  0  0  0  0  0
   25.6832   23.8816   12.6041 C   0  0  0  0  0  0
   25.4321   22.5268   12.7822 C   0  0  0  0  0  0
   25.6600   21.9418   14.0302 C   0  0  0  0  0  0
   25.4634   24.4421   11.4075 F   0  0  0  0  0  0
   19.4991   21.0602   16.6736 S   0  0  0  0  0  0
   18.9923   22.3472   16.2073 O   0  0  0  0  0  0
   18.9553   20.5065   17.9097 O   0  0  0  0  0  0
   19.3154   19.8669   15.3750 C   0  0  0  0  0  0
   28.3863   20.7045   19.4566 C   0  0  0  0  0  0
   29.0682   21.7527   20.0104 F   0  0  0  0  0  0
   29.3332   19.8493   18.9645 F   0  0  0  0  0  0
   27.7969   20.0477   20.5025 F   0  0  0  0  0  0
   23.8719   23.0543   15.7378 H   0  0  0  0  0  0
   21.4385   22.8568   15.4812 H   0  0  0  0  0  0
   21.4048   19.5660   18.2861 H   0  0  0  0  0  0
   23.8473   19.7547   18.5318 H   0  0  0  0  0  0
   26.7495   24.7057   15.7127 H   0  0  0  0  0  0
   26.3467   25.7218   13.4935 H   0  0  0  0  0  0
   25.0610   21.9302   11.9539 H   0  0  0  0  0  0
   25.4621   20.8786   14.1577 H   0  0  0  0  0  0
   18.2479   19.7263   15.1929 H   0  0  0  0  0  0
   19.7653   18.9241   15.6913 H   0  0  0  0  0  0
   19.7996   20.2456   14.4730 H   0  0  0  0  0  0
  1  2  2  0  0  0
  1  5  1  0  0  0
  1  7  1  0  0  0
  2  3  1  0  0  0
  2  6  1  0  0  0
  3  4  2  0  0  0
  4  5  1  0  0  0
  4 23  1  0  0  0
  6  8  2  0  0  0
  6 12  1  0  0  0
  7 13  2  0  0  0
  7 17  1  0  0  0
  8  9  1  0  0  0
  8 27  1  0  0  0
  9 10  2  0  0  0
  9 28  1  0  0  0
 10 11  1  0  0  0
 10 19  1  0  0  0
 11 12  2  0  0  0
 11 29  1  0  0  0
 12 30  1  0  0  0
 13 14  1  0  0  0
 13 31  1  0  0  0
 14 15  2  0  0  0
 14 32  1  0  0  0
 15 16  1  0  0  0
 15 18  1  0  0  0
 16 17  2  0  0  0
 16 33  1  0  0  0
 17 34  1  0  0  0
 19 20  2  0  0  0
 19 21  2  0  0  0
 19 22  1  0  0  0
 22 35  1  0  0  0
 22 36  1  0  0  0
 22 37  1  0  0  0
 23 24  1  0  0  0
 23 25  1  0  0  0
 23 26  1  0  0  0
M  END
>  <Name>
11-7

>  <Family>
J.1

>  <IC50_uM>
0.006000

>  <set>
1

$$$$
11-8
  Cerius2 12120216103D 1   1.00000                          
 Structure written by MMmdl.
 37 39  0  0  0  0  0  0  0  0999 V2000
   26.3618   22.0944   16.4100 C   0  0  0  0  0  0
   25.4887   21.4961   17.3098 C   0  0  0  0  0  0
   26.0864   20.9402   18.4363 N   0  0  0  0  0  0
   27.3861   21.1433   18.4032 C   0  0  0  0  0  0
   27.9665   21.9843   17.0268 S   0  0  0  0  0  0
   24.0431   21.4028   17.1398 C   0  0  0  0  0  0
   26.1396   22.7129   15.1007 C   0  0  0  0  0  0
   23.3471   22.2767   16.2913 C   0  0  0  0  0  0
   21.9596   22.1730   16.1486 C   0  0  0  0  0  0
   21.2612   21.2020   16.8707 C   0  0  0  0  0  0
   21.9390   20.3272   17.7226 C   0  0  0  0  0  0
   23.3263   20.4356   17.8603 C   0  0  0  0  0  0
   26.3859   24.0805   14.8980 C   0  0  0  0  0  0
   26.1590   24.6638   13.6490 C   0  0  0  0  0  0
   25.6855   23.8816   12.6027 C   0  0  0  0  0  0
   25.4344   22.5269   12.7808 C   0  0  0  0  0  0
   25.6608   21.9422   14.0291 C   0  0  0  0  0  0
   28.3389   20.6940   19.4555 C   0  0  0  0  0  0
   25.4674   24.4421   11.4056 F   0  0  0  0  0  0
   19.4988   21.0608   16.6740 S   0  0  0  0  0  0
   18.9664   22.3935   16.4077 O   0  0  0  0  0  0
   18.9801   20.3224   17.8213 O   0  0  0  0  0  0
   19.3157   20.0681   15.2164 C   0  0  0  0  0  0
   23.8724   23.0533   15.7378 H   0  0  0  0  0  0
   21.4386   22.8566   15.4814 H   0  0  0  0  0  0
   21.4045   19.5651   18.2857 H   0  0  0  0  0  0
   23.8475   19.7543   18.5322 H   0  0  0  0  0  0
   26.7478   24.7060   15.7127 H   0  0  0  0  0  0
   26.3478   25.7220   13.4930 H   0  0  0  0  0  0
   25.0645   21.9300   11.9520 H   0  0  0  0  0  0
   25.4630   20.8788   14.1564 H   0  0  0  0  0  0
   29.0769   19.9998   19.0415 H   0  0  0  0  0  0
   27.8040   20.1773   20.2589 H   0  0  0  0  0  0
   28.8644   21.5476   19.8953 H   0  0  0  0  0  0
   18.2480   19.9359   15.0286 H   0  0  0  0  0  0
   19.7859   19.0975   15.3847 H   0  0  0  0  0  0
   19.7799   20.5843   14.3740 H   0  0  0  0  0  0
  1  2  2  0  0  0
  1  5  1  0  0  0
  1  7  1  0  0  0
  2  3  1  0  0  0
  2  6  1  0  0  0
  3  4  2  0  0  0
  4  5  1  0  0  0
  4 18  1  0  0  0
  6  8  2  0  0  0
  6 12  1  0  0  0
  7 13  2  0  0  0
  7 17  1  0  0  0
  8  9  1  0  0  0
  8 24  1  0  0  0
  9 10  2  0  0  0
  9 25  1  0  0  0
 10 11  1  0  0  0
 10 20  1  0  0  0
 11 12  2  0  0  0
 11 26  1  0  0  0
 12 27  1  0  0  0
 13 14  1  0  0  0
 13 28  1  0  0  0
 14 15  2  0  0  0
 14 29  1  0  0  0
 15 16  1  0  0  0
 15 19  1  0  0  0
 16 17  2  0  0  0
 16 30  1  0  0  0
 17 31  1  0  0  0
 18 32  1  0  0  0
 18 33  1  0  0  0
 18 34  1  0  0  0
 20 21  2  0  0  0
 20 22  2  0  0  0
 20 23  1  0  0  0
 23 35  1  0  0  0
 23 36  1  0  0  0
 23 37  1  0  0  0
M  END
>  <Name>
11-8

>  <Family>
J.1

>  <IC50_uM>
0.120000

>  <set>
0

$$$$
11-9
  Cerius2 12120216103D 1   1.00000                          
 Structure written by MMmdl.
 44 47  0  0  0  0  0  0  0  0999 V2000
   26.3604   22.0954   16.4100 C   0  0  0  0  0  0
   25.4872   21.4971   17.3059 C   0  0  0  0  0  0
   26.0849   20.9403   18.4297 N   0  0  0  0  0  0
   27.3918   21.1307   18.4132 C   0  0  0  0  0  0
   27.9594   21.9852   17.0310 S   0  0  0  0  0  0
   24.0416   21.4028   17.1371 C   0  0  0  0  0  0
   26.1422   22.7141   15.1004 C   0  0  0  0  0  0
   23.3431   22.2762   16.2902 C   0  0  0  0  0  0
   21.9552   22.1721   16.1506 C   0  0  0  0  0  0
   21.2588   21.2010   16.8742 C   0  0  0  0  0  0
   21.9388   20.3266   17.7247 C   0  0  0  0  0  0
   23.3263   20.4355   17.8594 C   0  0  0  0  0  0
   26.3887   24.0817   14.8982 C   0  0  0  0  0  0
   26.1679   24.6641   13.6476 C   0  0  0  0  0  0
   25.7009   23.8809   12.5994 C   0  0  0  0  0  0
   25.4495   22.5261   12.7770 C   0  0  0  0  0  0
   25.6697   21.9425   14.0269 C   0  0  0  0  0  0
   28.3029   20.6693   19.4840 C   0  0  0  0  0  0
   25.4894   24.4401   11.4006 F   0  0  0  0  0  0
   19.4959   21.0573   16.6828 S   0  0  0  0  0  0
   18.9597   22.3923   16.4363 O   0  0  0  0  0  0
   18.9826   20.3026   17.8217 O   0  0  0  0  0  0
   19.3100   20.0829   15.2131 C   0  0  0  0  0  0
   27.7504   20.1329   20.6619 C   0  0  0  0  0  0
   28.5622   19.6811   21.7073 C   0  0  0  0  0  0
   29.9466   19.7546   21.5939 C   0  0  0  0  0  0
   30.5176   20.2774   20.4370 C   0  0  0  0  0  0
   29.7041   20.7298   19.3916 C   0  0  0  0  0  0
   23.8664   23.0537   15.7361 H   0  0  0  0  0  0
   21.4326   22.8561   15.4851 H   0  0  0  0  0  0
   21.4055   19.5650   18.2895 H   0  0  0  0  0  0
   23.8489   19.7547   18.5306 H   0  0  0  0  0  0
   26.7460   24.7083   15.7142 H   0  0  0  0  0  0
   26.3569   25.7223   13.4918 H   0  0  0  0  0  0
   25.0847   21.9283   11.9467 H   0  0  0  0  0  0
   25.4724   20.8790   14.1536 H   0  0  0  0  0  0
   18.2420   19.9513   15.0269 H   0  0  0  0  0  0
   19.7824   19.1111   15.3680 H   0  0  0  0  0  0
   19.7708   20.6103   14.3759 H   0  0  0  0  0  0
   26.6687   20.0635   20.7769 H   0  0  0  0  0  0
   28.1092   19.2721   22.6087 H   0  0  0  0  0  0
   30.5810   19.4036   22.4058 H   0  0  0  0  0  0
   31.6011   20.3340   20.3436 H   0  0  0  0  0  0
   30.1982   21.1243   18.5058 H   0  0  0  0  0  0
  1  2  2  0  0  0
  1  5  1  0  0  0
  1  7  1  0  0  0
  2  3  1  0  0  0
  2  6  1  0  0  0
  3  4  2  0  0  0
  4  5  1  0  0  0
  4 18  1  0  0  0
  6  8  2  0  0  0
  6 12  1  0  0  0
  7 13  2  0  0  0
  7 17  1  0  0  0
  8  9  1  0  0  0
  8 29  1  0  0  0
  9 10  2  0  0  0
  9 30  1  0  0  0
 10 11  1  0  0  0
 10 20  1  0  0  0
 11 12  2  0  0  0
 11 31  1  0  0  0
 12 32  1  0  0  0
 13 14  1  0  0  0
 13 33  1  0  0  0
 14 15  2  0  0  0
 14 34  1  0  0  0
 15 16  1  0  0  0
 15 19  1  0  0  0
 16 17  2  0  0  0
 16 35  1  0  0  0
 17 36  1  0  0  0
 18 24  2  0  0  0
 18 28  1  0  0  0
 20 21  2  0  0  0
 20 22  2  0  0  0
 20 23  1  0  0  0
 23 37  1  0  0  0
 23 38  1  0  0  0
 23 39  1  0  0  0
 24 25  1  0  0  0
 24 40  1  0  0  0
 25 26  2  0  0  0
 25 41  1  0  0  0
 26 27  1  0  0  0
 26 42  1  0  0  0
 27 28  2  0  0  0
 27 43  1  0  0  0
 28 44  1  0  0  0
M  END
>  <Name>
11-9

>  <Family>
J.1

>  <IC50_uM>
0.540000

>  <set>
0

$$$$
11-10
  Cerius2 12120216103D 1   1.00000                          
 Structure written by MMmdl.
 37 39  0  0  0  0  0  0  0  0999 V2000
   25.4835   21.5029   17.2330 C   0  0  0  0  0  0
   26.4393   22.0727   16.4028 C   0  0  0  0  0  0
   27.7409   22.0487   16.8917 N   0  0  0  0  0  0
   27.7824   21.4394   18.0677 C   0  0  0  0  0  0
   26.2560   20.8872   18.6434 S   0  0  0  0  0  0
   26.1665   22.6903   15.1102 C   0  0  0  0  0  0
   24.0265   21.4007   17.1138 C   0  0  0  0  0  0
   25.6658   21.9442   14.0322 C   0  0  0  0  0  0
   25.4186   22.5599   12.8023 C   0  0  0  0  0  0
   25.6804   23.9161   12.6483 C   0  0  0  0  0  0
   26.1896   24.6692   13.6990 C   0  0  0  0  0  0
   26.4372   24.0555   14.9293 C   0  0  0  0  0  0
   23.3108   20.4295   17.8313 C   0  0  0  0  0  0
   21.9217   20.3300   17.7056 C   0  0  0  0  0  0
   21.2405   21.2104   16.8623 C   0  0  0  0  0  0
   21.9377   22.1757   16.1323 C   0  0  0  0  0  0
   23.3265   22.2701   16.2629 C   0  0  0  0  0  0
   25.4440   24.5043   11.4681 F   0  0  0  0  0  0
   19.4757   21.0760   16.6826 S   0  0  0  0  0  0
   18.9435   22.4153   16.4509 O   0  0  0  0  0  0
   18.9671   20.3141   17.8189 O   0  0  0  0  0  0
   19.2758   20.1144   15.2064 C   0  0  0  0  0  0
   29.0045   21.2026   18.9114 C   0  0  0  0  0  0
   29.2419   19.8754   19.1406 F   0  0  0  0  0  0
   28.9223   21.7945   20.1415 F   0  0  0  0  0  0
   30.1457   21.6925   18.3365 F   0  0  0  0  0  0
   25.4714   20.8780   14.1324 H   0  0  0  0  0  0
   25.0281   21.9848   11.9676 H   0  0  0  0  0  0
   26.3938   25.7270   13.5601 H   0  0  0  0  0  0
   26.8384   24.6505   15.7485 H   0  0  0  0  0  0
   23.8293   19.7327   18.4887 H   0  0  0  0  0  0
   21.3880   19.5675   18.2690 H   0  0  0  0  0  0
   21.4161   22.8592   15.4658 H   0  0  0  0  0  0
   23.8570   23.0328   15.6940 H   0  0  0  0  0  0
   18.2062   19.9877   15.0266 H   0  0  0  0  0  0
   19.7463   19.1398   15.3498 H   0  0  0  0  0  0
   19.7325   20.6473   14.3703 H   0  0  0  0  0  0
  1  2  2  0  0  0
  1  5  1  0  0  0
  1  7  1  0  0  0
  2  3  1  0  0  0
  2  6  1  0  0  0
  3  4  2  0  0  0
  4  5  1  0  0  0
  4 23  1  0  0  0
  6  8  2  0  0  0
  6 12  1  0  0  0
  7 13  2  0  0  0
  7 17  1  0  0  0
  8  9  1  0  0  0
  8 27  1  0  0  0
  9 10  2  0  0  0
  9 28  1  0  0  0
 10 11  1  0  0  0
 10 18  1  0  0  0
 11 12  2  0  0  0
 11 29  1  0  0  0
 12 30  1  0  0  0
 13 14  1  0  0  0
 13 31  1  0  0  0
 14 15  2  0  0  0
 14 32  1  0  0  0
 15 16  1  0  0  0
 15 19  1  0  0  0
 16 17  2  0  0  0
 16 33  1  0  0  0
 17 34  1  0  0  0
 19 20  2  0  0  0
 19 21  2  0  0  0
 19 22  1  0  0  0
 22 35  1  0  0  0
 22 36  1  0  0  0
 22 37  1  0  0  0
 23 24  1  0  0  0
 23 25  1  0  0  0
 23 26  1  0  0  0
M  END
>  <Name>
11-10

>  <Family>
J.1

>  <IC50_uM>
0.023000

>  <set>
0

$$$$
11-11
  Cerius2 12120216103D 1   1.00000                          
 Structure written by MMmdl.
 37 39  0  0  0  0  0  0  0  0999 V2000
   25.4822   21.5028   17.2319 C   0  0  0  0  0  0
   26.4399   22.0729   16.4025 C   0  0  0  0  0  0
   27.7411   22.0487   16.8935 N   0  0  0  0  0  0
   27.7706   21.4427   18.0612 C   0  0  0  0  0  0
   26.2564   20.8879   18.6428 S   0  0  0  0  0  0
   26.1684   22.6905   15.1093 C   0  0  0  0  0  0
   24.0255   21.4000   17.1132 C   0  0  0  0  0  0
   25.6675   21.9449   14.0311 C   0  0  0  0  0  0
   25.4202   22.5607   12.8013 C   0  0  0  0  0  0
   25.6820   23.9168   12.6475 C   0  0  0  0  0  0
   26.1913   24.6699   13.6982 C   0  0  0  0  0  0
   26.4390   24.0558   14.9284 C   0  0  0  0  0  0
   23.3101   20.4288   17.8312 C   0  0  0  0  0  0
   21.9207   20.3294   17.7066 C   0  0  0  0  0  0
   21.2390   21.2099   16.8637 C   0  0  0  0  0  0
   21.9359   22.1753   16.1336 C   0  0  0  0  0  0
   23.3248   22.2696   16.2631 C   0  0  0  0  0  0
   25.4450   24.5053   11.4676 F   0  0  0  0  0  0
   19.4743   21.0753   16.6840 S   0  0  0  0  0  0
   18.9418   22.4148   16.4544 O   0  0  0  0  0  0
   18.9661   20.3115   17.8192 O   0  0  0  0  0  0
   19.2740   20.1164   15.2061 C   0  0  0  0  0  0
   29.0015   21.2275   18.8709 C   0  0  0  0  0  0
   25.4727   20.8786   14.1313 H   0  0  0  0  0  0
   25.0297   21.9857   11.9664 H   0  0  0  0  0  0
   26.3953   25.7277   13.5595 H   0  0  0  0  0  0
   26.8402   24.6503   15.7481 H   0  0  0  0  0  0
   23.8291   19.7321   18.4883 H   0  0  0  0  0  0
   21.3875   19.5670   18.2703 H   0  0  0  0  0  0
   21.4137   22.8590   15.4677 H   0  0  0  0  0  0
   23.8549   23.0325   15.6941 H   0  0  0  0  0  0
   18.2042   19.9908   15.0261 H   0  0  0  0  0  0
   19.7435   19.1412   15.3482 H   0  0  0  0  0  0
   19.7311   20.6502   14.3710 H   0  0  0  0  0  0
   28.9196   21.7240   19.8431 H   0  0  0  0  0  0
   29.8745   21.6393   18.3548 H   0  0  0  0  0  0
   29.1789   20.1597   19.0337 H   0  0  0  0  0  0
  1  2  2  0  0  0
  1  5  1  0  0  0
  1  7  1  0  0  0
  2  3  1  0  0  0
  2  6  1  0  0  0
  3  4  2  0  0  0
  4  5  1  0  0  0
  4 23  1  0  0  0
  6  8  2  0  0  0
  6 12  1  0  0  0
  7 13  2  0  0  0
  7 17  1  0  0  0
  8  9  1  0  0  0
  8 24  1  0  0  0
  9 10  2  0  0  0
  9 25  1  0  0  0
 10 11  1  0  0  0
 10 18  1  0  0  0
 11 12  2  0  0  0
 11 26  1  0  0  0
 12 27  1  0  0  0
 13 14  1  0  0  0
 13 28  1  0  0  0
 14 15  2  0  0  0
 14 29  1  0  0  0
 15 16  1  0  0  0
 15 19  1  0  0  0
 16 17  2  0  0  0
 16 30  1  0  0  0
 17 31  1  0  0  0
 19 20  2  0  0  0
 19 21  2  0  0  0
 19 22  1  0  0  0
 22 32  1  0  0  0
 22 33  1  0  0  0
 22 34  1  0  0  0
 23 35  1  0  0  0
 23 36  1  0  0  0
 23 37  1  0  0  0
M  END
>  <Name>
11-11

>  <Family>
J.1

>  <IC50_uM>
0.110000

>  <set>
0

$$$$
11-12
  Cerius2 12120216103D 1   1.00000                          
 Structure written by MMmdl.
 44 47  0  0  0  0  0  0  0  0999 V2000
   25.4816   21.5039   17.2312 C   0  0  0  0  0  0
   26.4379   22.0708   16.4017 C   0  0  0  0  0  0
   27.7372   22.0440   16.8934 N   0  0  0  0  0  0
   27.7856   21.4299   18.0614 C   0  0  0  0  0  0
   26.2557   20.8940   18.6400 S   0  0  0  0  0  0
   26.1693   22.6897   15.1087 C   0  0  0  0  0  0
   24.0247   21.4015   17.1138 C   0  0  0  0  0  0
   25.6712   21.9461   14.0276 C   0  0  0  0  0  0
   25.4271   22.5640   12.7981 C   0  0  0  0  0  0
   25.6895   23.9203   12.6472 C   0  0  0  0  0  0
   26.1967   24.6713   13.7004 C   0  0  0  0  0  0
   26.4411   24.0552   14.9301 C   0  0  0  0  0  0
   23.3102   20.4305   17.8329 C   0  0  0  0  0  0
   21.9209   20.3302   17.7088 C   0  0  0  0  0  0
   21.2384   21.2096   16.8656 C   0  0  0  0  0  0
   21.9342   22.1753   16.1350 C   0  0  0  0  0  0
   23.3232   22.2705   16.2638 C   0  0  0  0  0  0
   25.4553   24.5108   11.4677 F   0  0  0  0  0  0
   19.4739   21.0708   16.6862 S   0  0  0  0  0  0
   18.9657   22.3613   16.2317 O   0  0  0  0  0  0
   18.9402   20.5119   17.9245 O   0  0  0  0  0  0
   19.2761   19.8829   15.3845 C   0  0  0  0  0  0
   29.0285   21.2366   18.8383 C   0  0  0  0  0  0
   30.2396   21.7287   18.3187 C   0  0  0  0  0  0
   31.4449   21.5703   19.0100 C   0  0  0  0  0  0
   31.4625   20.9105   20.2348 C   0  0  0  0  0  0
   30.2776   20.4092   20.7664 C   0  0  0  0  0  0
   29.0716   20.5691   20.0743 C   0  0  0  0  0  0
   25.4762   20.8796   14.1248 H   0  0  0  0  0  0
   25.0383   21.9906   11.9613 H   0  0  0  0  0  0
   26.4015   25.7293   13.5637 H   0  0  0  0  0  0
   26.8411   24.6485   15.7514 H   0  0  0  0  0  0
   23.8296   19.7344   18.4905 H   0  0  0  0  0  0
   21.3882   19.5677   18.2732 H   0  0  0  0  0  0
   21.4114   22.8585   15.4690 H   0  0  0  0  0  0
   23.8524   23.0335   15.6941 H   0  0  0  0  0  0
   18.2067   19.7442   15.2120 H   0  0  0  0  0  0
   19.7281   18.9385   15.6929 H   0  0  0  0  0  0
   19.7520   20.2645   14.4792 H   0  0  0  0  0  0
   30.2530   22.2487   17.3607 H   0  0  0  0  0  0
   32.3686   21.9626   18.5882 H   0  0  0  0  0  0
   32.3995   20.7846   20.7743 H   0  0  0  0  0  0
   30.2885   19.8881   21.7227 H   0  0  0  0  0  0
   28.1729   20.1505   20.5233 H   0  0  0  0  0  0
  1  2  2  0  0  0
  1  5  1  0  0  0
  1  7  1  0  0  0
  2  3  1  0  0  0
  2  6  1  0  0  0
  3  4  2  0  0  0
  4  5  1  0  0  0
  4 23  1  0  0  0
  6  8  2  0  0  0
  6 12  1  0  0  0
  7 13  2  0  0  0
  7 17  1  0  0  0
  8  9  1  0  0  0
  8 29  1  0  0  0
  9 10  2  0  0  0
  9 30  1  0  0  0
 10 11  1  0  0  0
 10 18  1  0  0  0
 11 12  2  0  0  0
 11 31  1  0  0  0
 12 32  1  0  0  0
 13 14  1  0  0  0
 13 33  1  0  0  0
 14 15  2  0  0  0
 14 34  1  0  0  0
 15 16  1  0  0  0
 15 19  1  0  0  0
 16 17  2  0  0  0
 16 35  1  0  0  0
 17 36  1  0  0  0
 19 20  2  0  0  0
 19 21  2  0  0  0
 19 22  1  0  0  0
 22 37  1  0  0  0
 22 38  1  0  0  0
 22 39  1  0  0  0
 23 24  2  0  0  0
 23 28  1  0  0  0
 24 25  1  0  0  0
 24 40  1  0  0  0
 25 26  2  0  0  0
 25 41  1  0  0  0
 26 27  1  0  0  0
 26 42  1  0  0  0
 27 28  2  0  0  0
 27 43  1  0  0  0
 28 44  1  0  0  0
M  END
>  <Name>
11-12

>  <Family>
J.1

>  <IC50_uM>
>30

>  <set>
0

$$$$
11-13
  Cerius2 12120216103D 1   1.00000                          
 Structure written by MMmdl.
 40 42  0  0  0  0  0  0  0  0999 V2000
   25.4821   21.5044   17.2334 C   0  0  0  0  0  0
   26.4394   22.0721   16.4025 C   0  0  0  0  0  0
   27.7409   22.0449   16.8914 N   0  0  0  0  0  0
   27.7721   21.4415   18.0613 C   0  0  0  0  0  0
   26.2561   20.8867   18.6424 S   0  0  0  0  0  0
   26.1676   22.6901   15.1097 C   0  0  0  0  0  0
   24.0254   21.4039   17.1154 C   0  0  0  0  0  0
   25.6670   21.9450   14.0307 C   0  0  0  0  0  0
   25.4200   22.5614   12.8012 C   0  0  0  0  0  0
   25.6823   23.9175   12.6480 C   0  0  0  0  0  0
   26.1914   24.6701   13.6992 C   0  0  0  0  0  0
   26.4383   24.0555   14.9292 C   0  0  0  0  0  0
   23.3096   20.4337   17.8340 C   0  0  0  0  0  0
   21.9208   20.3336   17.7069 C   0  0  0  0  0  0
   21.2398   21.2129   16.8616 C   0  0  0  0  0  0
   21.9371   22.1780   16.1319 C   0  0  0  0  0  0
   23.3260   22.2723   16.2631 C   0  0  0  0  0  0
   25.4466   24.5063   11.4681 F   0  0  0  0  0  0
   19.4756   21.0690   16.6834 S   0  0  0  0  0  0
   18.9376   22.4101   16.4781 O   0  0  0  0  0  0
   18.9715   20.2831   17.8053 O   0  0  0  0  0  0
   19.2778   20.1313   15.1916 C   0  0  0  0  0  0
   29.0173   21.2288   18.8674 C   0  0  0  0  0  0
   29.2851   22.3953   19.8058 C   0  0  0  0  0  0
   25.4724   20.8788   14.1299 H   0  0  0  0  0  0
   25.0294   21.9868   11.9662 H   0  0  0  0  0  0
   26.3959   25.7278   13.5608 H   0  0  0  0  0  0
   26.8393   24.6495   15.7493 H   0  0  0  0  0  0
   23.8281   19.7380   18.4926 H   0  0  0  0  0  0
   21.3861   19.5711   18.2694 H   0  0  0  0  0  0
   21.4167   22.8612   15.4644 H   0  0  0  0  0  0
   23.8574   23.0338   15.6933 H   0  0  0  0  0  0
   18.2085   19.9965   15.0157 H   0  0  0  0  0  0
   19.7593   19.1595   15.3159 H   0  0  0  0  0  0
   19.7239   20.6830   14.3621 H   0  0  0  0  0  0
   29.8664   21.1156   18.1827 H   0  0  0  0  0  0
   28.9528   20.2981   19.4429 H   0  0  0  0  0  0
   30.2128   22.2289   20.3626 H   0  0  0  0  0  0
   28.4725   22.5182   20.5299 H   0  0  0  0  0  0
   29.3848   23.3345   19.2510 H   0  0  0  0  0  0
  1  2  2  0  0  0
  1  5  1  0  0  0
  1  7  1  0  0  0
  2  3  1  0  0  0
  2  6  1  0  0  0
  3  4  2  0  0  0
  4  5  1  0  0  0
  4 23  1  0  0  0
  6  8  2  0  0  0
  6 12  1  0  0  0
  7 13  2  0  0  0
  7 17  1  0  0  0
  8  9  1  0  0  0
  8 25  1  0  0  0
  9 10  2  0  0  0
  9 26  1  0  0  0
 10 11  1  0  0  0
 10 18  1  0  0  0
 11 12  2  0  0  0
 11 27  1  0  0  0
 12 28  1  0  0  0
 13 14  1  0  0  0
 13 29  1  0  0  0
 14 15  2  0  0  0
 14 30  1  0  0  0
 15 16  1  0  0  0
 15 19  1  0  0  0
 16 17  2  0  0  0
 16 31  1  0  0  0
 17 32  1  0  0  0
 19 20  2  0  0  0
 19 21  2  0  0  0
 19 22  1  0  0  0
 22 33  1  0  0  0
 22 34  1  0  0  0
 22 35  1  0  0  0
 23 24  1  0  0  0
 23 36  1  0  0  0
 23 37  1  0  0  0
 24 38  1  0  0  0
 24 39  1  0  0  0
 24 40  1  0  0  0
M  END
>  <Name>
11-13

>  <Family>
J.1

>  <IC50_uM>
0.023000

>  <set>
0

$$$$
11-14
  Cerius2 12120216103D 1   1.00000                          
 Structure written by MMmdl.
 46 48  0  0  0  0  0  0  0  0999 V2000
   25.4817   21.5033   17.2315 C   0  0  0  0  0  0
   26.4374   22.0722   16.4022 C   0  0  0  0  0  0
   27.7367   22.0488   16.8939 N   0  0  0  0  0  0
   27.7837   21.4444   18.0654 C   0  0  0  0  0  0
   26.2555   20.8899   18.6400 S   0  0  0  0  0  0
   26.1684   22.6900   15.1087 C   0  0  0  0  0  0
   24.0251   21.4002   17.1135 C   0  0  0  0  0  0
   25.6716   21.9453   14.0279 C   0  0  0  0  0  0
   25.4289   22.5623   12.7977 C   0  0  0  0  0  0
   25.6913   23.9186   12.6460 C   0  0  0  0  0  0
   26.1969   24.6706   13.6992 C   0  0  0  0  0  0
   26.4400   24.0554   14.9296 C   0  0  0  0  0  0
   23.3104   20.4288   17.8319 C   0  0  0  0  0  0
   21.9211   20.3290   17.7078 C   0  0  0  0  0  0
   21.2387   21.2092   16.8652 C   0  0  0  0  0  0
   21.9349   22.1748   16.1347 C   0  0  0  0  0  0
   23.3239   22.2696   16.2636 C   0  0  0  0  0  0
   25.4590   24.5080   11.4657 F   0  0  0  0  0  0
   19.4739   21.0736   16.6873 S   0  0  0  0  0  0
   18.9399   22.4137   16.4653 O   0  0  0  0  0  0
   18.9678   20.3035   17.8193 O   0  0  0  0  0  0
   19.2727   20.1213   15.2052 C   0  0  0  0  0  0
   29.0640   21.2380   18.8759 C   0  0  0  0  0  0
   30.2642   21.8431   18.1156 C   0  0  0  0  0  0
   29.3415   19.7375   19.0834 C   0  0  0  0  0  0
   28.9645   21.9420   20.2420 C   0  0  0  0  0  0
   25.4774   20.8788   14.1259 H   0  0  0  0  0  0
   25.0416   21.9880   11.9609 H   0  0  0  0  0  0
   26.4019   25.7285   13.5621 H   0  0  0  0  0  0
   26.8392   24.6487   15.7512 H   0  0  0  0  0  0
   23.8301   19.7325   18.4889 H   0  0  0  0  0  0
   21.3884   19.5661   18.2716 H   0  0  0  0  0  0
   21.4123   22.8583   15.4689 H   0  0  0  0  0  0
   23.8539   23.0324   15.6943 H   0  0  0  0  0  0
   18.2029   19.9949   15.0264 H   0  0  0  0  0  0
   19.7441   19.1463   15.3417 H   0  0  0  0  0  0
   19.7276   20.6600   14.3719 H   0  0  0  0  0  0
   31.1973   21.7094   18.6751 H   0  0  0  0  0  0
   30.1305   22.9186   17.9482 H   0  0  0  0  0  0
   30.3964   21.3701   17.1352 H   0  0  0  0  0  0
   30.2955   19.5803   19.5996 H   0  0  0  0  0  0
   29.3885   19.2065   18.1252 H   0  0  0  0  0  0
   28.5639   19.2572   19.6879 H   0  0  0  0  0  0
   29.9066   21.8620   20.7968 H   0  0  0  0  0  0
   28.1811   21.5053   20.8716 H   0  0  0  0  0  0
   28.7360   23.0077   20.1234 H   0  0  0  0  0  0
  1  2  2  0  0  0
  1  5  1  0  0  0
  1  7  1  0  0  0
  2  3  1  0  0  0
  2  6  1  0  0  0
  3  4  2  0  0  0
  4  5  1  0  0  0
  4 23  1  0  0  0
  6  8  2  0  0  0
  6 12  1  0  0  0
  7 13  2  0  0  0
  7 17  1  0  0  0
  8  9  1  0  0  0
  8 27  1  0  0  0
  9 10  2  0  0  0
  9 28  1  0  0  0
 10 11  1  0  0  0
 10 18  1  0  0  0
 11 12  2  0  0  0
 11 29  1  0  0  0
 12 30  1  0  0  0
 13 14  1  0  0  0
 13 31  1  0  0  0
 14 15  2  0  0  0
 14 32  1  0  0  0
 15 16  1  0  0  0
 15 19  1  0  0  0
 16 17  2  0  0  0
 16 33  1  0  0  0
 17 34  1  0  0  0
 19 20  2  0  0  0
 19 21  2  0  0  0
 19 22  1  0  0  0
 22 35  1  0  0  0
 22 36  1  0  0  0
 22 37  1  0  0  0
 23 24  1  0  0  0
 23 25  1  0  0  0
 23 26  1  0  0  0
 24 38  1  0  0  0
 24 39  1  0  0  0
 24 40  1  0  0  0
 25 41  1  0  0  0
 25 42  1  0  0  0
 25 43  1  0  0  0
 26 44  1  0  0  0
 26 45  1  0  0  0
 26 46  1  0  0  0
M  END
>  <Name>
11-14

>  <Family>
J.1

>  <IC50_uM>
0.110000

>  <set>
1

$$$$
11-15
  Cerius2 12120216103D 1   1.00000                          
 Structure written by MMmdl.
 43 45  0  0  0  0  0  0  0  0999 V2000
   25.4825   21.5038   17.2329 C   0  0  0  0  0  0
   26.4390   22.0731   16.4028 C   0  0  0  0  0  0
   27.7401   22.0471   16.8912 N   0  0  0  0  0  0
   27.7758   21.4368   18.0634 C   0  0  0  0  0  0
   26.2571   20.8875   18.6417 S   0  0  0  0  0  0
   26.1671   22.6906   15.1101 C   0  0  0  0  0  0
   24.0258   21.4017   17.1145 C   0  0  0  0  0  0
   25.6676   21.9444   14.0318 C   0  0  0  0  0  0
   25.4218   22.5598   12.8016 C   0  0  0  0  0  0
   25.6837   23.9160   12.6477 C   0  0  0  0  0  0
   26.1914   24.6694   13.6990 C   0  0  0  0  0  0
   26.4376   24.0558   14.9296 C   0  0  0  0  0  0
   23.3104   20.4306   17.8326 C   0  0  0  0  0  0
   21.9212   20.3305   17.7070 C   0  0  0  0  0  0
   21.2395   21.2101   16.8634 C   0  0  0  0  0  0
   21.9364   22.1756   16.1334 C   0  0  0  0  0  0
   23.3252   22.2707   16.2637 C   0  0  0  0  0  0
   25.4485   24.5040   11.4672 F   0  0  0  0  0  0
   19.4751   21.0741   16.6824 S   0  0  0  0  0  0
   18.9418   22.4131   16.4518 O   0  0  0  0  0  0
   18.9666   20.3105   17.8176 O   0  0  0  0  0  0
   19.2767   20.1140   15.2051 C   0  0  0  0  0  0
   29.0213   21.2519   18.8060 C   0  0  0  0  0  0
   29.1217   20.6938   19.8993 O   0  0  0  0  0  0
   30.0927   21.7819   18.1347 O   0  0  0  0  0  0
   32.4235   22.2729   17.9319 C   0  0  0  0  0  0
   31.3551   21.6397   18.8020 C   0  0  0  0  0  0
   25.4732   20.8781   14.1317 H   0  0  0  0  0  0
   25.0326   21.9845   11.9663 H   0  0  0  0  0  0
   26.3955   25.7272   13.5600 H   0  0  0  0  0  0
   26.8379   24.6511   15.7491 H   0  0  0  0  0  0
   23.8290   19.7341   18.4903 H   0  0  0  0  0  0
   21.3881   19.5677   18.2705 H   0  0  0  0  0  0
   21.4143   22.8586   15.4666 H   0  0  0  0  0  0
   23.8551   23.0334   15.6943 H   0  0  0  0  0  0
   18.2071   19.9873   15.0245 H   0  0  0  0  0  0
   19.7471   19.1394   15.3478 H   0  0  0  0  0  0
   19.7338   20.6477   14.3697 H   0  0  0  0  0  0
   33.4079   22.1903   18.4007 H   0  0  0  0  0  0
   32.2018   23.3311   17.7583 H   0  0  0  0  0  0
   32.4571   21.7894   16.9500 H   0  0  0  0  0  0
   31.5769   20.5768   18.9476 H   0  0  0  0  0  0
   31.3177   22.1471   19.7723 H   0  0  0  0  0  0
  1  2  2  0  0  0
  1  5  1  0  0  0
  1  7  1  0  0  0
  2  3  1  0  0  0
  2  6  1  0  0  0
  3  4  2  0  0  0
  4  5  1  0  0  0
  4 23  1  0  0  0
  6  8  2  0  0  0
  6 12  1  0  0  0
  7 13  2  0  0  0
  7 17  1  0  0  0
  8  9  1  0  0  0
  8 28  1  0  0  0
  9 10  2  0  0  0
  9 29  1  0  0  0
 10 11  1  0  0  0
 10 18  1  0  0  0
 11 12  2  0  0  0
 11 30  1  0  0  0
 12 31  1  0  0  0
 13 14  1  0  0  0
 13 32  1  0  0  0
 14 15  2  0  0  0
 14 33  1  0  0  0
 15 16  1  0  0  0
 15 19  1  0  0  0
 16 17  2  0  0  0
 16 34  1  0  0  0
 17 35  1  0  0  0
 19 20  2  0  0  0
 19 21  2  0  0  0
 19 22  1  0  0  0
 22 36  1  0  0  0
 22 37  1  0  0  0
 22 38  1  0  0  0
 23 24  2  0  0  0
 23 25  1  0  0  0
 25 27  1  0  0  0
 26 27  1  0  0  0
 26 39  1  0  0  0
 26 40  1  0  0  0
 26 41  1  0  0  0
 27 42  1  0  0  0
 27 43  1  0  0  0
M  END
>  <Name>
11-15

>  <Family>
J.1

>  <IC50_uM>
0.610000

>  <set>
2

$$$$
11-16
  Cerius2 12120216103D 1   1.00000                          
 Structure written by MMmdl.
 38 40  0  0  0  0  0  0  0  0999 V2000
   25.4826   21.5041   17.2333 C   0  0  0  0  0  0
   26.4392   22.0735   16.4030 C   0  0  0  0  0  0
   27.7413   22.0470   16.8917 N   0  0  0  0  0  0
   27.7771   21.4443   18.0644 C   0  0  0  0  0  0
   26.2568   20.8868   18.6425 S   0  0  0  0  0  0
   26.1672   22.6907   15.1099 C   0  0  0  0  0  0
   24.0257   21.4015   17.1144 C   0  0  0  0  0  0
   25.6669   21.9445   14.0318 C   0  0  0  0  0  0
   25.4202   22.5598   12.8017 C   0  0  0  0  0  0
   25.6821   23.9159   12.6475 C   0  0  0  0  0  0
   26.1906   24.6694   13.6983 C   0  0  0  0  0  0
   26.4375   24.0560   14.9289 C   0  0  0  0  0  0
   23.3104   20.4300   17.8318 C   0  0  0  0  0  0
   21.9212   20.3298   17.7063 C   0  0  0  0  0  0
   21.2398   21.2098   16.8628 C   0  0  0  0  0  0
   21.9366   22.1753   16.1329 C   0  0  0  0  0  0
   23.3254   22.2706   16.2635 C   0  0  0  0  0  0
   25.4464   24.5037   11.4671 F   0  0  0  0  0  0
   19.4752   21.0749   16.6826 S   0  0  0  0  0  0
   18.9427   22.4141   16.4500 O   0  0  0  0  0  0
   18.9664   20.3135   17.8191 O   0  0  0  0  0  0
   19.2757   20.1130   15.2066 C   0  0  0  0  0  0
   29.0208   21.2156   18.8688 C   0  0  0  0  0  0
   30.1875   21.7784   18.1736 C   0  0  0  0  0  0
   31.1215   22.2229   17.6365 N   0  0  0  0  0  0
   25.4726   20.8783   14.1321 H   0  0  0  0  0  0
   25.0301   21.9844   11.9669 H   0  0  0  0  0  0
   26.3945   25.7273   13.5591 H   0  0  0  0  0  0
   26.8381   24.6511   15.7485 H   0  0  0  0  0  0
   23.8293   19.7333   18.4891 H   0  0  0  0  0  0
   21.3881   19.5671   18.2697 H   0  0  0  0  0  0
   21.4144   22.8584   15.4661 H   0  0  0  0  0  0
   23.8555   23.0334   15.6945 H   0  0  0  0  0  0
   18.2061   19.9876   15.0259 H   0  0  0  0  0  0
   19.7447   19.1380   15.3508 H   0  0  0  0  0  0
   19.7339   20.6449   14.3707 H   0  0  0  0  0  0
   29.1608   20.1378   19.0112 H   0  0  0  0  0  0
   28.9249   21.6554   19.8680 H   0  0  0  0  0  0
  1  2  2  0  0  0
  1  5  1  0  0  0
  1  7  1  0  0  0
  2  3  1  0  0  0
  2  6  1  0  0  0
  3  4  2  0  0  0
  4  5  1  0  0  0
  4 23  1  0  0  0
  6  8  2  0  0  0
  6 12  1  0  0  0
  7 13  2  0  0  0
  7 17  1  0  0  0
  8  9  1  0  0  0
  8 26  1  0  0  0
  9 10  2  0  0  0
  9 27  1  0  0  0
 10 11  1  0  0  0
 10 18  1  0  0  0
 11 12  2  0  0  0
 11 28  1  0  0  0
 12 29  1  0  0  0
 13 14  1  0  0  0
 13 30  1  0  0  0
 14 15  2  0  0  0
 14 31  1  0  0  0
 15 16  1  0  0  0
 15 19  1  0  0  0
 16 17  2  0  0  0
 16 32  1  0  0  0
 17 33  1  0  0  0
 19 20  2  0  0  0
 19 21  2  0  0  0
 19 22  1  0  0  0
 22 34  1  0  0  0
 22 35  1  0  0  0
 22 36  1  0  0  0
 23 24  1  0  0  0
 23 37  1  0  0  0
 23 38  1  0  0  0
 24 25  3  0  0  0
M  END
>  <Name>
11-16

>  <Family>
J.1

>  <IC50_uM>
0.350000

>  <set>
1

$$$$
11-17
  Cerius2 12120216103D 1   1.00000                          
 Structure written by MMmdl.
 47 50  0  0  0  0  0  0  0  0999 V2000
   25.4856   21.5031   17.2371 C   0  0  0  0  0  0
   26.4398   22.0724   16.4047 C   0  0  0  0  0  0
   27.7420   22.0487   16.8907 N   0  0  0  0  0  0
   27.7773   21.4548   18.0672 C   0  0  0  0  0  0
   26.2612   20.8885   18.6459 S   0  0  0  0  0  0
   26.1614   22.6889   15.1126 C   0  0  0  0  0  0
   24.0295   21.4010   17.1165 C   0  0  0  0  0  0
   25.6550   21.9425   14.0371 C   0  0  0  0  0  0
   25.4018   22.5578   12.8083 C   0  0  0  0  0  0
   25.6648   23.9130   12.6522 C   0  0  0  0  0  0
   26.1784   24.6670   13.7004 C   0  0  0  0  0  0
   26.4304   24.0542   14.9302 C   0  0  0  0  0  0
   23.3133   20.4293   17.8327 C   0  0  0  0  0  0
   21.9252   20.3245   17.6992 C   0  0  0  0  0  0
   21.2484   21.1930   16.8404 C   0  0  0  0  0  0
   21.9447   22.1712   16.1261 C   0  0  0  0  0  0
   23.3323   22.2694   16.2628 C   0  0  0  0  0  0
   25.4244   24.5005   11.4723 F   0  0  0  0  0  0
   19.4804   21.0897   16.6765 S   0  0  0  0  0  0
   18.9754   22.4460   16.4890 O   0  0  0  0  0  0
   18.9655   20.3040   17.7937 O   0  0  0  0  0  0
   19.2471   20.1688   15.1786 C   0  0  0  0  0  0
   29.0264   21.2445   18.8774 C   0  0  0  0  0  0
   29.8284   20.0366   18.4381 C   0  0  0  0  0  0
   29.3997   18.7406   18.7631 C   0  0  0  0  0  0
   30.1361   17.6272   18.3543 C   0  0  0  0  0  0
   31.3058   17.7963   17.6159 C   0  0  0  0  0  0
   31.7389   19.0786   17.2826 C   0  0  0  0  0  0
   31.0041   20.1940   17.6895 C   0  0  0  0  0  0
   25.4617   20.8761   14.1379 H   0  0  0  0  0  0
   25.0069   21.9824   11.9759 H   0  0  0  0  0  0
   26.3826   25.7244   13.5595 H   0  0  0  0  0  0
   26.8346   24.6494   15.7479 H   0  0  0  0  0  0
   23.8311   19.7376   18.4957 H   0  0  0  0  0  0
   21.3913   19.5633   18.2636 H   0  0  0  0  0  0
   21.4223   22.8574   15.4630 H   0  0  0  0  0  0
   23.8638   23.0347   15.6985 H   0  0  0  0  0  0
   18.1733   20.0615   15.0112 H   0  0  0  0  0  0
   19.7056   19.1847   15.2918 H   0  0  0  0  0  0
   19.6984   20.7161   14.3491 H   0  0  0  0  0  0
   28.7525   21.1163   19.9328 H   0  0  0  0  0  0
   29.6533   22.1451   18.8484 H   0  0  0  0  0  0
   28.4857   18.5924   19.3379 H   0  0  0  0  0  0
   29.7960   16.6258   18.6128 H   0  0  0  0  0  0
   31.8802   16.9275   17.2985 H   0  0  0  0  0  0
   32.6519   19.2104   16.7042 H   0  0  0  0  0  0
   31.3581   21.1881   17.4185 H   0  0  0  0  0  0
  1  2  2  0  0  0
  1  5  1  0  0  0
  1  7  1  0  0  0
  2  3  1  0  0  0
  2  6  1  0  0  0
  3  4  2  0  0  0
  4  5  1  0  0  0
  4 23  1  0  0  0
  6  8  2  0  0  0
  6 12  1  0  0  0
  7 13  2  0  0  0
  7 17  1  0  0  0
  8  9  1  0  0  0
  8 30  1  0  0  0
  9 10  2  0  0  0
  9 31  1  0  0  0
 10 11  1  0  0  0
 10 18  1  0  0  0
 11 12  2  0  0  0
 11 32  1  0  0  0
 12 33  1  0  0  0
 13 14  1  0  0  0
 13 34  1  0  0  0
 14 15  2  0  0  0
 14 35  1  0  0  0
 15 16  1  0  0  0
 15 19  1  0  0  0
 16 17  2  0  0  0
 16 36  1  0  0  0
 17 37  1  0  0  0
 19 20  2  0  0  0
 19 21  2  0  0  0
 19 22  1  0  0  0
 22 38  1  0  0  0
 22 39  1  0  0  0
 22 40  1  0  0  0
 23 24  1  0  0  0
 23 41  1  0  0  0
 23 42  1  0  0  0
 24 25  2  0  0  0
 24 29  1  0  0  0
 25 26  1  0  0  0
 25 43  1  0  0  0
 26 27  2  0  0  0
 26 44  1  0  0  0
 27 28  1  0  0  0
 27 45  1  0  0  0
 28 29  2  0  0  0
 28 46  1  0  0  0
 29 47  1  0  0  0
M  END
>  <Name>
11-17

>  <Family>
J.1

>  <IC50_uM>
0.018000

>  <set>
1

$$$$
11-18
  Cerius2 12120216103D 1   1.00000                          
 Structure written by MMmdl.
 50 53  0  0  0  0  0  0  0  0999 V2000
   25.4831   21.5033   17.2337 C   0  0  0  0  0  0
   26.4394   22.0701   16.4014 C   0  0  0  0  0  0
   27.7406   22.0449   16.8907 N   0  0  0  0  0  0
   27.7743   21.4518   18.0656 C   0  0  0  0  0  0
   26.2574   20.8931   18.6454 S   0  0  0  0  0  0
   26.1669   22.6883   15.1089 C   0  0  0  0  0  0
   24.0266   21.4014   17.1160 C   0  0  0  0  0  0
   25.6620   21.9453   14.0306 C   0  0  0  0  0  0
   25.4106   22.5645   12.8031 C   0  0  0  0  0  0
   25.6733   23.9206   12.6516 C   0  0  0  0  0  0
   26.1880   24.6706   13.7019 C   0  0  0  0  0  0
   26.4383   24.0537   14.9299 C   0  0  0  0  0  0
   23.3118   20.4296   17.8335 C   0  0  0  0  0  0
   21.9229   20.3286   17.7076 C   0  0  0  0  0  0
   21.2420   21.2074   16.8628 C   0  0  0  0  0  0
   21.9386   22.1741   16.1336 C   0  0  0  0  0  0
   23.3267   22.2707   16.2654 C   0  0  0  0  0  0
   25.4316   24.5122   11.4742 F   0  0  0  0  0  0
   19.4779   21.0779   16.6769 S   0  0  0  0  0  0
   18.9499   22.4134   16.4144 O   0  0  0  0  0  0
   18.9637   20.3414   17.8272 O   0  0  0  0  0  0
   19.2810   20.0894   15.2181 C   0  0  0  0  0  0
   29.0092   21.2287   18.8897 C   0  0  0  0  0  0
   30.1464   22.1729   18.4932 C   0  0  0  0  0  0
   31.3694   21.9736   19.3573 C   0  0  0  0  0  0
   31.5565   22.7446   20.5124 C   0  0  0  0  0  0
   32.6788   22.5477   21.3186 C   0  0  0  0  0  0
   33.6204   21.5771   20.9803 C   0  0  0  0  0  0
   33.4403   20.8014   19.8364 C   0  0  0  0  0  0
   32.3189   20.9965   19.0289 C   0  0  0  0  0  0
   25.4660   20.8792   14.1292 H   0  0  0  0  0  0
   25.0158   21.9920   11.9687 H   0  0  0  0  0  0
   26.3930   25.7285   13.5645 H   0  0  0  0  0  0
   26.8416   24.6461   15.7500 H   0  0  0  0  0  0
   23.8311   19.7337   18.4913 H   0  0  0  0  0  0
   21.3904   19.5657   18.2715 H   0  0  0  0  0  0
   21.4160   22.8559   15.4660 H   0  0  0  0  0  0
   23.8568   23.0341   15.6970 H   0  0  0  0  0  0
   18.2116   19.9659   15.0346 H   0  0  0  0  0  0
   19.7443   19.1149   15.3832 H   0  0  0  0  0  0
   19.7461   20.6033   14.3746 H   0  0  0  0  0  0
   29.3287   20.1860   18.7672 H   0  0  0  0  0  0
   28.7747   21.3681   19.9532 H   0  0  0  0  0  0
   29.8172   23.2180   18.5646 H   0  0  0  0  0  0
   30.4234   22.0215   17.4414 H   0  0  0  0  0  0
   30.8279   23.5047   20.7927 H   0  0  0  0  0  0
   32.8178   23.1518   22.2135 H   0  0  0  0  0  0
   34.4949   21.4238   21.6101 H   0  0  0  0  0  0
   34.1740   20.0412   19.5734 H   0  0  0  0  0  0
   32.1903   20.3799   18.1398 H   0  0  0  0  0  0
  1  2  2  0  0  0
  1  5  1  0  0  0
  1  7  1  0  0  0
  2  3  1  0  0  0
  2  6  1  0  0  0
  3  4  2  0  0  0
  4  5  1  0  0  0
  4 23  1  0  0  0
  6  8  2  0  0  0
  6 12  1  0  0  0
  7 13  2  0  0  0
  7 17  1  0  0  0
  8  9  1  0  0  0
  8 31  1  0  0  0
  9 10  2  0  0  0
  9 32  1  0  0  0
 10 11  1  0  0  0
 10 18  1  0  0  0
 11 12  2  0  0  0
 11 33  1  0  0  0
 12 34  1  0  0  0
 13 14  1  0  0  0
 13 35  1  0  0  0
 14 15  2  0  0  0
 14 36  1  0  0  0
 15 16  1  0  0  0
 15 19  1  0  0  0
 16 17  2  0  0  0
 16 37  1  0  0  0
 17 38  1  0  0  0
 19 20  2  0  0  0
 19 21  2  0  0  0
 19 22  1  0  0  0
 22 39  1  0  0  0
 22 40  1  0  0  0
 22 41  1  0  0  0
 23 24  1  0  0  0
 23 42  1  0  0  0
 23 43  1  0  0  0
 24 25  1  0  0  0
 24 44  1  0  0  0
 24 45  1  0  0  0
 25 26  2  0  0  0
 25 30  1  0  0  0
 26 27  1  0  0  0
 26 46  1  0  0  0
 27 28  2  0  0  0
 27 47  1  0  0  0
 28 29  1  0  0  0
 28 48  1  0  0  0
 29 30  2  0  0  0
 29 49  1  0  0  0
 30 50  1  0  0  0
M  END
>  <Name>
11-18

>  <Family>
J.1

>  <IC50_uM>
0.032000

>  <set>
1

$$$$
11-19
  Cerius2 12120216103D 1   1.00000                          
 Structure written by MMmdl.
 53 56  0  0  0  0  0  0  0  0999 V2000
   25.4881   21.4876   17.2411 C   0  0  0  0  0  0
   26.4326   22.0563   16.3948 C   0  0  0  0  0  0
   27.7340   22.0531   16.8801 N   0  0  0  0  0  0
   27.7757   21.5001   18.0733 C   0  0  0  0  0  0
   26.2785   20.8987   18.6547 S   0  0  0  0  0  0
   26.1533   22.6795   15.1035 C   0  0  0  0  0  0
   24.0299   21.3977   17.1427 C   0  0  0  0  0  0
   25.6444   21.9491   14.0188 C   0  0  0  0  0  0
   25.3981   22.5810   12.7959 C   0  0  0  0  0  0
   25.6714   23.9366   12.6535 C   0  0  0  0  0  0
   26.1819   24.6768   13.7105 C   0  0  0  0  0  0
   26.4268   24.0481   14.9334 C   0  0  0  0  0  0
   23.3049   20.4379   17.8651 C   0  0  0  0  0  0
   21.9159   20.3409   17.7252 C   0  0  0  0  0  0
   21.2474   21.2162   16.8657 C   0  0  0  0  0  0
   21.9549   22.1793   16.1429 C   0  0  0  0  0  0
   23.3406   22.2711   16.2877 C   0  0  0  0  0  0
   25.4449   24.5360   11.4760 F   0  0  0  0  0  0
   19.4898   21.0785   16.6324 S   0  0  0  0  0  0
   18.9663   22.4065   16.3286 O   0  0  0  0  0  0
   18.9459   20.3648   17.7851 O   0  0  0  0  0  0
   19.3328   20.0564   15.1913 C   0  0  0  0  0  0
   30.7728   22.8132   20.0835 C   0  0  0  0  0  0
   29.3529   22.7716   19.5165 C   0  0  0  0  0  0
   29.0209   21.4095   18.9028 C   0  0  0  0  0  0
   31.0886   24.1871   20.6250 C   0  0  0  0  0  0
   31.5388   25.2013   19.7675 C   0  0  0  0  0  0
   31.7732   26.4882   20.2538 C   0  0  0  0  0  0
   31.5586   26.7750   21.6009 C   0  0  0  0  0  0
   31.1147   25.7732   22.4621 C   0  0  0  0  0  0
   30.8771   24.4848   21.9781 C   0  0  0  0  0  0
   25.4400   20.8839   14.1069 H   0  0  0  0  0  0
   24.9980   22.0171   11.9581 H   0  0  0  0  0  0
   26.3899   25.7356   13.5844 H   0  0  0  0  0  0
   26.8266   24.6342   15.7595 H   0  0  0  0  0  0
   23.8163   19.7420   18.5294 H   0  0  0  0  0  0
   21.3733   19.5807   18.2827 H   0  0  0  0  0  0
   21.4440   22.8564   15.4628 H   0  0  0  0  0  0
   23.8803   23.0283   15.7189 H   0  0  0  0  0  0
   18.2688   19.9312   14.9814 H   0  0  0  0  0  0
   19.7865   19.0843   15.3936 H   0  0  0  0  0  0
   19.8255   20.5495   14.3520 H   0  0  0  0  0  0
   31.5051   22.5530   19.3086 H   0  0  0  0  0  0
   30.8868   22.0646   20.8773 H   0  0  0  0  0  0
   29.2375   23.5564   18.7568 H   0  0  0  0  0  0
   28.6285   23.0005   20.3104 H   0  0  0  0  0  0
   29.8417   21.0814   18.2523 H   0  0  0  0  0  0
   28.9212   20.6544   19.6921 H   0  0  0  0  0  0
   31.6958   24.9965   18.7082 H   0  0  0  0  0  0
   32.1142   27.2693   19.5770 H   0  0  0  0  0  0
   31.7296   27.7818   21.9760 H   0  0  0  0  0  0
   30.9427   25.9979   23.5133 H   0  0  0  0  0  0
   30.5144   23.7186   22.6627 H   0  0  0  0  0  0
  1  2  2  0  0  0
  1  5  1  0  0  0
  1  7  1  0  0  0
  2  3  1  0  0  0
  2  6  1  0  0  0
  3  4  2  0  0  0
  4  5  1  0  0  0
  4 25  1  0  0  0
  6  8  2  0  0  0
  6 12  1  0  0  0
  7 13  2  0  0  0
  7 17  1  0  0  0
  8  9  1  0  0  0
  8 32  1  0  0  0
  9 10  2  0  0  0
  9 33  1  0  0  0
 10 11  1  0  0  0
 10 18  1  0  0  0
 11 12  2  0  0  0
 11 34  1  0  0  0
 12 35  1  0  0  0
 13 14  1  0  0  0
 13 36  1  0  0  0
 14 15  2  0  0  0
 14 37  1  0  0  0
 15 16  1  0  0  0
 15 19  1  0  0  0
 16 17  2  0  0  0
 16 38  1  0  0  0
 17 39  1  0  0  0
 19 20  2  0  0  0
 19 21  2  0  0  0
 19 22  1  0  0  0
 22 40  1  0  0  0
 22 41  1  0  0  0
 22 42  1  0  0  0
 23 24  1  0  0  0
 23 26  1  0  0  0
 23 43  1  0  0  0
 23 44  1  0  0  0
 24 25  1  0  0  0
 24 45  1  0  0  0
 24 46  1  0  0  0
 25 47  1  0  0  0
 25 48  1  0  0  0
 26 27  2  0  0  0
 26 31  1  0  0  0
 27 28  1  0  0  0
 27 49  1  0  0  0
 28 29  2  0  0  0
 28 50  1  0  0  0
 29 30  1  0  0  0
 29 51  1  0  0  0
 30 31  2  0  0  0
 30 52  1  0  0  0
 31 53  1  0  0  0
M  END
>  <Name>
11-19

>  <Family>
J.1

>  <IC50_uM>
0.520000

>  <set>
2

$$$$
11-20
  Cerius2 12120216103D 1   1.00000                          
 Structure written by MMmdl.
 53 56  0  0  0  0  0  0  0  0999 V2000
   25.4877   21.4890   17.2425 C   0  0  0  0  0  0
   26.4310   22.0545   16.3933 C   0  0  0  0  0  0
   27.7354   22.0525   16.8735 N   0  0  0  0  0  0
   27.7800   21.5055   18.0695 C   0  0  0  0  0  0
   26.2842   20.9054   18.6566 S   0  0  0  0  0  0
   26.1505   22.6780   15.1046 C   0  0  0  0  0  0
   24.0285   21.3992   17.1440 C   0  0  0  0  0  0
   25.6468   21.9485   14.0167 C   0  0  0  0  0  0
   25.4074   22.5825   12.7937 C   0  0  0  0  0  0
   25.6777   23.9393   12.6564 C   0  0  0  0  0  0
   26.1881   24.6765   13.7175 C   0  0  0  0  0  0
   26.4267   24.0460   14.9391 C   0  0  0  0  0  0
   23.3057   20.4377   17.8644 C   0  0  0  0  0  0
   21.9159   20.3392   17.7217 C   0  0  0  0  0  0
   21.2446   21.2138   16.8630 C   0  0  0  0  0  0
   21.9508   22.1759   16.1398 C   0  0  0  0  0  0
   23.3364   22.2680   16.2851 C   0  0  0  0  0  0
   25.4501   24.5428   11.4821 F   0  0  0  0  0  0
   19.4844   21.0788   16.6364 S   0  0  0  0  0  0
   18.9623   22.4072   16.3379 O   0  0  0  0  0  0
   18.9448   20.3616   17.7889 O   0  0  0  0  0  0
   19.3181   20.0608   15.1934 C   0  0  0  0  0  0
   30.7376   22.7990   20.1699 C   0  0  0  0  0  0
   29.3675   22.8001   19.4884 C   0  0  0  0  0  0
   29.0291   21.4282   18.8981 C   0  0  0  0  0  0
   31.0868   24.1781   20.6781 C   0  0  0  0  0  0
   31.5827   25.1516   19.7969 C   0  0  0  0  0  0
   31.8420   26.4489   20.2441 C   0  0  0  0  0  0
   31.6075   26.7768   21.5774 C   0  0  0  0  0  0
   31.1295   25.8182   22.4681 C   0  0  0  0  0  0
   30.8674   24.5217   22.0188 C   0  0  0  0  0  0
   31.9177   28.5436   22.1769 Br  0  0  0  0  0  0
   25.4465   20.8831   14.1018 H   0  0  0  0  0  0
   25.0156   22.0225   11.9489 H   0  0  0  0  0  0
   26.3997   25.7345   13.5931 H   0  0  0  0  0  0
   26.8298   24.6288   15.7663 H   0  0  0  0  0  0
   23.8173   19.7433   18.5294 H   0  0  0  0  0  0
   21.3748   19.5793   18.2818 H   0  0  0  0  0  0
   21.4358   22.8550   15.4637 H   0  0  0  0  0  0
   23.8752   23.0229   15.7146 H   0  0  0  0  0  0
   18.2541   19.9422   14.9816 H   0  0  0  0  0  0
   19.7643   19.0853   15.3924 H   0  0  0  0  0  0
   19.8125   20.5516   14.3550 H   0  0  0  0  0  0
   31.5130   22.4694   19.4676 H   0  0  0  0  0  0
   30.7483   22.0798   20.9975 H   0  0  0  0  0  0
   29.3518   23.5595   18.6939 H   0  0  0  0  0  0
   28.5900   23.0928   20.2072 H   0  0  0  0  0  0
   29.8494   21.0930   18.2513 H   0  0  0  0  0  0
   28.9348   20.6870   19.7003 H   0  0  0  0  0  0
   31.7507   24.9053   18.7480 H   0  0  0  0  0  0
   32.2109   27.1928   19.5424 H   0  0  0  0  0  0
   30.9434   26.0692   23.5095 H   0  0  0  0  0  0
   30.4759   23.7853   22.7185 H   0  0  0  0  0  0
  1  2  2  0  0  0
  1  5  1  0  0  0
  1  7  1  0  0  0
  2  3  1  0  0  0
  2  6  1  0  0  0
  3  4  2  0  0  0
  4  5  1  0  0  0
  4 25  1  0  0  0
  6  8  2  0  0  0
  6 12  1  0  0  0
  7 13  2  0  0  0
  7 17  1  0  0  0
  8  9  1  0  0  0
  8 33  1  0  0  0
  9 10  2  0  0  0
  9 34  1  0  0  0
 10 11  1  0  0  0
 10 18  1  0  0  0
 11 12  2  0  0  0
 11 35  1  0  0  0
 12 36  1  0  0  0
 13 14  1  0  0  0
 13 37  1  0  0  0
 14 15  2  0  0  0
 14 38  1  0  0  0
 15 16  1  0  0  0
 15 19  1  0  0  0
 16 17  2  0  0  0
 16 39  1  0  0  0
 17 40  1  0  0  0
 19 20  2  0  0  0
 19 21  2  0  0  0
 19 22  1  0  0  0
 22 41  1  0  0  0
 22 42  1  0  0  0
 22 43  1  0  0  0
 23 24  1  0  0  0
 23 26  1  0  0  0
 23 44  1  0  0  0
 23 45  1  0  0  0
 24 25  1  0  0  0
 24 46  1  0  0  0
 24 47  1  0  0  0
 25 48  1  0  0  0
 25 49  1  0  0  0
 26 27  2  0  0  0
 26 31  1  0  0  0
 27 28  1  0  0  0
 27 50  1  0  0  0
 28 29  2  0  0  0
 28 51  1  0  0  0
 29 30  1  0  0  0
 29 32  1  0  0  0
 30 31  2  0  0  0
 30 52  1  0  0  0
 31 53  1  0  0  0
M  END
>  <Name>
11-20

>  <Family>
J.1

>  <IC50_uM>
0.007000

>  <set>
0

$$$$
11-21
  Cerius2 12120216103D 1   1.00000                          
 Structure written by MMmdl.
 44 47  0  0  0  0  0  0  0  0999 V2000
   25.4817   21.5020   17.2310 C   0  0  0  0  0  0
   26.4397   22.0701   16.4009 C   0  0  0  0  0  0
   27.7404   22.0462   16.8910 N   0  0  0  0  0  0
   27.7742   21.4192   18.0485 C   0  0  0  0  0  0
   26.2530   20.8935   18.6458 S   0  0  0  0  0  0
   26.1685   22.6898   15.1090 C   0  0  0  0  0  0
   24.0253   21.4006   17.1125 C   0  0  0  0  0  0
   25.6687   21.9460   14.0289 C   0  0  0  0  0  0
   25.4234   22.5640   12.7998 C   0  0  0  0  0  0
   25.6861   23.9203   12.6485 C   0  0  0  0  0  0
   26.1943   24.6714   13.7012 C   0  0  0  0  0  0
   26.4401   24.0553   14.9307 C   0  0  0  0  0  0
   23.3104   20.4298   17.8312 C   0  0  0  0  0  0
   21.9212   20.3303   17.7065 C   0  0  0  0  0  0
   21.2393   21.2105   16.8633 C   0  0  0  0  0  0
   21.9358   22.1756   16.1327 C   0  0  0  0  0  0
   23.3249   22.2699   16.2619 C   0  0  0  0  0  0
   25.4514   24.5106   11.4691 F   0  0  0  0  0  0
   19.4745   21.0721   16.6872 S   0  0  0  0  0  0
   18.9390   22.4133   16.4752 O   0  0  0  0  0  0
   18.9699   20.2934   17.8138 O   0  0  0  0  0  0
   19.2732   20.1285   15.1995 C   0  0  0  0  0  0
   28.9792   21.2242   18.8550 C   0  0  0  0  0  0
   30.1962   21.7375   18.3725 C   0  0  0  0  0  0
   31.3777   21.5823   19.1009 C   0  0  0  0  0  0
   31.3606   20.9054   20.3173 C   0  0  0  0  0  0
   30.1641   20.3781   20.8036 C   0  0  0  0  0  0
   28.9775   20.5313   20.0768 C   0  0  0  0  0  0
   27.5445   19.8148   20.7342 Cl  0  0  0  0  0  0
   25.4740   20.8797   14.1267 H   0  0  0  0  0  0
   25.0339   21.9906   11.9635 H   0  0  0  0  0  0
   26.3993   25.7293   13.5641 H   0  0  0  0  0  0
   26.8411   24.6482   15.7515 H   0  0  0  0  0  0
   23.8297   19.7335   18.4886 H   0  0  0  0  0  0
   21.3875   19.5679   18.2701 H   0  0  0  0  0  0
   21.4141   22.8594   15.4665 H   0  0  0  0  0  0
   23.8552   23.0321   15.6923 H   0  0  0  0  0  0
   18.2034   19.9992   15.0224 H   0  0  0  0  0  0
   19.7487   19.1545   15.3289 H   0  0  0  0  0  0
   19.7239   20.6739   14.3683 H   0  0  0  0  0  0
   30.2275   22.2676   17.4209 H   0  0  0  0  0  0
   32.3114   21.9897   18.7163 H   0  0  0  0  0  0
   32.2807   20.7823   20.8861 H   0  0  0  0  0  0
   30.1659   19.8424   21.7509 H   0  0  0  0  0  0
  1  2  2  0  0  0
  1  5  1  0  0  0
  1  7  1  0  0  0
  2  3  1  0  0  0
  2  6  1  0  0  0
  3  4  2  0  0  0
  4  5  1  0  0  0
  4 23  1  0  0  0
  6  8  2  0  0  0
  6 12  1  0  0  0
  7 13  2  0  0  0
  7 17  1  0  0  0
  8  9  1  0  0  0
  8 30  1  0  0  0
  9 10  2  0  0  0
  9 31  1  0  0  0
 10 11  1  0  0  0
 10 18  1  0  0  0
 11 12  2  0  0  0
 11 32  1  0  0  0
 12 33  1  0  0  0
 13 14  1  0  0  0
 13 34  1  0  0  0
 14 15  2  0  0  0
 14 35  1  0  0  0
 15 16  1  0  0  0
 15 19  1  0  0  0
 16 17  2  0  0  0
 16 36  1  0  0  0
 17 37  1  0  0  0
 19 20  2  0  0  0
 19 21  2  0  0  0
 19 22  1  0  0  0
 22 38  1  0  0  0
 22 39  1  0  0  0
 22 40  1  0  0  0
 23 24  2  0  0  0
 23 28  1  0  0  0
 24 25  1  0  0  0
 24 41  1  0  0  0
 25 26  2  0  0  0
 25 42  1  0  0  0
 26 27  1  0  0  0
 26 43  1  0  0  0
 27 28  2  0  0  0
 27 44  1  0  0  0
 28 29  1  0  0  0
M  END
>  <Name>
11-21

>  <Family>
J.1

>  <IC50_uM>
0.050000

>  <set>
0

$$$$
11-22
  Cerius2 12120216103D 1   1.00000                          
 Structure written by MMmdl.
 44 47  0  0  0  0  0  0  0  0999 V2000
   25.4811   21.5047   17.2312 C   0  0  0  0  0  0
   26.4371   22.0726   16.4026 C   0  0  0  0  0  0
   27.7359   22.0460   16.8945 N   0  0  0  0  0  0
   27.7835   21.4447   18.0692 C   0  0  0  0  0  0
   26.2562   20.8913   18.6376 S   0  0  0  0  0  0
   26.1692   22.6901   15.1091 C   0  0  0  0  0  0
   24.0247   21.4013   17.1130 C   0  0  0  0  0  0
   25.6727   21.9451   14.0284 C   0  0  0  0  0  0
   25.4304   22.5617   12.7980 C   0  0  0  0  0  0
   25.6926   23.9181   12.6461 C   0  0  0  0  0  0
   26.1976   24.6705   13.6994 C   0  0  0  0  0  0
   26.4405   24.0556   14.9300 C   0  0  0  0  0  0
   23.3105   20.4296   17.8315 C   0  0  0  0  0  0
   21.9213   20.3291   17.7077 C   0  0  0  0  0  0
   21.2382   21.2092   16.8654 C   0  0  0  0  0  0
   21.9340   22.1747   16.1345 C   0  0  0  0  0  0
   23.3230   22.2701   16.2630 C   0  0  0  0  0  0
   25.4606   24.5072   11.4655 F   0  0  0  0  0  0
   19.4735   21.0722   16.6886 S   0  0  0  0  0  0
   18.9384   22.4126   16.4706 O   0  0  0  0  0  0
   18.9686   20.2987   17.8188 O   0  0  0  0  0  0
   19.2717   20.1236   15.2042 C   0  0  0  0  0  0
   29.0317   21.2444   18.8384 C   0  0  0  0  0  0
   30.2443   21.7160   18.3004 C   0  0  0  0  0  0
   31.4561   21.5580   18.9829 C   0  0  0  0  0  0
   31.4734   20.9246   20.2206 C   0  0  0  0  0  0
   30.2900   20.4508   20.7782 C   0  0  0  0  0  0
   29.0784   20.6103   20.0923 C   0  0  0  0  0  0
   32.9597   20.7285   21.0645 Cl  0  0  0  0  0  0
   25.4781   20.8787   14.1266 H   0  0  0  0  0  0
   25.0433   21.9872   11.9611 H   0  0  0  0  0  0
   26.4020   25.7284   13.5620 H   0  0  0  0  0  0
   26.8391   24.6496   15.7512 H   0  0  0  0  0  0
   23.8305   19.7332   18.4883 H   0  0  0  0  0  0
   21.3890   19.5661   18.2716 H   0  0  0  0  0  0
   21.4109   22.8579   15.4687 H   0  0  0  0  0  0
   23.8522   23.0329   15.6932 H   0  0  0  0  0  0
   18.2018   19.9978   15.0252 H   0  0  0  0  0  0
   19.7429   19.1481   15.3382 H   0  0  0  0  0  0
   19.7266   20.6641   14.3720 H   0  0  0  0  0  0
   30.2558   22.2158   17.3317 H   0  0  0  0  0  0
   32.3747   21.9334   18.5379 H   0  0  0  0  0  0
   30.2942   19.9563   21.7472 H   0  0  0  0  0  0
   28.1777   20.2299   20.5701 H   0  0  0  0  0  0
  1  2  2  0  0  0
  1  5  1  0  0  0
  1  7  1  0  0  0
  2  3  1  0  0  0
  2  6  1  0  0  0
  3  4  2  0  0  0
  4  5  1  0  0  0
  4 23  1  0  0  0
  6  8  2  0  0  0
  6 12  1  0  0  0
  7 13  2  0  0  0
  7 17  1  0  0  0
  8  9  1  0  0  0
  8 30  1  0  0  0
  9 10  2  0  0  0
  9 31  1  0  0  0
 10 11  1  0  0  0
 10 18  1  0  0  0
 11 12  2  0  0  0
 11 32  1  0  0  0
 12 33  1  0  0  0
 13 14  1  0  0  0
 13 34  1  0  0  0
 14 15  2  0  0  0
 14 35  1  0  0  0
 15 16  1  0  0  0
 15 19  1  0  0  0
 16 17  2  0  0  0
 16 36  1  0  0  0
 17 37  1  0  0  0
 19 20  2  0  0  0
 19 21  2  0  0  0
 19 22  1  0  0  0
 22 38  1  0  0  0
 22 39  1  0  0  0
 22 40  1  0  0  0
 23 24  2  0  0  0
 23 28  1  0  0  0
 24 25  1  0  0  0
 24 41  1  0  0  0
 25 26  2  0  0  0
 25 42  1  0  0  0
 26 27  1  0  0  0
 26 29  1  0  0  0
 27 28  2  0  0  0
 27 43  1  0  0  0
 28 44  1  0  0  0
M  END
>  <Name>
11-22

>  <Family>
J.1

>  <IC50_uM>
0.050000

>  <set>
0

$$$$
11-23
  Cerius2 12120216103D 1   1.00000                          
 Structure written by MMmdl.
 48 51  0  0  0  0  0  0  0  0999 V2000
   25.4811   21.5059   17.2321 C   0  0  0  0  0  0
   26.4372   22.0730   16.4029 C   0  0  0  0  0  0
   27.7368   22.0429   16.8926 N   0  0  0  0  0  0
   27.7841   21.4408   18.0669 C   0  0  0  0  0  0
   26.2564   20.8911   18.6379 S   0  0  0  0  0  0
   26.1686   22.6907   15.1097 C   0  0  0  0  0  0
   24.0247   21.4030   17.1141 C   0  0  0  0  0  0
   25.6722   21.9451   14.0293 C   0  0  0  0  0  0
   25.4298   22.5611   12.7987 C   0  0  0  0  0  0
   25.6917   23.9173   12.6463 C   0  0  0  0  0  0
   26.1966   24.6704   13.6991 C   0  0  0  0  0  0
   26.4397   24.0561   14.9300 C   0  0  0  0  0  0
   23.3106   20.4312   17.8326 C   0  0  0  0  0  0
   21.9216   20.3298   17.7081 C   0  0  0  0  0  0
   21.2386   21.2089   16.8650 C   0  0  0  0  0  0
   21.9340   22.1749   16.1342 C   0  0  0  0  0  0
   23.3229   22.2713   16.2635 C   0  0  0  0  0  0
   25.4596   24.5058   11.4653 F   0  0  0  0  0  0
   19.4741   21.0709   16.6867 S   0  0  0  0  0  0
   18.9660   22.3611   16.2306 O   0  0  0  0  0  0
   18.9411   20.5139   17.9261 O   0  0  0  0  0  0
   19.2748   19.8821   15.3863 C   0  0  0  0  0  0
   29.0320   21.2310   18.8322 C   0  0  0  0  0  0
   30.2466   21.6920   18.2947 C   0  0  0  0  0  0
   31.4629   21.5232   18.9721 C   0  0  0  0  0  0
   31.4905   20.8890   20.2107 C   0  0  0  0  0  0
   30.2937   20.4296   20.7609 C   0  0  0  0  0  0
   29.0788   20.5980   20.0831 C   0  0  0  0  0  0
   32.6010   20.6602   20.9740 O   0  0  0  0  0  0
   33.8460   21.1177   20.4477 C   0  0  0  0  0  0
   25.4779   20.8787   14.1282 H   0  0  0  0  0  0
   25.0431   21.9860   11.9621 H   0  0  0  0  0  0
   26.4011   25.7282   13.5612 H   0  0  0  0  0  0
   26.8382   24.6505   15.7512 H   0  0  0  0  0  0
   23.8305   19.7355   18.4903 H   0  0  0  0  0  0
   21.3894   19.5667   18.2722 H   0  0  0  0  0  0
   21.4108   22.8578   15.4683 H   0  0  0  0  0  0
   23.8520   23.0346   15.6943 H   0  0  0  0  0  0
   18.2053   19.7436   15.2146 H   0  0  0  0  0  0
   19.7265   18.9376   15.6953 H   0  0  0  0  0  0
   19.7503   20.2626   14.4804 H   0  0  0  0  0  0
   30.2596   22.1927   17.3261 H   0  0  0  0  0  0
   32.3640   21.9019   18.4970 H   0  0  0  0  0  0
   30.2957   19.9338   21.7307 H   0  0  0  0  0  0
   28.1776   20.2258   20.5662 H   0  0  0  0  0  0
   34.6269   20.8601   21.1697 H   0  0  0  0  0  0
   33.8464   22.2062   20.3288 H   0  0  0  0  0  0
   34.0833   20.6141   19.5048 H   0  0  0  0  0  0
  1  2  2  0  0  0
  1  5  1  0  0  0
  1  7  1  0  0  0
  2  3  1  0  0  0
  2  6  1  0  0  0
  3  4  2  0  0  0
  4  5  1  0  0  0
  4 23  1  0  0  0
  6  8  2  0  0  0
  6 12  1  0  0  0
  7 13  2  0  0  0
  7 17  1  0  0  0
  8  9  1  0  0  0
  8 31  1  0  0  0
  9 10  2  0  0  0
  9 32  1  0  0  0
 10 11  1  0  0  0
 10 18  1  0  0  0
 11 12  2  0  0  0
 11 33  1  0  0  0
 12 34  1  0  0  0
 13 14  1  0  0  0
 13 35  1  0  0  0
 14 15  2  0  0  0
 14 36  1  0  0  0
 15 16  1  0  0  0
 15 19  1  0  0  0
 16 17  2  0  0  0
 16 37  1  0  0  0
 17 38  1  0  0  0
 19 20  2  0  0  0
 19 21  2  0  0  0
 19 22  1  0  0  0
 22 39  1  0  0  0
 22 40  1  0  0  0
 22 41  1  0  0  0
 23 24  2  0  0  0
 23 28  1  0  0  0
 24 25  1  0  0  0
 24 42  1  0  0  0
 25 26  2  0  0  0
 25 43  1  0  0  0
 26 27  1  0  0  0
 26 29  1  0  0  0
 27 28  2  0  0  0
 27 44  1  0  0  0
 28 45  1  0  0  0
 29 30  1  0  0  0
 30 46  1  0  0  0
 30 47  1  0  0  0
 30 48  1  0  0  0
M  END
>  <Name>
11-23

>  <Family>
J.1

>  <IC50_uM>
0.270000

>  <set>
2

$$$$
11-24
  Cerius2 12120216103D 1   1.00000                          
 Structure written by MMmdl.
 41 44  0  0  0  0  0  0  0  0999 V2000
   25.4814   21.5039   17.2317 C   0  0  0  0  0  0
   26.4381   22.0725   16.4024 C   0  0  0  0  0  0
   27.7377   22.0466   16.8931 N   0  0  0  0  0  0
   27.7780   21.4398   18.0637 C   0  0  0  0  0  0
   26.2563   20.8900   18.6396 S   0  0  0  0  0  0
   26.1685   22.6902   15.1094 C   0  0  0  0  0  0
   24.0250   21.4013   17.1137 C   0  0  0  0  0  0
   25.6707   21.9450   14.0296 C   0  0  0  0  0  0
   25.4266   22.5614   12.7994 C   0  0  0  0  0  0
   25.6887   23.9176   12.6468 C   0  0  0  0  0  0
   26.1953   24.6703   13.6993 C   0  0  0  0  0  0
   26.4397   24.0557   14.9298 C   0  0  0  0  0  0
   23.3103   20.4300   17.8322 C   0  0  0  0  0  0
   21.9211   20.3299   17.7077 C   0  0  0  0  0  0
   21.2388   21.2097   16.8647 C   0  0  0  0  0  0
   21.9349   22.1752   16.1342 C   0  0  0  0  0  0
   23.3239   22.2704   16.2635 C   0  0  0  0  0  0
   25.4552   24.5065   11.4664 F   0  0  0  0  0  0
   19.4742   21.0726   16.6860 S   0  0  0  0  0  0
   18.9392   22.4123   16.4635 O   0  0  0  0  0  0
   18.9681   20.3023   17.8178 O   0  0  0  0  0  0
   19.2745   20.1199   15.2040 C   0  0  0  0  0  0
   29.0266   21.2740   18.7771 C   0  0  0  0  0  0
   30.2692   21.7130   18.3477 C   0  0  0  0  0  0
   31.3180   21.4059   19.2630 C   0  0  0  0  0  0
   30.8508   20.7386   20.3710 C   0  0  0  0  0  0
   29.1627   20.4888   20.3006 S   0  0  0  0  0  0
   25.4762   20.8786   14.1283 H   0  0  0  0  0  0
   25.0384   21.9867   11.9633 H   0  0  0  0  0  0
   26.3997   25.7281   13.5614 H   0  0  0  0  0  0
   26.8391   24.6501   15.7505 H   0  0  0  0  0  0
   23.8297   19.7336   18.4894 H   0  0  0  0  0  0
   21.3883   19.5670   18.2716 H   0  0  0  0  0  0
   21.4125   22.8584   15.4680 H   0  0  0  0  0  0
   23.8534   23.0332   15.6939 H   0  0  0  0  0  0
   18.2049   19.9931   15.0244 H   0  0  0  0  0  0
   19.7462   19.1451   15.3411 H   0  0  0  0  0  0
   19.7298   20.6584   14.3708 H   0  0  0  0  0  0
   30.4195   22.2364   17.4090 H   0  0  0  0  0  0
   32.3613   21.6622   19.1143 H   0  0  0  0  0  0
   31.4225   20.3853   21.2201 H   0  0  0  0  0  0
  1  2  2  0  0  0
  1  5  1  0  0  0
  1  7  1  0  0  0
  2  3  1  0  0  0
  2  6  1  0  0  0
  3  4  2  0  0  0
  4  5  1  0  0  0
  4 23  1  0  0  0
  6  8  2  0  0  0
  6 12  1  0  0  0
  7 13  2  0  0  0
  7 17  1  0  0  0
  8  9  1  0  0  0
  8 28  1  0  0  0
  9 10  2  0  0  0
  9 29  1  0  0  0
 10 11  1  0  0  0
 10 18  1  0  0  0
 11 12  2  0  0  0
 11 30  1  0  0  0
 12 31  1  0  0  0
 13 14  1  0  0  0
 13 32  1  0  0  0
 14 15  2  0  0  0
 14 33  1  0  0  0
 15 16  1  0  0  0
 15 19  1  0  0  0
 16 17  2  0  0  0
 16 34  1  0  0  0
 17 35  1  0  0  0
 19 20  2  0  0  0
 19 21  2  0  0  0
 19 22  1  0  0  0
 22 36  1  0  0  0
 22 37  1  0  0  0
 22 38  1  0  0  0
 23 24  2  0  0  0
 23 27  1  0  0  0
 24 25  1  0  0  0
 24 39  1  0  0  0
 25 26  2  0  0  0
 25 40  1  0  0  0
 26 27  1  0  0  0
 26 41  1  0  0  0
M  END
>  <Name>
11-24

>  <Family>
J.1

>  <IC50_uM>
0.021000

>  <set>
1

$$$$
11-25
  Cerius2 12120216103D 1   1.00000                          
 Structure written by MMmdl.
 43 46  0  0  0  0  0  0  0  0999 V2000
   25.4809   21.5048   17.2310 C   0  0  0  0  0  0
   26.4370   22.0723   16.4021 C   0  0  0  0  0  0
   27.7360   22.0451   16.8943 N   0  0  0  0  0  0
   27.7852   21.4333   18.0637 C   0  0  0  0  0  0
   26.2560   20.8918   18.6380 S   0  0  0  0  0  0
   26.1696   22.6903   15.1086 C   0  0  0  0  0  0
   24.0240   21.4019   17.1134 C   0  0  0  0  0  0
   25.6740   21.9458   14.0273 C   0  0  0  0  0  0
   25.4318   22.5630   12.7971 C   0  0  0  0  0  0
   25.6944   23.9192   12.6457 C   0  0  0  0  0  0
   26.1992   24.6711   13.6994 C   0  0  0  0  0  0
   26.4413   24.0558   14.9301 C   0  0  0  0  0  0
   23.3100   20.4301   17.8320 C   0  0  0  0  0  0
   21.9207   20.3292   17.7085 C   0  0  0  0  0  0
   21.2376   21.2087   16.8657 C   0  0  0  0  0  0
   21.9329   22.1744   16.1348 C   0  0  0  0  0  0
   23.3219   22.2706   16.2637 C   0  0  0  0  0  0
   25.4627   24.5088   11.4654 F   0  0  0  0  0  0
   19.4729   21.0709   16.6893 S   0  0  0  0  0  0
   18.9367   22.4111   16.4740 O   0  0  0  0  0  0
   18.9688   20.2946   17.8181 O   0  0  0  0  0  0
   19.2720   20.1248   15.2032 C   0  0  0  0  0  0
   29.0272   21.2380   18.8328 C   0  0  0  0  0  0
   30.2459   21.7075   18.3216 C   0  0  0  0  0  0
   31.4332   21.5302   19.0323 C   0  0  0  0  0  0
   31.3796   20.8792   20.2505 C   0  0  0  0  0  0
   30.2344   20.4037   20.7892 N   0  0  0  0  0  0
   29.0925   20.5939   20.0683 C   0  0  0  0  0  0
   25.4795   20.8793   14.1247 H   0  0  0  0  0  0
   25.0450   21.9889   11.9600 H   0  0  0  0  0  0
   26.4041   25.7290   13.5625 H   0  0  0  0  0  0
   26.8394   24.6497   15.7518 H   0  0  0  0  0  0
   23.8299   19.7334   18.4885 H   0  0  0  0  0  0
   21.3886   19.5662   18.2727 H   0  0  0  0  0  0
   21.4097   22.8571   15.4686 H   0  0  0  0  0  0
   23.8507   23.0340   15.6940 H   0  0  0  0  0  0
   18.2023   19.9978   15.0245 H   0  0  0  0  0  0
   19.7449   19.1499   15.3354 H   0  0  0  0  0  0
   19.7258   20.6674   14.3718 H   0  0  0  0  0  0
   30.2800   22.2195   17.3607 H   0  0  0  0  0  0
   32.3782   21.8935   18.6404 H   0  0  0  0  0  0
   32.2829   20.7208   20.8357 H   0  0  0  0  0  0
   28.2063   20.1843   20.5483 H   0  0  0  0  0  0
  1  2  2  0  0  0
  1  5  1  0  0  0
  1  7  1  0  0  0
  2  3  1  0  0  0
  2  6  1  0  0  0
  3  4  2  0  0  0
  4  5  1  0  0  0
  4 23  1  0  0  0
  6  8  2  0  0  0
  6 12  1  0  0  0
  7 13  2  0  0  0
  7 17  1  0  0  0
  8  9  1  0  0  0
  8 29  1  0  0  0
  9 10  2  0  0  0
  9 30  1  0  0  0
 10 11  1  0  0  0
 10 18  1  0  0  0
 11 12  2  0  0  0
 11 31  1  0  0  0
 12 32  1  0  0  0
 13 14  1  0  0  0
 13 33  1  0  0  0
 14 15  2  0  0  0
 14 34  1  0  0  0
 15 16  1  0  0  0
 15 19  1  0  0  0
 16 17  2  0  0  0
 16 35  1  0  0  0
 17 36  1  0  0  0
 19 20  2  0  0  0
 19 21  2  0  0  0
 19 22  1  0  0  0
 22 37  1  0  0  0
 22 38  1  0  0  0
 22 39  1  0  0  0
 23 24  2  0  0  0
 23 28  1  0  0  0
 24 25  1  0  0  0
 24 40  1  0  0  0
 25 26  2  0  0  0
 25 41  1  0  0  0
 26 27  1  0  0  0
 26 42  1  0  0  0
 27 28  2  0  0  0
 28 43  1  0  0  0
M  END
>  <Name>
11-25

>  <Family>
J.1

>  <IC50_uM>
0.430000

>  <set>
2

$$$$
11-26
  Cerius2 12120216103D 1   1.00000                          
 Structure written by MMmdl.
 43 46  0  0  0  0  0  0  0  0999 V2000
   25.4815   21.5040   17.2310 C   0  0  0  0  0  0
   26.4377   22.0719   16.4021 C   0  0  0  0  0  0
   27.7367   22.0459   16.8942 N   0  0  0  0  0  0
   27.7853   21.4328   18.0625 C   0  0  0  0  0  0
   26.2567   20.8911   18.6381 S   0  0  0  0  0  0
   26.1694   22.6901   15.1090 C   0  0  0  0  0  0
   24.0246   21.4018   17.1138 C   0  0  0  0  0  0
   25.6717   21.9454   14.0285 C   0  0  0  0  0  0
   25.4278   22.5623   12.7986 C   0  0  0  0  0  0
   25.6900   23.9184   12.6470 C   0  0  0  0  0  0
   26.1966   24.6706   13.6998 C   0  0  0  0  0  0
   26.4409   24.0555   14.9300 C   0  0  0  0  0  0
   23.3100   20.4308   17.8329 C   0  0  0  0  0  0
   21.9207   20.3305   17.7089 C   0  0  0  0  0  0
   21.2380   21.2098   16.8657 C   0  0  0  0  0  0
   21.9339   22.1753   16.1350 C   0  0  0  0  0  0
   23.3229   22.2709   16.2640 C   0  0  0  0  0  0
   25.4564   24.5079   11.4669 F   0  0  0  0  0  0
   19.4738   21.0711   16.6863 S   0  0  0  0  0  0
   18.9377   22.4108   16.4665 O   0  0  0  0  0  0
   18.9678   20.2979   17.8163 O   0  0  0  0  0  0
   19.2755   20.1211   15.2025 C   0  0  0  0  0  0
   29.0295   21.2405   18.8357 C   0  0  0  0  0  0
   30.2343   21.7303   18.3135 C   0  0  0  0  0  0
   31.4076   21.5529   19.0288 C   0  0  0  0  0  0
   31.4683   20.9227   20.2226 N   0  0  0  0  0  0
   30.3010   20.4501   20.7148 C   0  0  0  0  0  0
   29.0802   20.5816   20.0696 C   0  0  0  0  0  0
   25.4770   20.8791   14.1267 H   0  0  0  0  0  0
   25.0393   21.9881   11.9622 H   0  0  0  0  0  0
   26.4009   25.7286   13.5624 H   0  0  0  0  0  0
   26.8401   24.6494   15.7511 H   0  0  0  0  0  0
   23.8294   19.7342   18.4899 H   0  0  0  0  0  0
   21.3882   19.5676   18.2731 H   0  0  0  0  0  0
   21.4111   22.8579   15.4686 H   0  0  0  0  0  0
   23.8520   23.0337   15.6941 H   0  0  0  0  0  0
   18.2059   19.9925   15.0228 H   0  0  0  0  0  0
   19.7492   19.1470   15.3378 H   0  0  0  0  0  0
   19.7297   20.6622   14.3705 H   0  0  0  0  0  0
   30.2669   22.2491   17.3590 H   0  0  0  0  0  0
   32.3525   21.9275   18.6411 H   0  0  0  0  0  0
   30.3644   19.9419   21.6749 H   0  0  0  0  0  0
   28.1992   20.1604   20.5433 H   0  0  0  0  0  0
  1  2  2  0  0  0
  1  5  1  0  0  0
  1  7  1  0  0  0
  2  3  1  0  0  0
  2  6  1  0  0  0
  3  4  2  0  0  0
  4  5  1  0  0  0
  4 23  1  0  0  0
  6  8  2  0  0  0
  6 12  1  0  0  0
  7 13  2  0  0  0
  7 17  1  0  0  0
  8  9  1  0  0  0
  8 29  1  0  0  0
  9 10  2  0  0  0
  9 30  1  0  0  0
 10 11  1  0  0  0
 10 18  1  0  0  0
 11 12  2  0  0  0
 11 31  1  0  0  0
 12 32  1  0  0  0
 13 14  1  0  0  0
 13 33  1  0  0  0
 14 15  2  0  0  0
 14 34  1  0  0  0
 15 16  1  0  0  0
 15 19  1  0  0  0
 16 17  2  0  0  0
 16 35  1  0  0  0
 17 36  1  0  0  0
 19 20  2  0  0  0
 19 21  2  0  0  0
 19 22  1  0  0  0
 22 37  1  0  0  0
 22 38  1  0  0  0
 22 39  1  0  0  0
 23 24  2  0  0  0
 23 28  1  0  0  0
 24 25  1  0  0  0
 24 40  1  0  0  0
 25 26  2  0  0  0
 25 41  1  0  0  0
 26 27  1  0  0  0
 27 28  2  0  0  0
 27 42  1  0  0  0
 28 43  1  0  0  0
M  END
>  <Name>
11-26

>  <Family>
J.1

>  <IC50_uM>
1.600000

>  <set>
1

$$$$
11-27
  Cerius2 12120216103D 1   1.00000                          
 Structure written by MMmdl.
 56 59  0  0  0  0  0  0  0  0999 V2000
   25.4824   21.5014   17.2309 C   0  0  0  0  0  0
   26.4365   22.0735   16.4033 C   0  0  0  0  0  0
   27.7343   22.0532   16.8953 N   0  0  0  0  0  0
   27.7844   21.4377   18.0624 C   0  0  0  0  0  0
   26.2583   20.8872   18.6368 S   0  0  0  0  0  0
   26.1645   22.6909   15.1115 C   0  0  0  0  0  0
   24.0264   21.3982   17.1124 C   0  0  0  0  0  0
   25.6709   21.9430   14.0315 C   0  0  0  0  0  0
   25.4339   22.5562   12.7984 C   0  0  0  0  0  0
   25.6956   23.9123   12.6444 C   0  0  0  0  0  0
   26.1943   24.6683   13.6982 C   0  0  0  0  0  0
   26.4330   24.0569   14.9314 C   0  0  0  0  0  0
   23.3120   20.4268   17.8305 C   0  0  0  0  0  0
   21.9224   20.3283   17.7068 C   0  0  0  0  0  0
   21.2407   21.2099   16.8649 C   0  0  0  0  0  0
   21.9375   22.1749   16.1343 C   0  0  0  0  0  0
   23.3265   22.2678   16.2616 C   0  0  0  0  0  0
   25.4695   24.4976   11.4610 F   0  0  0  0  0  0
   19.4758   21.0786   16.6856 S   0  0  0  0  0  0
   18.9451   22.4182   16.4544 O   0  0  0  0  0  0
   18.9678   20.3169   17.8225 O   0  0  0  0  0  0
   19.2730   20.1179   15.2092 C   0  0  0  0  0  0
   29.0254   21.2594   18.8428 C   0  0  0  0  0  0
   30.2291   21.7658   18.3316 C   0  0  0  0  0  0
   31.4391   21.6276   19.0272 C   0  0  0  0  0  0
   31.4969   20.9702   20.2638 C   0  0  0  0  0  0
   30.2894   20.4551   20.7687 C   0  0  0  0  0  0
   29.0784   20.5948   20.0737 C   0  0  0  0  0  0
   32.8055   20.7978   21.0554 C   0  0  0  0  0  0
   34.0339   21.4447   20.3769 C   0  0  0  0  0  0
   33.1144   19.2946   21.2241 C   0  0  0  0  0  0
   32.6626   21.4466   22.4491 C   0  0  0  0  0  0
   25.4776   20.8766   14.1326 H   0  0  0  0  0  0
   25.0527   21.9788   11.9610 H   0  0  0  0  0  0
   26.3984   25.7260   13.5589 H   0  0  0  0  0  0
   26.8277   24.6529   15.7532 H   0  0  0  0  0  0
   23.8317   19.7302   18.4871 H   0  0  0  0  0  0
   21.3891   19.5657   18.2708 H   0  0  0  0  0  0
   21.4146   22.8596   15.4700 H   0  0  0  0  0  0
   23.8575   23.0297   15.6920 H   0  0  0  0  0  0
   18.2029   19.9887   15.0332 H   0  0  0  0  0  0
   19.7460   19.1441   15.3496 H   0  0  0  0  0  0
   19.7253   20.6529   14.3721 H   0  0  0  0  0  0
   30.2396   22.2859   17.3735 H   0  0  0  0  0  0
   32.3280   22.0519   18.5651 H   0  0  0  0  0  0
   30.2691   19.9264   21.7216 H   0  0  0  0  0  0
   28.1867   20.1601   20.5215 H   0  0  0  0  0  0
   34.9393   21.3017   20.9788 H   0  0  0  0  0  0
   33.8999   22.5252   20.2477 H   0  0  0  0  0  0
   34.2297   21.0042   19.3924 H   0  0  0  0  0  0
   34.0583   19.1422   21.7604 H   0  0  0  0  0  0
   33.2009   18.7985   20.2500 H   0  0  0  0  0  0
   32.3354   18.7728   21.7907 H   0  0  0  0  0  0
   33.5965   21.3699   23.0185 H   0  0  0  0  0  0
   31.8816   20.9698   23.0508 H   0  0  0  0  0  0
   32.4101   22.5101   22.3641 H   0  0  0  0  0  0
  1  2  2  0  0  0
  1  5  1  0  0  0
  1  7  1  0  0  0
  2  3  1  0  0  0
  2  6  1  0  0  0
  3  4  2  0  0  0
  4  5  1  0  0  0
  4 23  1  0  0  0
  6  8  2  0  0  0
  6 12  1  0  0  0
  7 13  2  0  0  0
  7 17  1  0  0  0
  8  9  1  0  0  0
  8 33  1  0  0  0
  9 10  2  0  0  0
  9 34  1  0  0  0
 10 11  1  0  0  0
 10 18  1  0  0  0
 11 12  2  0  0  0
 11 35  1  0  0  0
 12 36  1  0  0  0
 13 14  1  0  0  0
 13 37  1  0  0  0
 14 15  2  0  0  0
 14 38  1  0  0  0
 15 16  1  0  0  0
 15 19  1  0  0  0
 16 17  2  0  0  0
 16 39  1  0  0  0
 17 40  1  0  0  0
 19 20  2  0  0  0
 19 21  2  0  0  0
 19 22  1  0  0  0
 22 41  1  0  0  0
 22 42  1  0  0  0
 22 43  1  0  0  0
 23 24  2  0  0  0
 23 28  1  0  0  0
 24 25  1  0  0  0
 24 44  1  0  0  0
 25 26  2  0  0  0
 25 45  1  0  0  0
 26 27  1  0  0  0
 26 29  1  0  0  0
 27 28  2  0  0  0
 27 46  1  0  0  0
 28 47  1  0  0  0
 29 30  1  0  0  0
 29 31  1  0  0  0
 29 32  1  0  0  0
 30 48  1  0  0  0
 30 49  1  0  0  0
 30 50  1  0  0  0
 31 51  1  0  0  0
 31 52  1  0  0  0
 31 53  1  0  0  0
 32 54  1  0  0  0
 32 55  1  0  0  0
 32 56  1  0  0  0
M  END
>  <Name>
11-27

>  <Family>
J.1

>  <IC50_uM>
>100

>  <set>
1

$$$$
11-28
  Cerius2 12120216103D 1   1.00000                          
 Structure written by MMmdl.
 44 47  0  0  0  0  0  0  0  0999 V2000
   25.4810   21.5018   17.2298 C   0  0  0  0  0  0
   26.4396   22.0705   16.4005 C   0  0  0  0  0  0
   27.7400   22.0466   16.8928 N   0  0  0  0  0  0
   27.7727   21.4192   18.0500 C   0  0  0  0  0  0
   26.2509   20.8933   18.6456 S   0  0  0  0  0  0
   26.1699   22.6904   15.1083 C   0  0  0  0  0  0
   24.0245   21.3994   17.1113 C   0  0  0  0  0  0
   25.6724   21.9491   14.0277 C   0  0  0  0  0  0
   25.4286   22.5672   12.7983 C   0  0  0  0  0  0
   25.6882   23.9271   12.6358 C   0  0  0  0  0  0
   26.1967   24.6705   13.6993 C   0  0  0  0  0  0
   26.4409   24.0541   14.9290 C   0  0  0  0  0  0
   23.3101   20.4286   17.8306 C   0  0  0  0  0  0
   21.9208   20.3294   17.7072 C   0  0  0  0  0  0
   21.2383   21.2099   16.8649 C   0  0  0  0  0  0
   21.9342   22.1751   16.1340 C   0  0  0  0  0  0
   23.3234   22.2691   16.2617 C   0  0  0  0  0  0
   19.4733   21.0715   16.6903 S   0  0  0  0  0  0
   18.9351   22.4152   16.5024 O   0  0  0  0  0  0
   18.9724   20.2727   17.8045 O   0  0  0  0  0  0
   19.2703   20.1531   15.1872 C   0  0  0  0  0  0
   28.9768   21.2247   18.8580 C   0  0  0  0  0  0
   30.1940   21.7391   18.3773 C   0  0  0  0  0  0
   31.3747   21.5848   19.1071 C   0  0  0  0  0  0
   31.3567   20.9077   20.3233 C   0  0  0  0  0  0
   30.1600   20.3791   20.8080 C   0  0  0  0  0  0
   28.9743   20.5315   20.0797 C   0  0  0  0  0  0
   27.5414   19.8130   20.7353 Cl  0  0  0  0  0  0
   25.4770   20.8826   14.1245 H   0  0  0  0  0  0
   25.0392   21.9844   11.9654 H   0  0  0  0  0  0
   25.4985   24.4069   11.6772 H   0  0  0  0  0  0
   26.4054   25.7312   13.5722 H   0  0  0  0  0  0
   26.8408   24.6475   15.7503 H   0  0  0  0  0  0
   23.8298   19.7323   18.4875 H   0  0  0  0  0  0
   21.3876   19.5670   18.2712 H   0  0  0  0  0  0
   21.4118   22.8589   15.4684 H   0  0  0  0  0  0
   23.8534   23.0309   15.6914 H   0  0  0  0  0  0
   18.2004   20.0250   15.0103 H   0  0  0  0  0  0
   19.7478   19.1779   15.2989 H   0  0  0  0  0  0
   19.7183   20.7133   14.3644 H   0  0  0  0  0  0
   30.2261   22.2694   17.4258 H   0  0  0  0  0  0
   32.3086   21.9930   18.7237 H   0  0  0  0  0  0
   32.2763   20.7853   20.8931 H   0  0  0  0  0  0
   30.1613   19.8434   21.7552 H   0  0  0  0  0  0
  1  2  2  0  0  0
  1  5  1  0  0  0
  1  7  1  0  0  0
  2  3  1  0  0  0
  2  6  1  0  0  0
  3  4  2  0  0  0
  4  5  1  0  0  0
  4 22  1  0  0  0
  6  8  2  0  0  0
  6 12  1  0  0  0
  7 13  2  0  0  0
  7 17  1  0  0  0
  8  9  1  0  0  0
  8 29  1  0  0  0
  9 10  2  0  0  0
  9 30  1  0  0  0
 10 11  1  0  0  0
 10 31  1  0  0  0
 11 12  2  0  0  0
 11 32  1  0  0  0
 12 33  1  0  0  0
 13 14  1  0  0  0
 13 34  1  0  0  0
 14 15  2  0  0  0
 14 35  1  0  0  0
 15 16  1  0  0  0
 15 18  1  0  0  0
 16 17  2  0  0  0
 16 36  1  0  0  0
 17 37  1  0  0  0
 18 19  2  0  0  0
 18 20  2  0  0  0
 18 21  1  0  0  0
 21 38  1  0  0  0
 21 39  1  0  0  0
 21 40  1  0  0  0
 22 23  2  0  0  0
 22 27  1  0  0  0
 23 24  1  0  0  0
 23 41  1  0  0  0
 24 25  2  0  0  0
 24 42  1  0  0  0
 25 26  1  0  0  0
 25 43  1  0  0  0
 26 27  2  0  0  0
 26 44  1  0  0  0
 27 28  1  0  0  0
M  END
>  <Name>
11-28

>  <Family>
J.1

>  <IC50_uM>
0.010000

>  <set>
1

$$$$
11-29
  Cerius2 12120216103D 1   1.00000                          
 Structure written by MMmdl.
 44 47  0  0  0  0  0  0  0  0999 V2000
   25.4915   21.5109   17.2416 C   0  0  0  0  0  0
   26.4484   22.0793   16.4115 C   0  0  0  0  0  0
   27.7550   22.0231   16.8783 N   0  0  0  0  0  0
   27.7839   21.4367   18.0572 C   0  0  0  0  0  0
   26.2678   20.8813   18.6432 S   0  0  0  0  0  0
   26.1589   22.6932   15.1264 C   0  0  0  0  0  0
   24.0357   21.4113   17.1151 C   0  0  0  0  0  0
   25.6347   21.9365   14.0687 C   0  0  0  0  0  0
   25.3623   22.5404   12.8376 C   0  0  0  0  0  0
   25.6151   23.8999   12.6519 C   0  0  0  0  0  0
   26.1428   24.6580   13.6963 C   0  0  0  0  0  0
   26.4130   24.0529   14.9220 C   0  0  0  0  0  0
   23.3159   20.4405   17.8291 C   0  0  0  0  0  0
   21.9276   20.3397   17.6947 C   0  0  0  0  0  0
   21.2512   21.2181   16.8456 C   0  0  0  0  0  0
   21.9527   22.1834   16.1196 C   0  0  0  0  0  0
   23.3407   22.2794   16.2590 C   0  0  0  0  0  0
   19.4881   21.0808   16.6514 S   0  0  0  0  0  0
   18.9579   22.4164   16.3952 O   0  0  0  0  0  0
   18.9692   20.3353   17.7938 O   0  0  0  0  0  0
   19.3011   20.0982   15.1874 C   0  0  0  0  0  0
   28.9977   21.1849   18.8334 C   0  0  0  0  0  0
   30.2323   21.5917   18.2977 C   0  0  0  0  0  0
   31.4217   21.3748   18.9966 C   0  0  0  0  0  0
   31.3927   20.7554   20.2431 C   0  0  0  0  0  0
   30.1746   20.3574   20.7946 C   0  0  0  0  0  0
   28.9800   20.5726   20.0974 C   0  0  0  0  0  0
   27.5090   20.0780   20.8658 Cl  0  0  0  0  0  0
   26.9058   24.8120   15.9135 F   0  0  0  0  0  0
   25.4380   20.8726   14.1899 H   0  0  0  0  0  0
   24.9533   21.9472   12.0211 H   0  0  0  0  0  0
   25.4017   24.3678   11.6925 H   0  0  0  0  0  0
   26.3418   25.7175   13.5613 H   0  0  0  0  0  0
   23.8306   19.7444   18.4904 H   0  0  0  0  0  0
   21.3911   19.5771   18.2554 H   0  0  0  0  0  0
   21.4344   22.8656   15.4490 H   0  0  0  0  0  0
   23.8731   23.0433   15.6938 H   0  0  0  0  0  0
   18.2329   19.9710   14.9989 H   0  0  0  0  0  0
   19.7678   19.1250   15.3498 H   0  0  0  0  0  0
   19.7671   20.6180   14.3482 H   0  0  0  0  0  0
   30.2723   22.0803   17.3245 H   0  0  0  0  0  0
   32.3708   21.6913   18.5669 H   0  0  0  0  0  0
   32.3189   20.5866   20.7899 H   0  0  0  0  0  0
   30.1645   19.8826   21.7739 H   0  0  0  0  0  0
  1  2  2  0  0  0
  1  5  1  0  0  0
  1  7  1  0  0  0
  2  3  1  0  0  0
  2  6  1  0  0  0
  3  4  2  0  0  0
  4  5  1  0  0  0
  4 22  1  0  0  0
  6  8  2  0  0  0
  6 12  1  0  0  0
  7 13  2  0  0  0
  7 17  1  0  0  0
  8  9  1  0  0  0
  8 30  1  0  0  0
  9 10  2  0  0  0
  9 31  1  0  0  0
 10 11  1  0  0  0
 10 32  1  0  0  0
 11 12  2  0  0  0
 11 33  1  0  0  0
 12 29  1  0  0  0
 13 14  1  0  0  0
 13 34  1  0  0  0
 14 15  2  0  0  0
 14 35  1  0  0  0
 15 16  1  0  0  0
 15 18  1  0  0  0
 16 17  2  0  0  0
 16 36  1  0  0  0
 17 37  1  0  0  0
 18 19  2  0  0  0
 18 20  2  0  0  0
 18 21  1  0  0  0
 21 38  1  0  0  0
 21 39  1  0  0  0
 21 40  1  0  0  0
 22 23  2  0  0  0
 22 27  1  0  0  0
 23 24  1  0  0  0
 23 41  1  0  0  0
 24 25  2  0  0  0
 24 42  1  0  0  0
 25 26  1  0  0  0
 25 43  1  0  0  0
 26 27  2  0  0  0
 26 44  1  0  0  0
 27 28  1  0  0  0
M  END
>  <Name>
11-29

>  <Family>
J.1

>  <IC50_uM>
0.010000

>  <set>
0

$$$$
11-30
  Cerius2 12120216103D 1   1.00000                          
 Structure written by MMmdl.
 44 47  0  0  0  0  0  0  0  0999 V2000
   25.4808   21.5023   17.2295 C   0  0  0  0  0  0
   26.4385   22.0718   16.4000 C   0  0  0  0  0  0
   27.7390   22.0491   16.8910 N   0  0  0  0  0  0
   27.7732   21.4200   18.0472 C   0  0  0  0  0  0
   26.2524   20.8919   18.6434 S   0  0  0  0  0  0
   26.1693   22.6936   15.1092 C   0  0  0  0  0  0
   24.0244   21.4004   17.1118 C   0  0  0  0  0  0
   25.6741   21.9528   14.0249 C   0  0  0  0  0  0
   25.4315   22.5707   12.7940 C   0  0  0  0  0  0
   25.6913   23.9301   12.6354 C   0  0  0  0  0  0
   26.1959   24.6588   13.7059 C   0  0  0  0  0  0
   26.4405   24.0562   14.9353 C   0  0  0  0  0  0
   23.3102   20.4295   17.8311 C   0  0  0  0  0  0
   21.9210   20.3298   17.7074 C   0  0  0  0  0  0
   21.2384   21.2101   16.8648 C   0  0  0  0  0  0
   21.9343   22.1752   16.1337 C   0  0  0  0  0  0
   23.3234   22.2696   16.2618 C   0  0  0  0  0  0
   19.4735   21.0718   16.6899 S   0  0  0  0  0  0
   18.9354   22.4153   16.5012 O   0  0  0  0  0  0
   18.9724   20.2736   17.8045 O   0  0  0  0  0  0
   19.2707   20.1528   15.1872 C   0  0  0  0  0  0
   28.9783   21.2248   18.8534 C   0  0  0  0  0  0
   30.1949   21.7402   18.3721 C   0  0  0  0  0  0
   31.3763   21.5846   19.1004 C   0  0  0  0  0  0
   31.3597   20.9054   20.3154 C   0  0  0  0  0  0
   30.1637   20.3758   20.8005 C   0  0  0  0  0  0
   28.9771   20.5292   20.0737 C   0  0  0  0  0  0
   27.5448   19.8095   20.7291 Cl  0  0  0  0  0  0
   26.4521   25.9648   13.5505 F   0  0  0  0  0  0
   25.4804   20.8855   14.1200 H   0  0  0  0  0  0
   25.0445   21.9883   11.9599 H   0  0  0  0  0  0
   25.5077   24.4203   11.6834 H   0  0  0  0  0  0
   26.8378   24.6555   15.7503 H   0  0  0  0  0  0
   23.8302   19.7334   18.4882 H   0  0  0  0  0  0
   21.3878   19.5673   18.2713 H   0  0  0  0  0  0
   21.4119   22.8590   15.4680 H   0  0  0  0  0  0
   23.8531   23.0320   15.6919 H   0  0  0  0  0  0
   18.2008   20.0247   15.0100 H   0  0  0  0  0  0
   19.7479   19.1774   15.2995 H   0  0  0  0  0  0
   19.7190   20.7125   14.3643 H   0  0  0  0  0  0
   30.2258   22.2721   17.4215 H   0  0  0  0  0  0
   32.3097   21.9937   18.7167 H   0  0  0  0  0  0
   32.2799   20.7821   20.8840 H   0  0  0  0  0  0
   30.1659   19.8382   21.7467 H   0  0  0  0  0  0
  1  2  2  0  0  0
  1  5  1  0  0  0
  1  7  1  0  0  0
  2  3  1  0  0  0
  2  6  1  0  0  0
  3  4  2  0  0  0
  4  5  1  0  0  0
  4 22  1  0  0  0
  6  8  2  0  0  0
  6 12  1  0  0  0
  7 13  2  0  0  0
  7 17  1  0  0  0
  8  9  1  0  0  0
  8 30  1  0  0  0
  9 10  2  0  0  0
  9 31  1  0  0  0
 10 11  1  0  0  0
 10 32  1  0  0  0
 11 12  2  0  0  0
 11 29  1  0  0  0
 12 33  1  0  0  0
 13 14  1  0  0  0
 13 34  1  0  0  0
 14 15  2  0  0  0
 14 35  1  0  0  0
 15 16  1  0  0  0
 15 18  1  0  0  0
 16 17  2  0  0  0
 16 36  1  0  0  0
 17 37  1  0  0  0
 18 19  2  0  0  0
 18 20  2  0  0  0
 18 21  1  0  0  0
 21 38  1  0  0  0
 21 39  1  0  0  0
 21 40  1  0  0  0
 22 23  2  0  0  0
 22 27  1  0  0  0
 23 24  1  0  0  0
 23 41  1  0  0  0
 24 25  2  0  0  0
 24 42  1  0  0  0
 25 26  1  0  0  0
 25 43  1  0  0  0
 26 27  2  0  0  0
 26 44  1  0  0  0
 27 28  1  0  0  0
M  END
>  <Name>
11-30

>  <Family>
J.1

>  <IC50_uM>
0.016000

>  <set>
0

$$$$
11-31
  Cerius2 12120216103D 1   1.00000                          
 Structure written by MMmdl.
 44 47  0  0  0  0  0  0  0  0999 V2000
   25.4911   21.5073   17.2393 C   0  0  0  0  0  0
   26.4478   22.0746   16.4088 C   0  0  0  0  0  0
   27.7531   22.0230   16.8775 N   0  0  0  0  0  0
   27.7883   21.3977   18.0364 C   0  0  0  0  0  0
   26.2646   20.8905   18.6473 S   0  0  0  0  0  0
   26.1580   22.6915   15.1257 C   0  0  0  0  0  0
   24.0359   21.4093   17.1130 C   0  0  0  0  0  0
   25.6353   21.9358   14.0681 C   0  0  0  0  0  0
   25.3712   22.5511   12.8475 C   0  0  0  0  0  0
   25.6206   23.9062   12.6536 C   0  0  0  0  0  0
   26.1465   24.6629   13.6995 C   0  0  0  0  0  0
   26.4139   24.0533   14.9248 C   0  0  0  0  0  0
   23.3166   20.4388   17.8273 C   0  0  0  0  0  0
   21.9285   20.3391   17.6928 C   0  0  0  0  0  0
   21.2524   21.2186   16.8442 C   0  0  0  0  0  0
   21.9540   22.1830   16.1175 C   0  0  0  0  0  0
   23.3422   22.2776   16.2562 C   0  0  0  0  0  0
   19.4885   21.0806   16.6572 S   0  0  0  0  0  0
   18.9571   22.4199   16.4240 O   0  0  0  0  0  0
   18.9746   20.3174   17.7901 O   0  0  0  0  0  0
   19.2964   20.1182   15.1806 C   0  0  0  0  0  0
   28.9978   21.1887   18.8325 C   0  0  0  0  0  0
   30.2166   21.6854   18.3375 C   0  0  0  0  0  0
   31.4028   21.5164   19.0549 C   0  0  0  0  0  0
   31.3887   20.8419   20.2727 C   0  0  0  0  0  0
   30.1902   20.3305   20.7713 C   0  0  0  0  0  0
   28.9989   20.4976   20.0554 C   0  0  0  0  0  0
   27.5636   19.7987   20.7265 Cl  0  0  0  0  0  0
   26.9065   24.8087   15.9191 F   0  0  0  0  0  0
   24.8705   21.8242   11.8395 F   0  0  0  0  0  0
   25.4357   20.8734   14.1772 H   0  0  0  0  0  0
   25.4066   24.3656   11.6927 H   0  0  0  0  0  0
   26.3472   25.7223   13.5672 H   0  0  0  0  0  0
   23.8314   19.7432   18.4889 H   0  0  0  0  0  0
   21.3908   19.5772   18.2534 H   0  0  0  0  0  0
   21.4366   22.8666   15.4477 H   0  0  0  0  0  0
   23.8752   23.0414   15.6915 H   0  0  0  0  0  0
   18.2276   19.9876   14.9980 H   0  0  0  0  0  0
   19.7700   19.1455   15.3258 H   0  0  0  0  0  0
   19.7532   20.6522   14.3453 H   0  0  0  0  0  0
   30.2456   22.2132   17.3845 H   0  0  0  0  0  0
   32.3380   21.9109   18.6607 H   0  0  0  0  0  0
   32.3125   20.7082   20.8330 H   0  0  0  0  0  0
   30.1943   19.7963   21.7194 H   0  0  0  0  0  0
  1  2  2  0  0  0
  1  5  1  0  0  0
  1  7  1  0  0  0
  2  3  1  0  0  0
  2  6  1  0  0  0
  3  4  2  0  0  0
  4  5  1  0  0  0
  4 22  1  0  0  0
  6  8  2  0  0  0
  6 12  1  0  0  0
  7 13  2  0  0  0
  7 17  1  0  0  0
  8  9  1  0  0  0
  8 31  1  0  0  0
  9 10  2  0  0  0
  9 30  1  0  0  0
 10 11  1  0  0  0
 10 32  1  0  0  0
 11 12  2  0  0  0
 11 33  1  0  0  0
 12 29  1  0  0  0
 13 14  1  0  0  0
 13 34  1  0  0  0
 14 15  2  0  0  0
 14 35  1  0  0  0
 15 16  1  0  0  0
 15 18  1  0  0  0
 16 17  2  0  0  0
 16 36  1  0  0  0
 17 37  1  0  0  0
 18 19  2  0  0  0
 18 20  2  0  0  0
 18 21  1  0  0  0
 21 38  1  0  0  0
 21 39  1  0  0  0
 21 40  1  0  0  0
 22 23  2  0  0  0
 22 27  1  0  0  0
 23 24  1  0  0  0
 23 41  1  0  0  0
 24 25  2  0  0  0
 24 42  1  0  0  0
 25 26  1  0  0  0
 25 43  1  0  0  0
 26 27  2  0  0  0
 26 44  1  0  0  0
 27 28  1  0  0  0
M  END
>  <Name>
11-31

>  <Family>
J.1

>  <IC50_uM>
>100

>  <set>
2

$$$$
11-32
  Cerius2 12120216103D 1   1.00000                          
 Structure written by MMmdl.
 44 47  0  0  0  0  0  0  0  0999 V2000
   25.4908   21.5073   17.2388 C   0  0  0  0  0  0
   26.4479   22.0743   16.4084 C   0  0  0  0  0  0
   27.7530   22.0243   16.8790 N   0  0  0  0  0  0
   27.7875   21.3988   18.0378 C   0  0  0  0  0  0
   26.2635   20.8915   18.6477 S   0  0  0  0  0  0
   26.1586   22.6911   15.1243 C   0  0  0  0  0  0
   24.0356   21.4090   17.1125 C   0  0  0  0  0  0
   25.6352   21.9350   14.0648 C   0  0  0  0  0  0
   25.3663   22.5434   12.8359 C   0  0  0  0  0  0
   25.6251   23.9001   12.6674 C   0  0  0  0  0  0
   26.1489   24.6636   13.7014 C   0  0  0  0  0  0
   26.4147   24.0532   14.9232 C   0  0  0  0  0  0
   23.3166   20.4384   17.8270 C   0  0  0  0  0  0
   21.9283   20.3387   17.6932 C   0  0  0  0  0  0
   21.2520   21.2183   16.8448 C   0  0  0  0  0  0
   21.9533   22.1828   16.1180 C   0  0  0  0  0  0
   23.3414   22.2773   16.2561 C   0  0  0  0  0  0
   19.4881   21.0801   16.6588 S   0  0  0  0  0  0
   18.9592   22.4157   16.4003 O   0  0  0  0  0  0
   18.9717   20.3388   17.8051 O   0  0  0  0  0  0
   19.2957   20.0906   15.2001 C   0  0  0  0  0  0
   28.9963   21.1901   18.8353 C   0  0  0  0  0  0
   30.2155   21.6873   18.3418 C   0  0  0  0  0  0
   31.4007   21.5197   19.0612 C   0  0  0  0  0  0
   31.3851   20.8462   20.2796 C   0  0  0  0  0  0
   30.1863   20.3342   20.7766 C   0  0  0  0  0  0
   28.9960   20.4998   20.0587 C   0  0  0  0  0  0
   27.5602   19.8003   20.7283 Cl  0  0  0  0  0  0
   26.9071   24.8075   15.9189 F   0  0  0  0  0  0
   25.3652   24.4780   11.4869 F   0  0  0  0  0  0
   25.4382   20.8709   14.1824 H   0  0  0  0  0  0
   24.9595   21.9632   12.0121 H   0  0  0  0  0  0
   26.3461   25.7202   13.5606 H   0  0  0  0  0  0
   23.8318   19.7427   18.4882 H   0  0  0  0  0  0
   21.3910   19.5768   18.2539 H   0  0  0  0  0  0
   21.4356   22.8664   15.4485 H   0  0  0  0  0  0
   23.8744   23.0408   15.6909 H   0  0  0  0  0  0
   18.2270   19.9584   15.0189 H   0  0  0  0  0  0
   19.7677   19.1201   15.3638 H   0  0  0  0  0  0
   19.7543   20.6085   14.3556 H   0  0  0  0  0  0
   30.2456   22.2145   17.3885 H   0  0  0  0  0  0
   32.3362   21.9147   18.6682 H   0  0  0  0  0  0
   32.3083   20.7137   20.8414 H   0  0  0  0  0  0
   30.1893   19.8009   21.7251 H   0  0  0  0  0  0
  1  2  2  0  0  0
  1  5  1  0  0  0
  1  7  1  0  0  0
  2  3  1  0  0  0
  2  6  1  0  0  0
  3  4  2  0  0  0
  4  5  1  0  0  0
  4 22  1  0  0  0
  6  8  2  0  0  0
  6 12  1  0  0  0
  7 13  2  0  0  0
  7 17  1  0  0  0
  8  9  1  0  0  0
  8 31  1  0  0  0
  9 10  2  0  0  0
  9 32  1  0  0  0
 10 11  1  0  0  0
 10 30  1  0  0  0
 11 12  2  0  0  0
 11 33  1  0  0  0
 12 29  1  0  0  0
 13 14  1  0  0  0
 13 34  1  0  0  0
 14 15  2  0  0  0
 14 35  1  0  0  0
 15 16  1  0  0  0
 15 18  1  0  0  0
 16 17  2  0  0  0
 16 36  1  0  0  0
 17 37  1  0  0  0
 18 19  2  0  0  0
 18 20  2  0  0  0
 18 21  1  0  0  0
 21 38  1  0  0  0
 21 39  1  0  0  0
 21 40  1  0  0  0
 22 23  2  0  0  0
 22 27  1  0  0  0
 23 24  1  0  0  0
 23 41  1  0  0  0
 24 25  2  0  0  0
 24 42  1  0  0  0
 25 26  1  0  0  0
 25 43  1  0  0  0
 26 27  2  0  0  0
 26 44  1  0  0  0
 27 28  1  0  0  0
M  END
>  <Name>
11-32

>  <Family>
J.1

>  <IC50_uM>
0.021000

>  <set>
1

$$$$
12-3a
  Cerius2 12120216103D 1   1.00000                          
 Structure written by MMmdl.
 43 46  0  0  0  0  0  0  0  0999 V2000
   25.4820   21.5018   17.2317 C   0  0  0  0  0  0
   26.4396   22.0694   16.4007 C   0  0  0  0  0  0
   27.7407   22.0448   16.8894 N   0  0  0  0  0  0
   27.7752   21.4175   18.0468 C   0  0  0  0  0  0
   26.2542   20.8931   18.6458 S   0  0  0  0  0  0
   26.1671   22.6894   15.1093 C   0  0  0  0  0  0
   24.0254   21.4012   17.1140 C   0  0  0  0  0  0
   25.6655   21.9458   14.0299 C   0  0  0  0  0  0
   25.4184   22.5639   12.8013 C   0  0  0  0  0  0
   25.6813   23.9201   12.6498 C   0  0  0  0  0  0
   26.1911   24.6711   13.7017 C   0  0  0  0  0  0
   26.4386   24.0548   14.9307 C   0  0  0  0  0  0
   23.3104   20.4310   17.8338 C   0  0  0  0  0  0
   21.9209   20.3323   17.7099 C   0  0  0  0  0  0
   21.2378   21.2115   16.8662 C   0  0  0  0  0  0
   21.9360   22.1765   16.1358 C   0  0  0  0  0  0
   23.3251   22.2707   16.2638 C   0  0  0  0  0  0
   19.4808   21.0722   16.6786 S   0  0  0  0  0  0
   18.9500   22.3256   16.1724 O   0  0  0  0  0  0
   18.9204   20.4645   17.8726 O   0  0  0  0  0  0
   19.3488   19.9494   15.4429 N   0  0  0  0  0  0
   28.9809   21.2218   18.8520 C   0  0  0  0  0  0
   30.1977   21.7347   18.3684 C   0  0  0  0  0  0
   31.3798   21.5791   19.0955 C   0  0  0  0  0  0
   31.3638   20.9021   20.3119 C   0  0  0  0  0  0
   30.1676   20.3750   20.7993 C   0  0  0  0  0  0
   28.9804   20.5286   20.0737 C   0  0  0  0  0  0
   27.5480   19.8118   20.7324 Cl  0  0  0  0  0  0
   25.4449   24.5106   11.4707 F   0  0  0  0  0  0
   25.4705   20.8794   14.1282 H   0  0  0  0  0  0
   25.0275   21.9906   11.9655 H   0  0  0  0  0  0
   26.3960   25.7290   13.5645 H   0  0  0  0  0  0
   26.8408   24.6476   15.7512 H   0  0  0  0  0  0
   23.8295   19.7351   18.4917 H   0  0  0  0  0  0
   21.3860   19.5721   18.2751 H   0  0  0  0  0  0
   21.4108   22.8602   15.4722 H   0  0  0  0  0  0
   23.8551   23.0332   15.6943 H   0  0  0  0  0  0
   18.8897   20.3551   14.6233 H   0  0  0  0  0  0
   18.8663   19.1051   15.7612 H   0  0  0  0  0  0
   30.2282   22.2648   17.4168 H   0  0  0  0  0  0
   32.3132   21.9861   18.7101 H   0  0  0  0  0  0
   32.2845   20.7788   20.8796 H   0  0  0  0  0  0
   30.1703   19.8392   21.7465 H   0  0  0  0  0  0
  1  2  2  0  0  0
  1  5  1  0  0  0
  1  7  1  0  0  0
  2  3  1  0  0  0
  2  6  1  0  0  0
  3  4  2  0  0  0
  4  5  1  0  0  0
  4 22  1  0  0  0
  6  8  2  0  0  0
  6 12  1  0  0  0
  7 13  2  0  0  0
  7 17  1  0  0  0
  8  9  1  0  0  0
  8 30  1  0  0  0
  9 10  2  0  0  0
  9 31  1  0  0  0
 10 11  1  0  0  0
 10 29  1  0  0  0
 11 12  2  0  0  0
 11 32  1  0  0  0
 12 33  1  0  0  0
 13 14  1  0  0  0
 13 34  1  0  0  0
 14 15  2  0  0  0
 14 35  1  0  0  0
 15 16  1  0  0  0
 15 18  1  0  0  0
 16 17  2  0  0  0
 16 36  1  0  0  0
 17 37  1  0  0  0
 18 19  2  0  0  0
 18 20  2  0  0  0
 18 21  1  0  0  0
 21 38  1  0  0  0
 21 39  1  0  0  0
 22 23  2  0  0  0
 22 27  1  0  0  0
 23 24  1  0  0  0
 23 40  1  0  0  0
 24 25  2  0  0  0
 24 41  1  0  0  0
 25 26  1  0  0  0
 25 42  1  0  0  0
 26 27  2  0  0  0
 26 43  1  0  0  0
 27 28  1  0  0  0
M  END
>  <Name>
12-3a

>  <Family>
J.1

>  <IC50_uM>
0.013000

>  <set>
2

$$$$
12-3b
  Cerius2 12120216103D 1   1.00000                          
 Structure written by MMmdl.
 47 50  0  0  0  0  0  0  0  0999 V2000
   25.4762   21.5020   17.2304 C   0  0  0  0  0  0
   26.4316   22.0815   16.4044 C   0  0  0  0  0  0
   27.7288   22.0667   16.8997 N   0  0  0  0  0  0
   27.7615   21.4364   18.0489 C   0  0  0  0  0  0
   26.2584   20.8746   18.6329 S   0  0  0  0  0  0
   26.1683   22.6955   15.1084 C   0  0  0  0  0  0
   24.0202   21.3951   17.1130 C   0  0  0  0  0  0
   25.6899   21.9441   14.0240 C   0  0  0  0  0  0
   25.4622   22.5545   12.7879 C   0  0  0  0  0  0
   25.7234   23.9104   12.6330 C   0  0  0  0  0  0
   26.2116   24.6692   13.6895 C   0  0  0  0  0  0
   26.4382   24.0609   14.9265 C   0  0  0  0  0  0
   23.3076   20.4217   17.8310 C   0  0  0  0  0  0
   21.9185   20.3172   17.7045 C   0  0  0  0  0  0
   21.2350   21.1860   16.8510 C   0  0  0  0  0  0
   21.9286   22.1645   16.1343 C   0  0  0  0  0  0
   23.3171   22.2643   16.2647 C   0  0  0  0  0  0
   19.4712   21.0871   16.7057 S   0  0  0  0  0  0
   18.9402   22.4193   16.4781 O   0  0  0  0  0  0
   18.9439   20.2564   17.7741 O   0  0  0  0  0  0
   19.2827   20.2251   15.2820 N   0  0  0  0  0  0
   25.5084   24.4927   11.4459 F   0  0  0  0  0  0
   28.8776   21.2324   18.7506 O   0  0  0  0  0  0
   30.0867   21.7048   18.1529 C   0  0  0  0  0  0
   30.6645   20.6775   17.2070 C   0  0  0  0  0  0
   31.1855   19.4714   17.6985 C   0  0  0  0  0  0
   31.7058   18.5207   16.8186 C   0  0  0  0  0  0
   31.7126   18.7512   15.4452 C   0  0  0  0  0  0
   31.1893   19.9442   14.9541 C   0  0  0  0  0  0
   30.6680   20.9039   15.8229 C   0  0  0  0  0  0
   31.1810   20.2384   13.2571 Cl  0  0  0  0  0  0
   32.3442   17.0462   17.4389 Cl  0  0  0  0  0  0
   25.5009   20.8769   14.1224 H   0  0  0  0  0  0
   25.0890   21.9747   11.9484 H   0  0  0  0  0  0
   26.4168   25.7267   13.5498 H   0  0  0  0  0  0
   26.8249   24.6602   15.7495 H   0  0  0  0  0  0
   23.8275   19.7280   18.4905 H   0  0  0  0  0  0
   21.3864   19.5548   18.2692 H   0  0  0  0  0  0
   21.4004   22.8473   15.4720 H   0  0  0  0  0  0
   23.8443   23.0318   15.6992 H   0  0  0  0  0  0
   18.7944   20.7814   14.5755 H   0  0  0  0  0  0
   18.8064   19.3351   15.4502 H   0  0  0  0  0  0
   30.8067   21.8649   18.9652 H   0  0  0  0  0  0
   29.9601   22.6871   17.6786 H   0  0  0  0  0  0
   31.1823   19.2760   18.7696 H   0  0  0  0  0  0
   32.1186   18.0079   14.7650 H   0  0  0  0  0  0
   30.2544   21.8285   15.4229 H   0  0  0  0  0  0
  1  2  2  0  0  0
  1  5  1  0  0  0
  1  7  1  0  0  0
  2  3  1  0  0  0
  2  6  1  0  0  0
  3  4  2  0  0  0
  4  5  1  0  0  0
  4 23  1  0  0  0
  6  8  2  0  0  0
  6 12  1  0  0  0
  7 13  2  0  0  0
  7 17  1  0  0  0
  8  9  1  0  0  0
  8 33  1  0  0  0
  9 10  2  0  0  0
  9 34  1  0  0  0
 10 11  1  0  0  0
 10 22  1  0  0  0
 11 12  2  0  0  0
 11 35  1  0  0  0
 12 36  1  0  0  0
 13 14  1  0  0  0
 13 37  1  0  0  0
 14 15  2  0  0  0
 14 38  1  0  0  0
 15 16  1  0  0  0
 15 18  1  0  0  0
 16 17  2  0  0  0
 16 39  1  0  0  0
 17 40  1  0  0  0
 18 19  2  0  0  0
 18 20  2  0  0  0
 18 21  1  0  0  0
 21 41  1  0  0  0
 21 42  1  0  0  0
 23 24  1  0  0  0
 24 25  1  0  0  0
 24 43  1  0  0  0
 24 44  1  0  0  0
 25 26  2  0  0  0
 25 30  1  0  0  0
 26 27  1  0  0  0
 26 45  1  0  0  0
 27 28  2  0  0  0
 27 32  1  0  0  0
 28 29  1  0  0  0
 28 46  1  0  0  0
 29 30  2  0  0  0
 29 31  1  0  0  0
 30 47  1  0  0  0
M  END
>  <Name>
12-3b

>  <Family>
J.1

>  <IC50_uM>
0.009000

>  <set>
2

$$$$
12-5a
  Cerius2 12120216103D 1   1.00000                          
 Structure written by MMmdl.
 36 38  0  0  0  0  0  0  0  0999 V2000
   25.4815   21.5028   17.2316 C   0  0  0  0  0  0
   26.4395   22.0724   16.4018 C   0  0  0  0  0  0
   27.7409   22.0470   16.8938 N   0  0  0  0  0  0
   27.7697   21.4409   18.0612 C   0  0  0  0  0  0
   26.2552   20.8875   18.6429 S   0  0  0  0  0  0
   26.1685   22.6905   15.1087 C   0  0  0  0  0  0
   24.0246   21.4002   17.1135 C   0  0  0  0  0  0
   25.6681   21.9478   14.0302 C   0  0  0  0  0  0
   25.4208   22.5645   12.8009 C   0  0  0  0  0  0
   25.6792   23.9243   12.6362 C   0  0  0  0  0  0
   26.1910   24.6689   13.6972 C   0  0  0  0  0  0
   26.4391   24.0541   14.9268 C   0  0  0  0  0  0
   23.3098   20.4295   17.8330 C   0  0  0  0  0  0
   21.9201   20.3307   17.7101 C   0  0  0  0  0  0
   21.2367   21.2102   16.8674 C   0  0  0  0  0  0
   21.9342   22.1758   16.1371 C   0  0  0  0  0  0
   23.3234   22.2702   16.2645 C   0  0  0  0  0  0
   19.4796   21.0741   16.6799 S   0  0  0  0  0  0
   18.9495   22.3281   16.1742 O   0  0  0  0  0  0
   18.9198   20.4665   17.8742 O   0  0  0  0  0  0
   19.3455   19.9529   15.4427 N   0  0  0  0  0  0
   29.0001   21.2246   18.8714 C   0  0  0  0  0  0
   25.4729   20.8815   14.1292 H   0  0  0  0  0  0
   25.0289   21.9807   11.9699 H   0  0  0  0  0  0
   25.4863   24.4033   11.6778 H   0  0  0  0  0  0
   26.3988   25.7296   13.5682 H   0  0  0  0  0  0
   26.8410   24.6485   15.7464 H   0  0  0  0  0  0
   23.8293   19.7333   18.4901 H   0  0  0  0  0  0
   21.3862   19.5699   18.2753 H   0  0  0  0  0  0
   21.4082   22.8593   15.4741 H   0  0  0  0  0  0
   23.8531   23.0328   15.6949 H   0  0  0  0  0  0
   18.8877   20.3609   14.6234 H   0  0  0  0  0  0
   18.8609   19.1095   15.7599 H   0  0  0  0  0  0
   28.9178   21.7201   19.8440 H   0  0  0  0  0  0
   29.8735   21.6371   18.3563 H   0  0  0  0  0  0
   29.1774   20.1565   19.0329 H   0  0  0  0  0  0
  1  2  2  0  0  0
  1  5  1  0  0  0
  1  7  1  0  0  0
  2  3  1  0  0  0
  2  6  1  0  0  0
  3  4  2  0  0  0
  4  5  1  0  0  0
  4 22  1  0  0  0
  6  8  2  0  0  0
  6 12  1  0  0  0
  7 13  2  0  0  0
  7 17  1  0  0  0
  8  9  1  0  0  0
  8 23  1  0  0  0
  9 10  2  0  0  0
  9 24  1  0  0  0
 10 11  1  0  0  0
 10 25  1  0  0  0
 11 12  2  0  0  0
 11 26  1  0  0  0
 12 27  1  0  0  0
 13 14  1  0  0  0
 13 28  1  0  0  0
 14 15  2  0  0  0
 14 29  1  0  0  0
 15 16  1  0  0  0
 15 18  1  0  0  0
 16 17  2  0  0  0
 16 30  1  0  0  0
 17 31  1  0  0  0
 18 19  2  0  0  0
 18 20  2  0  0  0
 18 21  1  0  0  0
 21 32  1  0  0  0
 21 33  1  0  0  0
 22 34  1  0  0  0
 22 35  1  0  0  0
 22 36  1  0  0  0
M  END
>  <Name>
12-5a

>  <Family>
J.1

>  <IC50_uM>
0.038000

>  <set>
0

$$$$
12-5b
  Cerius2 12120216103D 1   1.00000                          
 Structure written by MMmdl.
 36 38  0  0  0  0  0  0  0  0999 V2000
   25.4818   21.5035   17.2328 C   0  0  0  0  0  0
   26.4393   22.0722   16.4022 C   0  0  0  0  0  0
   27.7412   22.0448   16.8913 N   0  0  0  0  0  0
   27.7712   21.4379   18.0584 C   0  0  0  0  0  0
   26.2566   20.8875   18.6429 S   0  0  0  0  0  0
   26.1671   22.6902   15.1097 C   0  0  0  0  0  0
   24.0250   21.4018   17.1150 C   0  0  0  0  0  0
   25.6666   21.9464   14.0315 C   0  0  0  0  0  0
   25.4191   22.5620   12.8004 C   0  0  0  0  0  0
   25.6795   23.9213   12.6394 C   0  0  0  0  0  0
   26.1899   24.6700   13.6975 C   0  0  0  0  0  0
   26.4371   24.0543   14.9283 C   0  0  0  0  0  0
   23.3100   20.4313   17.8342 C   0  0  0  0  0  0
   21.9204   20.3319   17.7102 C   0  0  0  0  0  0
   21.2372   21.2107   16.8666 C   0  0  0  0  0  0
   21.9352   22.1763   16.1366 C   0  0  0  0  0  0
   23.3243   22.2712   16.2649 C   0  0  0  0  0  0
   19.4804   21.0730   16.6771 S   0  0  0  0  0  0
   18.9502   22.3264   16.1700 O   0  0  0  0  0  0
   18.9197   20.4660   17.8713 O   0  0  0  0  0  0
   19.3482   19.9511   15.4406 N   0  0  0  0  0  0
   29.0029   21.2179   18.8654 C   0  0  0  0  0  0
   25.3753   24.6776   11.1236 Cl  0  0  0  0  0  0
   25.4718   20.8801   14.1311 H   0  0  0  0  0  0
   25.0280   21.9715   11.9751 H   0  0  0  0  0  0
   26.4000   25.7300   13.5763 H   0  0  0  0  0  0
   26.8384   24.6489   15.7480 H   0  0  0  0  0  0
   23.8292   19.7352   18.4920 H   0  0  0  0  0  0
   21.3863   19.5712   18.2752 H   0  0  0  0  0  0
   21.4094   22.8597   15.4730 H   0  0  0  0  0  0
   23.8540   23.0341   15.6957 H   0  0  0  0  0  0
   18.8904   20.3582   14.6208 H   0  0  0  0  0  0
   18.8636   19.1074   15.7579 H   0  0  0  0  0  0
   28.9256   21.7157   19.8372 H   0  0  0  0  0  0
   29.8767   21.6252   18.3467 H   0  0  0  0  0  0
   29.1760   20.1494   19.0286 H   0  0  0  0  0  0
  1  2  2  0  0  0
  1  5  1  0  0  0
  1  7  1  0  0  0
  2  3  1  0  0  0
  2  6  1  0  0  0
  3  4  2  0  0  0
  4  5  1  0  0  0
  4 22  1  0  0  0
  6  8  2  0  0  0
  6 12  1  0  0  0
  7 13  2  0  0  0
  7 17  1  0  0  0
  8  9  1  0  0  0
  8 24  1  0  0  0
  9 10  2  0  0  0
  9 25  1  0  0  0
 10 11  1  0  0  0
 10 23  1  0  0  0
 11 12  2  0  0  0
 11 26  1  0  0  0
 12 27  1  0  0  0
 13 14  1  0  0  0
 13 28  1  0  0  0
 14 15  2  0  0  0
 14 29  1  0  0  0
 15 16  1  0  0  0
 15 18  1  0  0  0
 16 17  2  0  0  0
 16 30  1  0  0  0
 17 31  1  0  0  0
 18 19  2  0  0  0
 18 20  2  0  0  0
 18 21  1  0  0  0
 21 32  1  0  0  0
 21 33  1  0  0  0
 22 34  1  0  0  0
 22 35  1  0  0  0
 22 36  1  0  0  0
M  END
>  <Name>
12-5b

>  <Family>
J.1

>  <IC50_uM>
0.005000

>  <set>
1

$$$$
12-7a
  Cerius2 12120216103D 1   1.00000                          
 Structure written by MMmdl.
 36 38  0  0  0  0  0  0  0  0999 V2000
   26.3610   22.0945   16.4101 C   0  0  0  0  0  0
   25.4883   21.4975   17.3114 C   0  0  0  0  0  0
   26.0880   20.9379   18.4352 N   0  0  0  0  0  0
   27.3883   21.1364   18.3980 C   0  0  0  0  0  0
   27.9669   21.9803   17.0227 S   0  0  0  0  0  0
   24.0422   21.4061   17.1435 C   0  0  0  0  0  0
   26.1380   22.7129   15.1012 C   0  0  0  0  0  0
   23.3454   22.2790   16.2945 C   0  0  0  0  0  0
   21.9581   22.1733   16.1520 C   0  0  0  0  0  0
   21.2592   21.2008   16.8729 C   0  0  0  0  0  0
   21.9381   20.3297   17.7279 C   0  0  0  0  0  0
   23.3256   20.4398   17.8659 C   0  0  0  0  0  0
   26.3840   24.0788   14.8976 C   0  0  0  0  0  0
   26.1576   24.6636   13.6480 C   0  0  0  0  0  0
   25.6831   23.8843   12.5953 C   0  0  0  0  0  0
   25.4333   22.5264   12.7801 C   0  0  0  0  0  0
   25.6601   21.9433   14.0303 C   0  0  0  0  0  0
   25.3756   24.6745   10.9057 Br  0  0  0  0  0  0
   28.3437   20.6795   19.4445 C   0  0  0  0  0  0
   19.5050   21.0585   16.6645 S   0  0  0  0  0  0
   18.9746   22.3107   16.1546 O   0  0  0  0  0  0
   18.9368   20.4461   17.8520 O   0  0  0  0  0  0
   19.3882   19.9412   15.4221 N   0  0  0  0  0  0
   23.8697   23.0560   15.7409 H   0  0  0  0  0  0
   21.4325   22.8558   15.4872 H   0  0  0  0  0  0
   21.4036   19.5691   18.2924 H   0  0  0  0  0  0
   23.8471   19.7602   18.5392 H   0  0  0  0  0  0
   26.7463   24.7046   15.7121 H   0  0  0  0  0  0
   26.3530   25.7251   13.5126 H   0  0  0  0  0  0
   25.0633   21.9105   11.9635 H   0  0  0  0  0  0
   25.4626   20.8798   14.1578 H   0  0  0  0  0  0
   29.0782   19.9852   19.0241 H   0  0  0  0  0  0
   27.8105   20.1608   20.2477 H   0  0  0  0  0  0
   28.8737   21.5295   19.8859 H   0  0  0  0  0  0
   18.9395   20.3512   14.5988 H   0  0  0  0  0  0
   18.9011   19.0956   15.7302 H   0  0  0  0  0  0
  1  2  2  0  0  0
  1  5  1  0  0  0
  1  7  1  0  0  0
  2  3  1  0  0  0
  2  6  1  0  0  0
  3  4  2  0  0  0
  4  5  1  0  0  0
  4 19  1  0  0  0
  6  8  2  0  0  0
  6 12  1  0  0  0
  7 13  2  0  0  0
  7 17  1  0  0  0
  8  9  1  0  0  0
  8 24  1  0  0  0
  9 10  2  0  0  0
  9 25  1  0  0  0
 10 11  1  0  0  0
 10 20  1  0  0  0
 11 12  2  0  0  0
 11 26  1  0  0  0
 12 27  1  0  0  0
 13 14  1  0  0  0
 13 28  1  0  0  0
 14 15  2  0  0  0
 14 29  1  0  0  0
 15 16  1  0  0  0
 15 18  1  0  0  0
 16 17  2  0  0  0
 16 30  1  0  0  0
 17 31  1  0  0  0
 19 32  1  0  0  0
 19 33  1  0  0  0
 19 34  1  0  0  0
 20 21  2  0  0  0
 20 22  2  0  0  0
 20 23  1  0  0  0
 23 35  1  0  0  0
 23 36  1  0  0  0
M  END
>  <Name>
12-7a

>  <Family>
J.1

>  <IC50_uM>
0.024000

>  <set>
0

$$$$
12-7b
  Cerius2 12120216103D 1   1.00000                          
 Structure written by MMmdl.
 36 38  0  0  0  0  0  0  0  0999 V2000
   26.3609   22.0946   16.4099 C   0  0  0  0  0  0
   25.4880   21.4975   17.3112 C   0  0  0  0  0  0
   26.0871   20.9383   18.4357 N   0  0  0  0  0  0
   27.3874   21.1368   18.3992 C   0  0  0  0  0  0
   27.9669   21.9793   17.0235 S   0  0  0  0  0  0
   24.0419   21.4057   17.1433 C   0  0  0  0  0  0
   26.1384   22.7136   15.1006 C   0  0  0  0  0  0
   23.3449   22.2787   16.2945 C   0  0  0  0  0  0
   21.9576   22.1732   16.1527 C   0  0  0  0  0  0
   21.2588   21.2007   16.8739 C   0  0  0  0  0  0
   21.9381   20.3295   17.7284 C   0  0  0  0  0  0
   23.3256   20.4393   17.8659 C   0  0  0  0  0  0
   26.3840   24.0794   14.8968 C   0  0  0  0  0  0
   26.1582   24.6626   13.6474 C   0  0  0  0  0  0
   25.6844   23.8877   12.5906 C   0  0  0  0  0  0
   25.4359   22.5298   12.7804 C   0  0  0  0  0  0
   25.6613   21.9452   14.0289 C   0  0  0  0  0  0
   28.3419   20.6814   19.4474 C   0  0  0  0  0  0
   19.5048   21.0581   16.6651 S   0  0  0  0  0  0
   18.9743   22.3099   16.1544 O   0  0  0  0  0  0
   18.9366   20.4464   17.8531 O   0  0  0  0  0  0
   19.3880   19.9403   15.4229 N   0  0  0  0  0  0
   23.8696   23.0547   15.7398 H   0  0  0  0  0  0
   21.4317   22.8551   15.4875 H   0  0  0  0  0  0
   21.4037   19.5687   18.2929 H   0  0  0  0  0  0
   23.8473   19.7592   18.5383 H   0  0  0  0  0  0
   26.7451   24.7057   15.7114 H   0  0  0  0  0  0
   26.3502   25.7241   13.5008 H   0  0  0  0  0  0
   25.5077   24.3430   11.6176 H   0  0  0  0  0  0
   25.0656   21.9234   11.9557 H   0  0  0  0  0  0
   25.4633   20.8816   14.1555 H   0  0  0  0  0  0
   29.0840   19.9954   19.0271 H   0  0  0  0  0  0
   27.8092   20.1539   20.2452 H   0  0  0  0  0  0
   28.8624   21.5334   19.8958 H   0  0  0  0  0  0
   18.9371   20.3494   14.6005 H   0  0  0  0  0  0
   18.9025   19.0943   15.7325 H   0  0  0  0  0  0
  1  2  2  0  0  0
  1  5  1  0  0  0
  1  7  1  0  0  0
  2  3  1  0  0  0
  2  6  1  0  0  0
  3  4  2  0  0  0
  4  5  1  0  0  0
  4 18  1  0  0  0
  6  8  2  0  0  0
  6 12  1  0  0  0
  7 13  2  0  0  0
  7 17  1  0  0  0
  8  9  1  0  0  0
  8 23  1  0  0  0
  9 10  2  0  0  0
  9 24  1  0  0  0
 10 11  1  0  0  0
 10 19  1  0  0  0
 11 12  2  0  0  0
 11 25  1  0  0  0
 12 26  1  0  0  0
 13 14  1  0  0  0
 13 27  1  0  0  0
 14 15  2  0  0  0
 14 28  1  0  0  0
 15 16  1  0  0  0
 15 29  1  0  0  0
 16 17  2  0  0  0
 16 30  1  0  0  0
 17 31  1  0  0  0
 18 32  1  0  0  0
 18 33  1  0  0  0
 18 34  1  0  0  0
 19 20  2  0  0  0
 19 21  2  0  0  0
 19 22  1  0  0  0
 22 35  1  0  0  0
 22 36  1  0  0  0
M  END
>  <Name>
12-7b

>  <Family>
J.1

>  <IC50_uM>
0.029000

>  <set>
0

$$$$
12-7c
  Cerius2 12120216103D 1   1.00000                          
 Structure written by MMmdl.
 36 38  0  0  0  0  0  0  0  0999 V2000
   26.3615   22.0940   16.4103 C   0  0  0  0  0  0
   25.4889   21.4975   17.3121 C   0  0  0  0  0  0
   26.0882   20.9384   18.4361 N   0  0  0  0  0  0
   27.3885   21.1365   18.3989 C   0  0  0  0  0  0
   27.9675   21.9785   17.0224 S   0  0  0  0  0  0
   24.0427   21.4065   17.1441 C   0  0  0  0  0  0
   26.1376   22.7128   15.1015 C   0  0  0  0  0  0
   23.3466   22.2796   16.2948 C   0  0  0  0  0  0
   21.9594   22.1739   16.1516 C   0  0  0  0  0  0
   21.2601   21.2016   16.8724 C   0  0  0  0  0  0
   21.9385   20.3305   17.7277 C   0  0  0  0  0  0
   23.3260   20.4402   17.8661 C   0  0  0  0  0  0
   26.3835   24.0790   14.8974 C   0  0  0  0  0  0
   26.1549   24.6635   13.6479 C   0  0  0  0  0  0
   25.6785   23.8852   12.5953 C   0  0  0  0  0  0
   25.4289   22.5276   12.7815 C   0  0  0  0  0  0
   25.6578   21.9435   14.0309 C   0  0  0  0  0  0
   28.3434   20.6811   19.4467 C   0  0  0  0  0  0
   19.5062   21.0585   16.6621 S   0  0  0  0  0  0
   18.9759   22.3103   16.1513 O   0  0  0  0  0  0
   18.9373   20.4467   17.8499 O   0  0  0  0  0  0
   19.3905   19.9405   15.4203 N   0  0  0  0  0  0
   25.3962   24.6047   11.0576 Cl  0  0  0  0  0  0
   23.8714   23.0564   15.7412 H   0  0  0  0  0  0
   21.4341   22.8561   15.4862 H   0  0  0  0  0  0
   21.4035   19.5701   18.2921 H   0  0  0  0  0  0
   23.8471   19.7602   18.5392 H   0  0  0  0  0  0
   26.7468   24.7049   15.7113 H   0  0  0  0  0  0
   26.3493   25.7244   13.5088 H   0  0  0  0  0  0
   25.0571   21.9150   11.9636 H   0  0  0  0  0  0
   25.4602   20.8801   14.1583 H   0  0  0  0  0  0
   29.0831   19.9921   19.0266 H   0  0  0  0  0  0
   27.8106   20.1566   20.2465 H   0  0  0  0  0  0
   28.8672   21.5325   19.8925 H   0  0  0  0  0  0
   18.9409   20.3495   14.5969 H   0  0  0  0  0  0
   18.9044   19.0946   15.7291 H   0  0  0  0  0  0
  1  2  2  0  0  0
  1  5  1  0  0  0
  1  7  1  0  0  0
  2  3  1  0  0  0
  2  6  1  0  0  0
  3  4  2  0  0  0
  4  5  1  0  0  0
  4 18  1  0  0  0
  6  8  2  0  0  0
  6 12  1  0  0  0
  7 13  2  0  0  0
  7 17  1  0  0  0
  8  9  1  0  0  0
  8 24  1  0  0  0
  9 10  2  0  0  0
  9 25  1  0  0  0
 10 11  1  0  0  0
 10 19  1  0  0  0
 11 12  2  0  0  0
 11 26  1  0  0  0
 12 27  1  0  0  0
 13 14  1  0  0  0
 13 28  1  0  0  0
 14 15  2  0  0  0
 14 29  1  0  0  0
 15 16  1  0  0  0
 15 23  1  0  0  0
 16 17  2  0  0  0
 16 30  1  0  0  0
 17 31  1  0  0  0
 18 32  1  0  0  0
 18 33  1  0  0  0
 18 34  1  0  0  0
 19 20  2  0  0  0
 19 21  2  0  0  0
 19 22  1  0  0  0
 22 35  1  0  0  0
 22 36  1  0  0  0
M  END
>  <Name>
12-7c

>  <Family>
J.1

>  <IC50_uM>
0.018000

>  <set>
0

$$$$
12-10a
  Cerius2 12120216103D 1   1.00000                          
 Structure written by MMmdl.
 52 55  0  0  0  0  0  0  0  0999 V2000
   25.4730   21.5009   17.2247 C   0  0  0  0  0  0
   26.4286   22.0807   16.4025 C   0  0  0  0  0  0
   27.7237   22.0691   16.9052 N   0  0  0  0  0  0
   27.7684   21.4508   18.0607 C   0  0  0  0  0  0
   26.2499   20.8860   18.6326 S   0  0  0  0  0  0
   26.1716   22.6964   15.1057 C   0  0  0  0  0  0
   24.0179   21.3875   17.1054 C   0  0  0  0  0  0
   25.7054   21.9542   14.0138 C   0  0  0  0  0  0
   25.4923   22.5717   12.7753 C   0  0  0  0  0  0
   25.7535   23.9337   12.5992 C   0  0  0  0  0  0
   26.2269   24.6656   13.6905 C   0  0  0  0  0  0
   26.4386   24.0587   14.9289 C   0  0  0  0  0  0
   23.3085   20.4119   17.8236 C   0  0  0  0  0  0
   21.9184   20.3088   17.7040 C   0  0  0  0  0  0
   21.2309   21.1807   16.8569 C   0  0  0  0  0  0
   21.9224   22.1587   16.1372 C   0  0  0  0  0  0
   23.3117   22.2576   16.2607 C   0  0  0  0  0  0
   26.4953   25.9758   13.5909 F   0  0  0  0  0  0
   19.4655   21.0895   16.7251 S   0  0  0  0  0  0
   18.9573   22.3790   16.2907 O   0  0  0  0  0  0
   18.9244   20.4450   17.9084 O   0  0  0  0  0  0
   19.2621   20.0184   15.4536 N   0  0  0  0  0  0
   28.8792   21.2509   18.7920 N   0  0  0  0  0  0
   30.1938   21.6264   18.3229 C   0  0  0  0  0  0
   25.5065   24.3944   11.3344 O   0  0  0  0  0  0
   25.8209   25.7587   11.0655 C   0  0  0  0  0  0
   30.8459   20.4748   17.5923 C   0  0  0  0  0  0
   31.4968   19.4548   18.3029 C   0  0  0  0  0  0
   32.0906   18.3874   17.6261 C   0  0  0  0  0  0
   32.0358   18.3251   16.2345 C   0  0  0  0  0  0
   31.3827   19.3263   15.5178 C   0  0  0  0  0  0
   30.7879   20.3940   16.1927 C   0  0  0  0  0  0
   25.5148   20.8862   14.1026 H   0  0  0  0  0  0
   25.1272   21.9748   11.9408 H   0  0  0  0  0  0
   26.8136   24.6624   15.7519 H   0  0  0  0  0  0
   23.8317   19.7180   18.4804 H   0  0  0  0  0  0
   21.3888   19.5465   18.2710 H   0  0  0  0  0  0
   21.3909   22.8442   15.4802 H   0  0  0  0  0  0
   23.8371   23.0263   15.6957 H   0  0  0  0  0  0
   18.7909   20.4662   14.6633 H   0  0  0  0  0  0
   18.7639   19.1779   15.7571 H   0  0  0  0  0  0
   28.8398   20.7388   19.6697 H   0  0  0  0  0  0
   30.8162   21.8948   19.1856 H   0  0  0  0  0  0
   30.1682   22.5239   17.6916 H   0  0  0  0  0  0
   25.6029   25.9474   10.0098 H   0  0  0  0  0  0
   26.8861   25.9576   11.2244 H   0  0  0  0  0  0
   25.1922   26.4302   11.6587 H   0  0  0  0  0  0
   31.5432   19.4880   19.3907 H   0  0  0  0  0  0
   32.5945   17.6016   18.1861 H   0  0  0  0  0  0
   32.4989   17.4923   15.7085 H   0  0  0  0  0  0
   31.3327   19.2749   14.4315 H   0  0  0  0  0  0
   30.2717   21.1652   15.6217 H   0  0  0  0  0  0
  1  2  2  0  0  0
  1  5  1  0  0  0
  1  7  1  0  0  0
  2  3  1  0  0  0
  2  6  1  0  0  0
  3  4  2  0  0  0
  4  5  1  0  0  0
  4 23  1  0  0  0
  6  8  2  0  0  0
  6 12  1  0  0  0
  7 13  2  0  0  0
  7 17  1  0  0  0
  8  9  1  0  0  0
  8 33  1  0  0  0
  9 10  2  0  0  0
  9 34  1  0  0  0
 10 11  1  0  0  0
 10 25  1  0  0  0
 11 12  2  0  0  0
 11 18  1  0  0  0
 12 35  1  0  0  0
 13 14  1  0  0  0
 13 36  1  0  0  0
 14 15  2  0  0  0
 14 37  1  0  0  0
 15 16  1  0  0  0
 15 19  1  0  0  0
 16 17  2  0  0  0
 16 38  1  0  0  0
 17 39  1  0  0  0
 19 20  2  0  0  0
 19 21  2  0  0  0
 19 22  1  0  0  0
 22 40  1  0  0  0
 22 41  1  0  0  0
 23 24  1  0  0  0
 23 42  1  0  0  0
 24 27  1  0  0  0
 24 43  1  0  0  0
 24 44  1  0  0  0
 25 26  1  0  0  0
 26 45  1  0  0  0
 26 46  1  0  0  0
 26 47  1  0  0  0
 27 28  2  0  0  0
 27 32  1  0  0  0
 28 29  1  0  0  0
 28 48  1  0  0  0
 29 30  2  0  0  0
 29 49  1  0  0  0
 30 31  1  0  0  0
 30 50  1  0  0  0
 31 32  2  0  0  0
 31 51  1  0  0  0
 32 52  1  0  0  0
M  END
>  <Name>
12-10a

>  <Family>
J.1

>  <IC50_uM>
0.059000

>  <set>
1

$$$$
12-10b
  Cerius2 12120216103D 1   1.00000                          
 Structure written by MMmdl.
 47 50  0  0  0  0  0  0  0  0999 V2000
   25.4806   21.5011   17.2308 C   0  0  0  0  0  0
   26.4375   22.0699   16.3999 C   0  0  0  0  0  0
   27.7382   22.0482   16.8891 N   0  0  0  0  0  0
   27.7740   21.4207   18.0462 C   0  0  0  0  0  0
   26.2541   20.8921   18.6444 S   0  0  0  0  0  0
   26.1674   22.6905   15.1088 C   0  0  0  0  0  0
   24.0240   21.3999   17.1147 C   0  0  0  0  0  0
   25.6729   21.9535   14.0262 C   0  0  0  0  0  0
   25.4319   22.5761   12.7959 C   0  0  0  0  0  0
   25.6882   23.9392   12.6209 C   0  0  0  0  0  0
   26.1957   24.6646   13.7017 C   0  0  0  0  0  0
   26.4380   24.0515   14.9314 C   0  0  0  0  0  0
   23.3098   20.4294   17.8348 C   0  0  0  0  0  0
   21.9202   20.3299   17.7120 C   0  0  0  0  0  0
   21.2363   21.2087   16.8687 C   0  0  0  0  0  0
   21.9336   22.1743   16.1381 C   0  0  0  0  0  0
   23.3227   22.2694   16.2652 C   0  0  0  0  0  0
   26.4697   25.9732   13.5995 F   0  0  0  0  0  0
   19.4791   21.0735   16.6812 S   0  0  0  0  0  0
   18.9492   22.3275   16.1753 O   0  0  0  0  0  0
   18.9198   20.4665   17.8760 O   0  0  0  0  0  0
   19.3441   19.9527   15.4440 N   0  0  0  0  0  0
   28.9802   21.2277   18.8512 C   0  0  0  0  0  0
   25.4039   24.4068   11.3665 O   0  0  0  0  0  0
   25.6322   25.7922   11.1205 C   0  0  0  0  0  0
   30.1958   21.7436   18.3676 C   0  0  0  0  0  0
   31.3786   21.5888   19.0937 C   0  0  0  0  0  0
   31.3644   20.9099   20.3091 C   0  0  0  0  0  0
   30.1694   20.3802   20.7967 C   0  0  0  0  0  0
   28.9815   20.5330   20.0720 C   0  0  0  0  0  0
   27.5504   19.8134   20.7302 Cl  0  0  0  0  0  0
   25.4773   20.8863   14.1178 H   0  0  0  0  0  0
   25.0437   21.9842   11.9684 H   0  0  0  0  0  0
   26.8360   24.6498   15.7476 H   0  0  0  0  0  0
   23.8297   19.7335   18.4923 H   0  0  0  0  0  0
   21.3866   19.5692   18.2777 H   0  0  0  0  0  0
   21.4069   22.8577   15.4753 H   0  0  0  0  0  0
   23.8516   23.0326   15.6959 H   0  0  0  0  0  0
   18.8867   20.3610   14.6245 H   0  0  0  0  0  0
   18.8586   19.1095   15.7609 H   0  0  0  0  0  0
   25.3477   25.9956   10.0835 H   0  0  0  0  0  0
   26.6927   26.0414   11.2277 H   0  0  0  0  0  0
   25.0038   26.4155   11.7647 H   0  0  0  0  0  0
   30.2249   22.2747   17.4166 H   0  0  0  0  0  0
   32.3112   21.9979   18.7084 H   0  0  0  0  0  0
   32.2859   20.7869   20.8760 H   0  0  0  0  0  0
   30.1736   19.8429   21.7430 H   0  0  0  0  0  0
  1  2  2  0  0  0
  1  5  1  0  0  0
  1  7  1  0  0  0
  2  3  1  0  0  0
  2  6  1  0  0  0
  3  4  2  0  0  0
  4  5  1  0  0  0
  4 23  1  0  0  0
  6  8  2  0  0  0
  6 12  1  0  0  0
  7 13  2  0  0  0
  7 17  1  0  0  0
  8  9  1  0  0  0
  8 32  1  0  0  0
  9 10  2  0  0  0
  9 33  1  0  0  0
 10 11  1  0  0  0
 10 24  1  0  0  0
 11 12  2  0  0  0
 11 18  1  0  0  0
 12 34  1  0  0  0
 13 14  1  0  0  0
 13 35  1  0  0  0
 14 15  2  0  0  0
 14 36  1  0  0  0
 15 16  1  0  0  0
 15 19  1  0  0  0
 16 17  2  0  0  0
 16 37  1  0  0  0
 17 38  1  0  0  0
 19 20  2  0  0  0
 19 21  2  0  0  0
 19 22  1  0  0  0
 22 39  1  0  0  0
 22 40  1  0  0  0
 23 26  2  0  0  0
 23 30  1  0  0  0
 24 25  1  0  0  0
 25 41  1  0  0  0
 25 42  1  0  0  0
 25 43  1  0  0  0
 26 27  1  0  0  0
 26 44  1  0  0  0
 27 28  2  0  0  0
 27 45  1  0  0  0
 28 29  1  0  0  0
 28 46  1  0  0  0
 29 30  2  0  0  0
 29 47  1  0  0  0
 30 31  1  0  0  0
M  END
>  <Name>
12-10b

>  <Family>
J.1

>  <IC50_uM>
2.480000

>  <set>
1

$$$$
12-10c
  Cerius2 12120216103D 1   1.00000                          
 Structure written by MMmdl.
 40 42  0  0  0  0  0  0  0  0999 V2000
   25.4812   21.5033   17.2326 C   0  0  0  0  0  0
   26.4378   22.0725   16.4015 C   0  0  0  0  0  0
   27.7397   22.0474   16.8899 N   0  0  0  0  0  0
   27.7715   21.4392   18.0563 C   0  0  0  0  0  0
   26.2577   20.8868   18.6416 S   0  0  0  0  0  0
   26.1669   22.6911   15.1097 C   0  0  0  0  0  0
   24.0242   21.4016   17.1161 C   0  0  0  0  0  0
   25.6705   21.9522   14.0291 C   0  0  0  0  0  0
   25.4272   22.5727   12.7984 C   0  0  0  0  0  0
   25.6828   23.9356   12.6207 C   0  0  0  0  0  0
   26.1917   24.6629   13.6996 C   0  0  0  0  0  0
   26.4365   24.0519   14.9298 C   0  0  0  0  0  0
   23.3095   20.4309   17.8356 C   0  0  0  0  0  0
   21.9199   20.3308   17.7118 C   0  0  0  0  0  0
   21.2365   21.2088   16.8676 C   0  0  0  0  0  0
   21.9340   22.1750   16.1379 C   0  0  0  0  0  0
   23.3229   22.2709   16.2661 C   0  0  0  0  0  0
   26.4647   25.9717   13.5950 F   0  0  0  0  0  0
   19.4797   21.0740   16.6770 S   0  0  0  0  0  0
   18.9505   22.3278   16.1698 O   0  0  0  0  0  0
   18.9194   20.4673   17.8715 O   0  0  0  0  0  0
   19.3457   19.9536   15.4392 N   0  0  0  0  0  0
   29.0042   21.2205   18.8626 C   0  0  0  0  0  0
   25.3960   24.4010   11.3661 O   0  0  0  0  0  0
   25.6309   25.7844   11.1151 C   0  0  0  0  0  0
   25.4753   20.8851   14.1232 H   0  0  0  0  0  0
   25.0380   21.9792   11.9725 H   0  0  0  0  0  0
   26.8353   24.6515   15.7446 H   0  0  0  0  0  0
   23.8291   19.7353   18.4935 H   0  0  0  0  0  0
   21.3866   19.5697   18.2771 H   0  0  0  0  0  0
   21.4071   22.8579   15.4746 H   0  0  0  0  0  0
   23.8519   23.0344   15.6972 H   0  0  0  0  0  0
   18.8883   20.3623   14.6200 H   0  0  0  0  0  0
   18.8599   19.1102   15.7555 H   0  0  0  0  0  0
   28.9294   21.7240   19.8316 H   0  0  0  0  0  0
   29.8779   21.6230   18.3400 H   0  0  0  0  0  0
   29.1752   20.1526   19.0314 H   0  0  0  0  0  0
   25.3476   25.9856   10.0775 H   0  0  0  0  0  0
   26.6926   26.0289   11.2219 H   0  0  0  0  0  0
   25.0051   26.4127   11.7570 H   0  0  0  0  0  0
  1  2  2  0  0  0
  1  5  1  0  0  0
  1  7  1  0  0  0
  2  3  1  0  0  0
  2  6  1  0  0  0
  3  4  2  0  0  0
  4  5  1  0  0  0
  4 23  1  0  0  0
  6  8  2  0  0  0
  6 12  1  0  0  0
  7 13  2  0  0  0
  7 17  1  0  0  0
  8  9  1  0  0  0
  8 26  1  0  0  0
  9 10  2  0  0  0
  9 27  1  0  0  0
 10 11  1  0  0  0
 10 24  1  0  0  0
 11 12  2  0  0  0
 11 18  1  0  0  0
 12 28  1  0  0  0
 13 14  1  0  0  0
 13 29  1  0  0  0
 14 15  2  0  0  0
 14 30  1  0  0  0
 15 16  1  0  0  0
 15 19  1  0  0  0
 16 17  2  0  0  0
 16 31  1  0  0  0
 17 32  1  0  0  0
 19 20  2  0  0  0
 19 21  2  0  0  0
 19 22  1  0  0  0
 22 33  1  0  0  0
 22 34  1  0  0  0
 23 35  1  0  0  0
 23 36  1  0  0  0
 23 37  1  0  0  0
 24 25  1  0  0  0
 25 38  1  0  0  0
 25 39  1  0  0  0
 25 40  1  0  0  0
M  END
>  <Name>
12-10c

>  <Family>
J.1

>  <IC50_uM>
0.028000

>  <set>
2

$$$$
11-33
  Cerius2 12120216103D 1   1.00000                          
 Structure written by MMmdl.
 43 46  0  0  0  0  0  0  0  0999 V2000
   25.3989   22.0501   17.3997 C   0  0  0  0  0  0
   26.3096   21.6359   16.2210 C   0  0  0  0  0  0
   27.7177   21.4847   16.7003 N   0  0  0  0  0  0
   27.7111   21.2603   17.9748 C   0  0  0  0  0  0
   26.1847   21.2298   18.8189 S   0  0  0  0  0  0
   26.2829   22.6665   15.1131 C   0  0  0  0  0  0
   23.9317   21.6969   17.2537 C   0  0  0  0  0  0
   23.1248   22.4535   16.3859 C   0  0  0  0  0  0
   21.7716   22.1493   16.2154 C   0  0  0  0  0  0
   21.2096   21.0849   16.9220 C   0  0  0  0  0  0
   21.9929   20.3148   17.7829 C   0  0  0  0  0  0
   23.3461   20.6236   17.9486 C   0  0  0  0  0  0
   28.9286   21.0091   18.7468 C   0  0  0  0  0  0
   30.1486   21.0155   18.0584 C   0  0  0  0  0  0
   31.3365   20.7813   18.7514 C   0  0  0  0  0  0
   31.3072   20.5496   20.1267 C   0  0  0  0  0  0
   30.0908   20.5569   20.8146 C   0  0  0  0  0  0
   28.8962   20.7910   20.1280 C   0  0  0  0  0  0
   27.4280   20.8250   21.0383 Cl  0  0  0  0  0  0
   26.6000   24.0118   15.1723 C   0  0  0  0  0  0
   26.4338   24.6679   13.9191 C   0  0  0  0  0  0
   25.9947   23.8055   12.9402 C   0  0  0  0  0  0
   25.7873   22.2158   13.5323 S   0  0  0  0  0  0
   19.4924   20.6859   16.6903 S   0  0  0  0  0  0
   18.7893   21.9120   16.3252 O   0  0  0  0  0  0
   19.0410   19.9518   17.8684 O   0  0  0  0  0  0
   19.4993   19.5916   15.2952 C   0  0  0  0  0  0
   25.5006   23.1272   17.5866 H   0  0  0  0  0  0
   26.0174   20.6602   15.8091 H   0  0  0  0  0  0
   23.5471   23.2891   15.8275 H   0  0  0  0  0  0
   21.1704   22.7486   15.5346 H   0  0  0  0  0  0
   21.5652   19.4787   18.3323 H   0  0  0  0  0  0
   23.9372   20.0147   18.6322 H   0  0  0  0  0  0
   30.1774   21.1980   16.9858 H   0  0  0  0  0  0
   32.2864   20.7804   18.2192 H   0  0  0  0  0  0
   32.2349   20.3676   20.6670 H   0  0  0  0  0  0
   30.0863   20.3837   21.8889 H   0  0  0  0  0  0
   26.9375   24.5036   16.0789 H   0  0  0  0  0  0
   26.6268   25.7207   13.7440 H   0  0  0  0  0  0
   25.7861   24.0348   11.9027 H   0  0  0  0  0  0
   18.4671   19.3021   15.0866 H   0  0  0  0  0  0
   20.0909   18.7073   15.5389 H   0  0  0  0  0  0
   19.9194   20.1154   14.4345 H   0  0  0  0  0  0
  1  2  1  0  0  0
  1  5  1  0  0  0
  1  7  1  0  0  0
  1 28  1  0  0  0
  2  3  1  0  0  0
  2  6  1  0  0  0
  2 29  1  0  0  0
  3  4  2  0  0  0
  4  5  1  0  0  0
  4 13  1  0  0  0
  6 20  2  0  0  0
  6 23  1  0  0  0
  7  8  2  0  0  0
  7 12  1  0  0  0
  8  9  1  0  0  0
  8 30  1  0  0  0
  9 10  2  0  0  0
  9 31  1  0  0  0
 10 11  1  0  0  0
 10 24  1  0  0  0
 11 12  2  0  0  0
 11 32  1  0  0  0
 12 33  1  0  0  0
 13 14  2  0  0  0
 13 18  1  0  0  0
 14 15  1  0  0  0
 14 34  1  0  0  0
 15 16  2  0  0  0
 15 35  1  0  0  0
 16 17  1  0  0  0
 16 36  1  0  0  0
 17 18  2  0  0  0
 17 37  1  0  0  0
 18 19  1  0  0  0
 20 21  1  0  0  0
 20 38  1  0  0  0
 21 22  2  0  0  0
 21 39  1  0  0  0
 22 23  1  0  0  0
 22 40  1  0  0  0
 24 25  2  0  0  0
 24 26  2  0  0  0
 24 27  1  0  0  0
 27 41  1  0  0  0
 27 42  1  0  0  0
 27 43  1  0  0  0
M  END
>  <Name>
11-33

>  <Family>
J.2

>  <IC50_uM>
0.057000

>  <set>
1

$$$$
11-34
  Cerius2 12120216103D 1   1.00000                          
 Structure written by MMmdl.
 43 46  0  0  0  0  0  0  0  0999 V2000
   25.3942   22.0546   17.3655 C   0  0  0  0  0  0
   26.2947   21.6176   16.1878 C   0  0  0  0  0  0
   27.7062   21.4760   16.6548 N   0  0  0  0  0  0
   27.7104   21.2724   17.9330 C   0  0  0  0  0  0
   26.1909   21.2591   18.7915 S   0  0  0  0  0  0
   26.2534   22.6038   15.0394 C   0  0  0  0  0  0
   23.9263   21.6994   17.2313 C   0  0  0  0  0  0
   23.1117   22.4525   16.3677 C   0  0  0  0  0  0
   21.7572   22.1465   16.2094 C   0  0  0  0  0  0
   21.2021   21.0836   16.9235 C   0  0  0  0  0  0
   21.9932   20.3163   17.7795 C   0  0  0  0  0  0
   23.3475   20.6269   17.9331 C   0  0  0  0  0  0
   28.9333   21.0310   18.6994 C   0  0  0  0  0  0
   30.1490   21.0345   18.0033 C   0  0  0  0  0  0
   31.3417   20.8075   18.6905 C   0  0  0  0  0  0
   31.3213   20.5855   20.0676 C   0  0  0  0  0  0
   30.1092   20.5956   20.7630 C   0  0  0  0  0  0
   28.9098   20.8221   20.0820 C   0  0  0  0  0  0
   27.4469   20.8574   21.0009 Cl  0  0  0  0  0  0
   26.5748   24.0021   15.1301 C   0  0  0  0  0  0
   26.4306   24.6624   13.9303 C   0  0  0  0  0  0
   25.9074   23.6171   12.6856 S   0  0  0  0  0  0
   25.8738   22.2783   13.7482 C   0  0  0  0  0  0
   19.4828   20.6835   16.7090 S   0  0  0  0  0  0
   18.7758   21.9084   16.3472 O   0  0  0  0  0  0
   19.0424   19.9524   17.8931 O   0  0  0  0  0  0
   19.4771   19.5860   15.3165 C   0  0  0  0  0  0
   25.4980   23.1349   17.5298 H   0  0  0  0  0  0
   25.9958   20.6340   15.7990 H   0  0  0  0  0  0
   23.5286   23.2870   15.8037 H   0  0  0  0  0  0
   21.1500   22.7438   15.5323 H   0  0  0  0  0  0
   21.5712   19.4813   18.3348 H   0  0  0  0  0  0
   23.9449   20.0205   18.6135 H   0  0  0  0  0  0
   30.1708   21.2091   16.9294 H   0  0  0  0  0  0
   32.2884   20.8044   18.1526 H   0  0  0  0  0  0
   32.2527   20.4089   20.6033 H   0  0  0  0  0  0
   30.1117   20.4302   21.8384 H   0  0  0  0  0  0
   26.8990   24.4968   16.0400 H   0  0  0  0  0  0
   26.6080   25.7113   13.7280 H   0  0  0  0  0  0
   25.5700   21.3071   13.3766 H   0  0  0  0  0  0
   18.4435   19.2940   15.1193 H   0  0  0  0  0  0
   20.0728   18.7034   15.5563 H   0  0  0  0  0  0
   19.8872   20.1086   14.4504 H   0  0  0  0  0  0
  1  2  1  0  0  0
  1  5  1  0  0  0
  1  7  1  0  0  0
  1 28  1  0  0  0
  2  3  1  0  0  0
  2  6  1  0  0  0
  2 29  1  0  0  0
  3  4  2  0  0  0
  4  5  1  0  0  0
  4 13  1  0  0  0
  6 20  1  0  0  0
  6 23  2  0  0  0
  7  8  2  0  0  0
  7 12  1  0  0  0
  8  9  1  0  0  0
  8 30  1  0  0  0
  9 10  2  0  0  0
  9 31  1  0  0  0
 10 11  1  0  0  0
 10 24  1  0  0  0
 11 12  2  0  0  0
 11 32  1  0  0  0
 12 33  1  0  0  0
 13 14  2  0  0  0
 13 18  1  0  0  0
 14 15  1  0  0  0
 14 34  1  0  0  0
 15 16  2  0  0  0
 15 35  1  0  0  0
 16 17  1  0  0  0
 16 36  1  0  0  0
 17 18  2  0  0  0
 17 37  1  0  0  0
 18 19  1  0  0  0
 20 21  2  0  0  0
 20 38  1  0  0  0
 21 22  1  0  0  0
 21 39  1  0  0  0
 22 23  1  0  0  0
 23 40  1  0  0  0
 24 25  2  0  0  0
 24 26  2  0  0  0
 24 27  1  0  0  0
 27 41  1  0  0  0
 27 42  1  0  0  0
 27 43  1  0  0  0
M  END
>  <Name>
11-34

>  <Family>
J.2

>  <IC50_uM>
0.079000

>  <set>
2

$$$$
13-4
  Cerius2 12120216103D 1   1.00000                          
 Structure written by MMmdl.
 35 37  0  0  0  0  0  0  0  0999 V2000
   25.9179   23.9182   12.5717 C   0  0  0  0  0  0
   25.6611   22.5612   12.7243 C   0  0  0  0  0  0
   25.8225   21.9653   13.9777 C   0  0  0  0  0  0
   26.2383   22.7297   15.0780 C   0  0  0  0  0  0
   26.4960   24.0980   14.9022 C   0  0  0  0  0  0
   26.3341   24.6920   13.6479 C   0  0  0  0  0  0
   26.4031   22.1099   16.3817 C   0  0  0  0  0  0
   25.4695   21.5011   17.2808 C   0  0  0  0  0  0
   26.1021   20.9966   18.3581 N   0  0  0  0  0  0
   27.4027   21.2970   18.1607 N   0  0  0  0  0  0
   27.6291   21.9603   16.9924 C   0  0  0  0  0  0
   24.0132   21.3910   17.1591 C   0  0  0  0  0  0
   23.2923   22.2560   16.3216 C   0  0  0  0  0  0
   21.9028   22.1426   16.2072 C   0  0  0  0  0  0
   21.2261   21.1676   16.9444 C   0  0  0  0  0  0
   21.9272   20.2984   17.7826 C   0  0  0  0  0  0
   23.3165   20.4166   17.8919 C   0  0  0  0  0  0
   25.7636   24.4882   11.3692 F   0  0  0  0  0  0
   19.4614   21.0108   16.7810 S   0  0  0  0  0  0
   18.9008   22.3513   16.6409 O   0  0  0  0  0  0
   18.9855   20.1705   17.8754 O   0  0  0  0  0  0
   19.2550   20.1399   15.2503 C   0  0  0  0  0  0
   25.3395   21.9706   11.8713 H   0  0  0  0  0  0
   25.6276   20.8992   14.0812 H   0  0  0  0  0  0
   26.8165   24.7154   15.7400 H   0  0  0  0  0  0
   26.5302   25.7515   13.5109 H   0  0  0  0  0  0
   28.0893   21.0157   18.8572 H   0  0  0  0  0  0
   28.6326   22.2440   16.7043 H   0  0  0  0  0  0
   23.8017   23.0330   15.7538 H   0  0  0  0  0  0
   21.3639   22.8204   15.5484 H   0  0  0  0  0  0
   21.4102   19.5316   18.3556 H   0  0  0  0  0  0
   23.8556   19.7362   18.5503 H   0  0  0  0  0  0
   18.1849   20.0067   15.0781 H   0  0  0  0  0  0
   19.7426   19.1662   15.3258 H   0  0  0  0  0  0
   19.6908   20.7315   14.4431 H   0  0  0  0  0  0
  1  2  2  0  0  0
  1  6  1  0  0  0
  1 18  1  0  0  0
  2  3  1  0  0  0
  2 23  1  0  0  0
  3  4  2  0  0  0
  3 24  1  0  0  0
  4  5  1  0  0  0
  4  7  1  0  0  0
  5  6  2  0  0  0
  5 25  1  0  0  0
  6 26  1  0  0  0
  7  8  1  0  0  0
  7 11  2  0  0  0
  8  9  2  0  0  0
  8 12  1  0  0  0
  9 10  1  0  0  0
 10 11  1  0  0  0
 10 27  1  0  0  0
 11 28  1  0  0  0
 12 13  2  0  0  0
 12 17  1  0  0  0
 13 14  1  0  0  0
 13 29  1  0  0  0
 14 15  2  0  0  0
 14 30  1  0  0  0
 15 16  1  0  0  0
 15 19  1  0  0  0
 16 17  2  0  0  0
 16 31  1  0  0  0
 17 32  1  0  0  0
 19 20  2  0  0  0
 19 21  2  0  0  0
 19 22  1  0  0  0
 22 33  1  0  0  0
 22 34  1  0  0  0
 22 35  1  0  0  0
M  END
>  <Name>
13-4

>  <Family>
K

>  <IC50_uM>
>100

>  <set>
2

$$$$
13-5
  Cerius2 12120216103D 1   1.00000                          
 Structure written by MMmdl.
 38 40  0  0  0  0  0  0  0  0999 V2000
   25.8555   23.9031   12.5901 C   0  0  0  0  0  0
   25.6000   22.5466   12.7546 C   0  0  0  0  0  0
   25.7867   21.9570   14.0067 C   0  0  0  0  0  0
   26.2306   22.7289   15.0895 C   0  0  0  0  0  0
   26.4810   24.0964   14.9078 C   0  0  0  0  0  0
   26.2932   24.6830   13.6543 C   0  0  0  0  0  0
   26.4171   22.1132   16.3902 C   0  0  0  0  0  0
   25.4774   21.5110   17.2862 C   0  0  0  0  0  0
   26.1077   21.0028   18.3614 N   0  0  0  0  0  0
   27.4120   21.2826   18.1567 N   0  0  0  0  0  0
   27.6529   21.9328   16.9830 C   0  0  0  0  0  0
   24.0212   21.4018   17.1559 C   0  0  0  0  0  0
   23.3021   22.2645   16.3146 C   0  0  0  0  0  0
   21.9131   22.1481   16.1933 C   0  0  0  0  0  0
   21.2342   21.1726   16.9273 C   0  0  0  0  0  0
   21.9328   20.3051   17.7690 C   0  0  0  0  0  0
   23.3215   20.4262   17.8848 C   0  0  0  0  0  0
   25.6757   24.4674   11.3885 F   0  0  0  0  0  0
   19.4706   21.0138   16.7572 S   0  0  0  0  0  0
   18.9123   22.3510   16.5807 O   0  0  0  0  0  0
   18.9865   20.2005   17.8683 O   0  0  0  0  0  0
   19.2734   20.1061   15.2469 C   0  0  0  0  0  0
   29.0280   22.2750   16.5891 C   0  0  0  0  0  0
   29.3010   21.9267   15.3020 F   0  0  0  0  0  0
   29.9643   21.6544   17.3599 F   0  0  0  0  0  0
   29.2717   23.6101   16.6912 F   0  0  0  0  0  0
   25.2576   21.9532   11.9117 H   0  0  0  0  0  0
   25.5860   20.8936   14.1265 H   0  0  0  0  0  0
   26.8127   24.7181   15.7377 H   0  0  0  0  0  0
   26.4839   25.7424   13.5076 H   0  0  0  0  0  0
   28.0920   20.9860   18.8555 H   0  0  0  0  0  0
   23.8092   23.0453   15.7506 H   0  0  0  0  0  0
   21.3764   22.8252   15.5319 H   0  0  0  0  0  0
   21.4145   19.5378   18.3400 H   0  0  0  0  0  0
   23.8573   19.7461   18.5460 H   0  0  0  0  0  0
   18.2043   19.9695   15.0711 H   0  0  0  0  0  0
   19.7602   19.1344   15.3491 H   0  0  0  0  0  0
   19.7144   20.6779   14.4284 H   0  0  0  0  0  0
  1  2  2  0  0  0
  1  6  1  0  0  0
  1 18  1  0  0  0
  2  3  1  0  0  0
  2 27  1  0  0  0
  3  4  2  0  0  0
  3 28  1  0  0  0
  4  5  1  0  0  0
  4  7  1  0  0  0
  5  6  2  0  0  0
  5 29  1  0  0  0
  6 30  1  0  0  0
  7  8  1  0  0  0
  7 11  2  0  0  0
  8  9  2  0  0  0
  8 12  1  0  0  0
  9 10  1  0  0  0
 10 11  1  0  0  0
 10 31  1  0  0  0
 11 23  1  0  0  0
 12 13  2  0  0  0
 12 17  1  0  0  0
 13 14  1  0  0  0
 13 32  1  0  0  0
 14 15  2  0  0  0
 14 33  1  0  0  0
 15 16  1  0  0  0
 15 19  1  0  0  0
 16 17  2  0  0  0
 16 34  1  0  0  0
 17 35  1  0  0  0
 19 20  2  0  0  0
 19 21  2  0  0  0
 19 22  1  0  0  0
 22 36  1  0  0  0
 22 37  1  0  0  0
 22 38  1  0  0  0
 23 24  1  0  0  0
 23 25  1  0  0  0
 23 26  1  0  0  0
M  END
>  <Name>
13-5

>  <Family>
K

>  <IC50_uM>
>100

>  <set>
2

$$$$
13-6a
  Cerius2 12120216103D 1   1.00000                          
 Structure written by MMmdl.
 42 44  0  0  0  0  0  0  0  0999 V2000
   25.9217   23.9167   12.5717 C   0  0  0  0  0  0
   25.6648   22.5597   12.7246 C   0  0  0  0  0  0
   25.8246   21.9646   13.9785 C   0  0  0  0  0  0
   26.2391   22.7299   15.0785 C   0  0  0  0  0  0
   26.4964   24.0982   14.9029 C   0  0  0  0  0  0
   26.3361   24.6914   13.6483 C   0  0  0  0  0  0
   26.4030   22.1114   16.3824 C   0  0  0  0  0  0
   25.4688   21.5024   17.2803 C   0  0  0  0  0  0
   26.1003   20.9952   18.3564 N   0  0  0  0  0  0
   27.4026   21.3072   18.1664 N   0  0  0  0  0  0
   27.6306   21.9621   16.9914 C   0  0  0  0  0  0
   24.0125   21.3909   17.1575 C   0  0  0  0  0  0
   23.2904   22.2557   16.3208 C   0  0  0  0  0  0
   21.9009   22.1413   16.2072 C   0  0  0  0  0  0
   21.2251   21.1661   16.9447 C   0  0  0  0  0  0
   21.9271   20.2974   17.7826 C   0  0  0  0  0  0
   23.3165   20.4162   17.8906 C   0  0  0  0  0  0
   25.7692   24.4861   11.3685 F   0  0  0  0  0  0
   19.4602   21.0112   16.7837 S   0  0  0  0  0  0
   18.9006   22.3518   16.6412 O   0  0  0  0  0  0
   18.9852   20.1732   17.8802 O   0  0  0  0  0  0
   19.2517   20.1379   15.2547 C   0  0  0  0  0  0
   28.4141   20.9068   19.1422 C   0  0  0  0  0  0
   29.8032   21.3004   18.7158 C   0  0  0  0  0  0
   30.9150   21.0552   19.4231 C   0  0  0  0  0  0
   25.3446   21.9688   11.8713 H   0  0  0  0  0  0
   25.6292   20.8986   14.0829 H   0  0  0  0  0  0
   26.8153   24.7155   15.7414 H   0  0  0  0  0  0
   26.5321   25.7509   13.5109 H   0  0  0  0  0  0
   28.6310   22.2491   16.6934 H   0  0  0  0  0  0
   23.7984   23.0341   15.7537 H   0  0  0  0  0  0
   21.3609   22.8193   15.5494 H   0  0  0  0  0  0
   21.4108   19.5312   18.3569 H   0  0  0  0  0  0
   23.8560   19.7367   18.5494 H   0  0  0  0  0  0
   18.1811   20.0088   15.0819 H   0  0  0  0  0  0
   19.7352   19.1625   15.3324 H   0  0  0  0  0  0
   19.6902   20.7261   14.4464 H   0  0  0  0  0  0
   28.3493   19.8179   19.2446 H   0  0  0  0  0  0
   28.1349   21.3523   20.1039 H   0  0  0  0  0  0
   29.8883   21.8076   17.7562 H   0  0  0  0  0  0
   31.8902   21.3622   19.0536 H   0  0  0  0  0  0
   30.8838   20.5482   20.3841 H   0  0  0  0  0  0
  1  2  2  0  0  0
  1  6  1  0  0  0
  1 18  1  0  0  0
  2  3  1  0  0  0
  2 26  1  0  0  0
  3  4  2  0  0  0
  3 27  1  0  0  0
  4  5  1  0  0  0
  4  7  1  0  0  0
  5  6  2  0  0  0
  5 28  1  0  0  0
  6 29  1  0  0  0
  7  8  1  0  0  0
  7 11  2  0  0  0
  8  9  2  0  0  0
  8 12  1  0  0  0
  9 10  1  0  0  0
 10 11  1  0  0  0
 10 23  1  0  0  0
 11 30  1  0  0  0
 12 13  2  0  0  0
 12 17  1  0  0  0
 13 14  1  0  0  0
 13 31  1  0  0  0
 14 15  2  0  0  0
 14 32  1  0  0  0
 15 16  1  0  0  0
 15 19  1  0  0  0
 16 17  2  0  0  0
 16 33  1  0  0  0
 17 34  1  0  0  0
 19 20  2  0  0  0
 19 21  2  0  0  0
 19 22  1  0  0  0
 22 35  1  0  0  0
 22 36  1  0  0  0
 22 37  1  0  0  0
 23 24  1  0  0  0
 23 38  1  0  0  0
 23 39  1  0  0  0
 24 25  2  0  0  0
 24 40  1  0  0  0
 25 41  1  0  0  0
 25 42  1  0  0  0
M  END
>  <Name>
13-6a

>  <Family>
K

>  <IC50_uM>
>100

>  <set>
2

$$$$
13-6b
  Cerius2 12120216103D 1   1.00000                          
 Structure written by MMmdl.
 51 54  0  0  0  0  0  0  0  0999 V2000
   25.9197   23.9172   12.5716 C   0  0  0  0  0  0
   25.6630   22.5603   12.7248 C   0  0  0  0  0  0
   25.8239   21.9648   13.9784 C   0  0  0  0  0  0
   26.2393   22.7296   15.0784 C   0  0  0  0  0  0
   26.4969   24.0979   14.9024 C   0  0  0  0  0  0
   26.3352   24.6914   13.6481 C   0  0  0  0  0  0
   26.4033   22.1107   16.3823 C   0  0  0  0  0  0
   25.4684   21.5012   17.2793 C   0  0  0  0  0  0
   26.0998   20.9958   18.3563 N   0  0  0  0  0  0
   27.3990   21.3039   18.1636 N   0  0  0  0  0  0
   27.6300   21.9629   16.9942 C   0  0  0  0  0  0
   24.0130   21.3899   17.1565 C   0  0  0  0  0  0
   23.2920   22.2548   16.3189 C   0  0  0  0  0  0
   21.9023   22.1421   16.2059 C   0  0  0  0  0  0
   21.2258   21.1676   16.9438 C   0  0  0  0  0  0
   21.9275   20.2979   17.7815 C   0  0  0  0  0  0
   23.3167   20.4161   17.8902 C   0  0  0  0  0  0
   25.7653   24.4869   11.3691 F   0  0  0  0  0  0
   19.4606   21.0113   16.7858 S   0  0  0  0  0  0
   18.9002   22.3525   16.6552 O   0  0  0  0  0  0
   18.9871   20.1641   17.8760 O   0  0  0  0  0  0
   19.2502   20.1481   15.2512 C   0  0  0  0  0  0
   28.3967   20.9117   19.1441 C   0  0  0  0  0  0
   28.5368   21.9478   20.2557 C   0  0  0  0  0  0
   29.5917   21.5527   21.2611 C   0  0  0  0  0  0
   30.9204   21.9674   21.0969 C   0  0  0  0  0  0
   31.8984   21.5854   22.0167 C   0  0  0  0  0  0
   31.5591   20.7829   23.1046 C   0  0  0  0  0  0
   30.2415   20.3609   23.2737 C   0  0  0  0  0  0
   29.2617   20.7418   22.3554 C   0  0  0  0  0  0
   25.3413   21.9692   11.8719 H   0  0  0  0  0  0
   25.6284   20.8988   14.0825 H   0  0  0  0  0  0
   26.8165   24.7154   15.7403 H   0  0  0  0  0  0
   26.5308   25.7510   13.5109 H   0  0  0  0  0  0
   28.6302   22.2528   16.6978 H   0  0  0  0  0  0
   23.8014   23.0319   15.7513 H   0  0  0  0  0  0
   21.3631   22.8212   15.5488 H   0  0  0  0  0  0
   21.4103   19.5321   18.3556 H   0  0  0  0  0  0
   23.8562   19.7371   18.5496 H   0  0  0  0  0  0
   18.1796   20.0138   15.0822 H   0  0  0  0  0  0
   19.7401   19.1752   15.3198 H   0  0  0  0  0  0
   19.6813   20.7452   14.4454 H   0  0  0  0  0  0
   29.3443   20.7721   18.6102 H   0  0  0  0  0  0
   28.0988   19.9337   19.5412 H   0  0  0  0  0  0
   27.5775   22.0883   20.7710 H   0  0  0  0  0  0
   28.7859   22.9297   19.8322 H   0  0  0  0  0  0
   31.2035   22.5917   20.2500 H   0  0  0  0  0  0
   32.9279   21.9134   21.8830 H   0  0  0  0  0  0
   32.3229   20.4844   23.8206 H   0  0  0  0  0  0
   29.9764   19.7320   24.1219 H   0  0  0  0  0  0
   28.2370   20.4004   22.4999 H   0  0  0  0  0  0
  1  2  2  0  0  0
  1  6  1  0  0  0
  1 18  1  0  0  0
  2  3  1  0  0  0
  2 31  1  0  0  0
  3  4  2  0  0  0
  3 32  1  0  0  0
  4  5  1  0  0  0
  4  7  1  0  0  0
  5  6  2  0  0  0
  5 33  1  0  0  0
  6 34  1  0  0  0
  7  8  1  0  0  0
  7 11  2  0  0  0
  8  9  2  0  0  0
  8 12  1  0  0  0
  9 10  1  0  0  0
 10 11  1  0  0  0
 10 23  1  0  0  0
 11 35  1  0  0  0
 12 13  2  0  0  0
 12 17  1  0  0  0
 13 14  1  0  0  0
 13 36  1  0  0  0
 14 15  2  0  0  0
 14 37  1  0  0  0
 15 16  1  0  0  0
 15 19  1  0  0  0
 16 17  2  0  0  0
 16 38  1  0  0  0
 17 39  1  0  0  0
 19 20  2  0  0  0
 19 21  2  0  0  0
 19 22  1  0  0  0
 22 40  1  0  0  0
 22 41  1  0  0  0
 22 42  1  0  0  0
 23 24  1  0  0  0
 23 43  1  0  0  0
 23 44  1  0  0  0
 24 25  1  0  0  0
 24 45  1  0  0  0
 24 46  1  0  0  0
 25 26  2  0  0  0
 25 30  1  0  0  0
 26 27  1  0  0  0
 26 47  1  0  0  0
 27 28  2  0  0  0
 27 48  1  0  0  0
 28 29  1  0  0  0
 28 49  1  0  0  0
 29 30  2  0  0  0
 29 50  1  0  0  0
 30 51  1  0  0  0
M  END
>  <Name>
13-6b

>  <Family>
K

>  <IC50_uM>
0.530000

>  <set>
1

$$$$
13-7a
  Cerius2 12120216103D 1   1.00000                          
 Structure written by MMmdl.
 45 47  0  0  0  0  0  0  0  0999 V2000
   25.8079   23.9013   12.6083 C   0  0  0  0  0  0
   25.5527   22.5446   12.7749 C   0  0  0  0  0  0
   25.7604   21.9519   14.0221 C   0  0  0  0  0  0
   26.2264   22.7224   15.0956 C   0  0  0  0  0  0
   26.4761   24.0902   14.9139 C   0  0  0  0  0  0
   26.2666   24.6793   13.6655 C   0  0  0  0  0  0
   26.4276   22.1097   16.3941 C   0  0  0  0  0  0
   25.4826   21.5208   17.2891 C   0  0  0  0  0  0
   26.1066   21.0138   18.3645 N   0  0  0  0  0  0
   27.4193   21.2898   18.1721 N   0  0  0  0  0  0
   27.6702   21.9130   16.9759 C   0  0  0  0  0  0
   24.0268   21.4113   17.1536 C   0  0  0  0  0  0
   23.3082   22.2717   16.3100 C   0  0  0  0  0  0
   21.9198   22.1521   16.1844 C   0  0  0  0  0  0
   21.2406   21.1753   16.9165 C   0  0  0  0  0  0
   21.9384   20.3101   17.7611 C   0  0  0  0  0  0
   23.3263   20.4348   17.8811 C   0  0  0  0  0  0
   25.6069   24.4679   11.4110 F   0  0  0  0  0  0
   19.4780   21.0131   16.7407 S   0  0  0  0  0  0
   18.9201   22.3466   16.5381 O   0  0  0  0  0  0
   18.9892   20.2194   17.8638 O   0  0  0  0  0  0
   19.2887   20.0790   15.2455 C   0  0  0  0  0  0
   29.0450   22.2234   16.5388 C   0  0  0  0  0  0
   29.1084   22.8408   15.3288 F   0  0  0  0  0  0
   29.8069   21.1005   16.4263 F   0  0  0  0  0  0
   29.6887   23.0403   17.4158 F   0  0  0  0  0  0
   28.3800   20.8769   19.1998 C   0  0  0  0  0  0
   29.7974   21.2128   18.8228 C   0  0  0  0  0  0
   30.8687   20.9452   19.5827 C   0  0  0  0  0  0
   25.1925   21.9540   11.9374 H   0  0  0  0  0  0
   25.5566   20.8898   14.1466 H   0  0  0  0  0  0
   26.8287   24.7059   15.7396 H   0  0  0  0  0  0
   26.4570   25.7383   13.5165 H   0  0  0  0  0  0
   23.8143   23.0544   15.7482 H   0  0  0  0  0  0
   21.3833   22.8283   15.5217 H   0  0  0  0  0  0
   21.4202   19.5421   18.3312 H   0  0  0  0  0  0
   23.8616   19.7566   18.5450 H   0  0  0  0  0  0
   18.2206   19.9402   15.0652 H   0  0  0  0  0  0
   19.7735   19.1088   15.3683 H   0  0  0  0  0  0
   19.7359   20.6354   14.4198 H   0  0  0  0  0  0
   28.2764   19.7990   19.3501 H   0  0  0  0  0  0
   28.0779   21.3663   20.1335 H   0  0  0  0  0  0
   29.9470   21.6939   17.8578 H   0  0  0  0  0  0
   31.8692   21.2089   19.2489 H   0  0  0  0  0  0
   30.7795   20.4621   20.5524 H   0  0  0  0  0  0
  1  2  2  0  0  0
  1  6  1  0  0  0
  1 18  1  0  0  0
  2  3  1  0  0  0
  2 30  1  0  0  0
  3  4  2  0  0  0
  3 31  1  0  0  0
  4  5  1  0  0  0
  4  7  1  0  0  0
  5  6  2  0  0  0
  5 32  1  0  0  0
  6 33  1  0  0  0
  7  8  1  0  0  0
  7 11  2  0  0  0
  8  9  2  0  0  0
  8 12  1  0  0  0
  9 10  1  0  0  0
 10 11  1  0  0  0
 10 27  1  0  0  0
 11 23  1  0  0  0
 12 13  2  0  0  0
 12 17  1  0  0  0
 13 14  1  0  0  0
 13 34  1  0  0  0
 14 15  2  0  0  0
 14 35  1  0  0  0
 15 16  1  0  0  0
 15 19  1  0  0  0
 16 17  2  0  0  0
 16 36  1  0  0  0
 17 37  1  0  0  0
 19 20  2  0  0  0
 19 21  2  0  0  0
 19 22  1  0  0  0
 22 38  1  0  0  0
 22 39  1  0  0  0
 22 40  1  0  0  0
 23 24  1  0  0  0
 23 25  1  0  0  0
 23 26  1  0  0  0
 27 28  1  0  0  0
 27 41  1  0  0  0
 27 42  1  0  0  0
 28 29  2  0  0  0
 28 43  1  0  0  0
 29 44  1  0  0  0
 29 45  1  0  0  0
M  END
>  <Name>
13-7a

>  <Family>
K

>  <IC50_uM>
0.075000

>  <set>
1

$$$$
13-7b
  Cerius2 12120216103D 1   1.00000                          
 Structure written by MMmdl.
 54 57  0  0  0  0  0  0  0  0999 V2000
   25.8005   23.8963   12.6086 C   0  0  0  0  0  0
   25.5462   22.5398   12.7786 C   0  0  0  0  0  0
   25.7568   21.9500   14.0266 C   0  0  0  0  0  0
   26.2248   22.7230   15.0973 C   0  0  0  0  0  0
   26.4729   24.0903   14.9128 C   0  0  0  0  0  0
   26.2610   24.6766   13.6633 C   0  0  0  0  0  0
   26.4274   22.1119   16.3958 C   0  0  0  0  0  0
   25.4837   21.5177   17.2885 C   0  0  0  0  0  0
   26.1095   21.0086   18.3621 N   0  0  0  0  0  0
   27.4187   21.2786   18.1640 N   0  0  0  0  0  0
   27.6696   21.9196   16.9796 C   0  0  0  0  0  0
   24.0286   21.4084   17.1526 C   0  0  0  0  0  0
   23.3119   22.2700   16.3087 C   0  0  0  0  0  0
   21.9234   22.1528   16.1832 C   0  0  0  0  0  0
   21.2427   21.1769   16.9149 C   0  0  0  0  0  0
   21.9390   20.3101   17.7592 C   0  0  0  0  0  0
   23.3272   20.4327   17.8797 C   0  0  0  0  0  0
   25.5973   24.4603   11.4107 F   0  0  0  0  0  0
   19.4796   21.0189   16.7385 S   0  0  0  0  0  0
   18.9260   22.3524   16.5244 O   0  0  0  0  0  0
   18.9878   20.2359   17.8678 O   0  0  0  0  0  0
   19.2881   20.0736   15.2507 C   0  0  0  0  0  0
   29.0446   22.2408   16.5495 C   0  0  0  0  0  0
   29.1056   22.9861   15.4144 F   0  0  0  0  0  0
   29.7714   21.1162   16.3041 F   0  0  0  0  0  0
   29.7251   22.9393   17.4989 F   0  0  0  0  0  0
   28.3720   20.8507   19.1794 C   0  0  0  0  0  0
   28.4858   21.8648   20.3155 C   0  0  0  0  0  0
   29.5430   21.4646   21.3162 C   0  0  0  0  0  0
   30.8663   21.9001   21.1622 C   0  0  0  0  0  0
   31.8480   21.5128   22.0758 C   0  0  0  0  0  0
   31.5175   20.6847   23.1471 C   0  0  0  0  0  0
   30.2054   20.2421   23.3057 C   0  0  0  0  0  0
   29.2217   20.6281   22.3936 C   0  0  0  0  0  0
   25.1846   21.9472   11.9431 H   0  0  0  0  0  0
   25.5532   20.8880   14.1538 H   0  0  0  0  0  0
   26.8268   24.7078   15.7366 H   0  0  0  0  0  0
   26.4510   25.7353   13.5119 H   0  0  0  0  0  0
   23.8197   23.0516   15.7471 H   0  0  0  0  0  0
   21.3880   22.8300   15.5207 H   0  0  0  0  0  0
   21.4196   19.5427   18.3289 H   0  0  0  0  0  0
   23.8616   19.7536   18.5433 H   0  0  0  0  0  0
   18.2196   19.9375   15.0710 H   0  0  0  0  0  0
   19.7692   19.1023   15.3810 H   0  0  0  0  0  0
   19.7378   20.6219   14.4208 H   0  0  0  0  0  0
   29.3383   20.6816   18.6935 H   0  0  0  0  0  0
   28.0320   19.8765   19.5523 H   0  0  0  0  0  0
   27.5207   21.9748   20.8271 H   0  0  0  0  0  0
   28.7194   22.8617   19.9197 H   0  0  0  0  0  0
   31.1425   22.5452   20.3287 H   0  0  0  0  0  0
   32.8733   21.8570   21.9507 H   0  0  0  0  0  0
   32.2839   20.3825   23.8587 H   0  0  0  0  0  0
   29.9474   19.5934   24.1411 H   0  0  0  0  0  0
   28.2015   20.2704   22.5297 H   0  0  0  0  0  0
  1  2  2  0  0  0
  1  6  1  0  0  0
  1 18  1  0  0  0
  2  3  1  0  0  0
  2 35  1  0  0  0
  3  4  2  0  0  0
  3 36  1  0  0  0
  4  5  1  0  0  0
  4  7  1  0  0  0
  5  6  2  0  0  0
  5 37  1  0  0  0
  6 38  1  0  0  0
  7  8  1  0  0  0
  7 11  2  0  0  0
  8  9  2  0  0  0
  8 12  1  0  0  0
  9 10  1  0  0  0
 10 11  1  0  0  0
 10 27  1  0  0  0
 11 23  1  0  0  0
 12 13  2  0  0  0
 12 17  1  0  0  0
 13 14  1  0  0  0
 13 39  1  0  0  0
 14 15  2  0  0  0
 14 40  1  0  0  0
 15 16  1  0  0  0
 15 19  1  0  0  0
 16 17  2  0  0  0
 16 41  1  0  0  0
 17 42  1  0  0  0
 19 20  2  0  0  0
 19 21  2  0  0  0
 19 22  1  0  0  0
 22 43  1  0  0  0
 22 44  1  0  0  0
 22 45  1  0  0  0
 23 24  1  0  0  0
 23 25  1  0  0  0
 23 26  1  0  0  0
 27 28  1  0  0  0
 27 46  1  0  0  0
 27 47  1  0  0  0
 28 29  1  0  0  0
 28 48  1  0  0  0
 28 49  1  0  0  0
 29 30  2  0  0  0
 29 34  1  0  0  0
 30 31  1  0  0  0
 30 50  1  0  0  0
 31 32  2  0  0  0
 31 51  1  0  0  0
 32 33  1  0  0  0
 32 52  1  0  0  0
 33 34  2  0  0  0
 33 53  1  0  0  0
 34 54  1  0  0  0
M  END
>  <Name>
13-7b

>  <Family>
K

>  <IC50_uM>
0.045000

>  <set>
2

$$$$
13-7c
  Cerius2 12120216103D 1   1.00000                          
 Structure written by MMmdl.
 44 46  0  0  0  0  0  0  0  0999 V2000
   25.8036   23.8967   12.6081 C   0  0  0  0  0  0
   25.5491   22.5403   12.7778 C   0  0  0  0  0  0
   25.7589   21.9504   14.0258 C   0  0  0  0  0  0
   26.2259   22.7235   15.0970 C   0  0  0  0  0  0
   26.4742   24.0908   14.9128 C   0  0  0  0  0  0
   26.2632   24.6770   13.6632 C   0  0  0  0  0  0
   26.4278   22.1121   16.3955 C   0  0  0  0  0  0
   25.4833   21.5192   17.2885 C   0  0  0  0  0  0
   26.1093   21.0080   18.3612 N   0  0  0  0  0  0
   27.4191   21.2785   18.1635 N   0  0  0  0  0  0
   27.6702   21.9165   16.9779 C   0  0  0  0  0  0
   24.0274   21.4110   17.1541 C   0  0  0  0  0  0
   23.3095   22.2723   16.3106 C   0  0  0  0  0  0
   21.9209   22.1541   16.1846 C   0  0  0  0  0  0
   21.2408   21.1776   16.9160 C   0  0  0  0  0  0
   21.9378   20.3122   17.7612 C   0  0  0  0  0  0
   23.3259   20.4355   17.8817 C   0  0  0  0  0  0
   25.6009   24.4609   11.4100 F   0  0  0  0  0  0
   19.4785   21.0136   16.7378 S   0  0  0  0  0  0
   18.9201   22.3468   16.5344 O   0  0  0  0  0  0
   18.9884   20.2195   17.8602 O   0  0  0  0  0  0
   19.2915   20.0788   15.2426 C   0  0  0  0  0  0
   29.0451   22.2335   16.5449 C   0  0  0  0  0  0
   29.1062   22.9490   15.3905 F   0  0  0  0  0  0
   29.7794   21.1073   16.3297 F   0  0  0  0  0  0
   29.7196   22.9607   17.4768 F   0  0  0  0  0  0
   28.3705   20.8549   19.1814 C   0  0  0  0  0  0
   28.9905   19.5051   18.8627 C   0  0  0  0  0  0
   25.1879   21.9477   11.9422 H   0  0  0  0  0  0
   25.5552   20.8885   14.1532 H   0  0  0  0  0  0
   26.8275   24.7083   15.7369 H   0  0  0  0  0  0
   26.4533   25.7359   13.5121 H   0  0  0  0  0  0
   23.8163   23.0543   15.7487 H   0  0  0  0  0  0
   21.3856   22.8307   15.5219 H   0  0  0  0  0  0
   21.4185   19.5444   18.3307 H   0  0  0  0  0  0
   23.8604   19.7564   18.5453 H   0  0  0  0  0  0
   18.2238   19.9364   15.0635 H   0  0  0  0  0  0
   19.7798   19.1102   15.3645 H   0  0  0  0  0  0
   19.7357   20.6371   14.4164 H   0  0  0  0  0  0
   27.8595   20.8276   20.1477 H   0  0  0  0  0  0
   29.1452   21.6277   19.2449 H   0  0  0  0  0  0
   29.6967   19.2169   19.6473 H   0  0  0  0  0  0
   29.5310   19.5343   17.9106 H   0  0  0  0  0  0
   28.2259   18.7252   18.7868 H   0  0  0  0  0  0
  1  2  2  0  0  0
  1  6  1  0  0  0
  1 18  1  0  0  0
  2  3  1  0  0  0
  2 29  1  0  0  0
  3  4  2  0  0  0
  3 30  1  0  0  0
  4  5  1  0  0  0
  4  7  1  0  0  0
  5  6  2  0  0  0
  5 31  1  0  0  0
  6 32  1  0  0  0
  7  8  1  0  0  0
  7 11  2  0  0  0
  8  9  2  0  0  0
  8 12  1  0  0  0
  9 10  1  0  0  0
 10 11  1  0  0  0
 10 27  1  0  0  0
 11 23  1  0  0  0
 12 13  2  0  0  0
 12 17  1  0  0  0
 13 14  1  0  0  0
 13 33  1  0  0  0
 14 15  2  0  0  0
 14 34  1  0  0  0
 15 16  1  0  0  0
 15 19  1  0  0  0
 16 17  2  0  0  0
 16 35  1  0  0  0
 17 36  1  0  0  0
 19 20  2  0  0  0
 19 21  2  0  0  0
 19 22  1  0  0  0
 22 37  1  0  0  0
 22 38  1  0  0  0
 22 39  1  0  0  0
 23 24  1  0  0  0
 23 25  1  0  0  0
 23 26  1  0  0  0
 27 28  1  0  0  0
 27 40  1  0  0  0
 27 41  1  0  0  0
 28 42  1  0  0  0
 28 43  1  0  0  0
 28 44  1  0  0  0
M  END
>  <Name>
13-7c

>  <Family>
K

>  <IC50_uM>
0.130000

>  <set>
1

$$$$
13-7d
  Cerius2 12120216103D 1   1.00000                          
 Structure written by MMmdl.
 50 52  0  0  0  0  0  0  0  0999 V2000
   25.7968   23.8925   12.6086 C   0  0  0  0  0  0
   25.5431   22.5361   12.7809 C   0  0  0  0  0  0
   25.7552   21.9484   14.0296 C   0  0  0  0  0  0
   26.2238   22.7237   15.0985 C   0  0  0  0  0  0
   26.4714   24.0906   14.9115 C   0  0  0  0  0  0
   26.2582   24.6748   13.6614 C   0  0  0  0  0  0
   26.4270   22.1158   16.3987 C   0  0  0  0  0  0
   25.4839   21.5213   17.2910 C   0  0  0  0  0  0
   26.1113   21.0018   18.3590 N   0  0  0  0  0  0
   27.4231   21.2785   18.1665 N   0  0  0  0  0  0
   27.6711   21.9161   16.9764 C   0  0  0  0  0  0
   24.0286   21.4127   17.1555 C   0  0  0  0  0  0
   23.3120   22.2735   16.3108 C   0  0  0  0  0  0
   21.9238   22.1546   16.1834 C   0  0  0  0  0  0
   21.2432   21.1780   16.9143 C   0  0  0  0  0  0
   21.9393   20.3126   17.7600 C   0  0  0  0  0  0
   23.3272   20.4366   17.8820 C   0  0  0  0  0  0
   25.5918   24.4544   11.4100 F   0  0  0  0  0  0
   19.4810   21.0158   16.7332 S   0  0  0  0  0  0
   18.9249   22.3481   16.5178 O   0  0  0  0  0  0
   18.9879   20.2315   17.8611 O   0  0  0  0  0  0
   19.2955   20.0699   15.2449 C   0  0  0  0  0  0
   29.0444   22.2249   16.5285 C   0  0  0  0  0  0
   29.1022   23.0923   15.4847 F   0  0  0  0  0  0
   29.7041   21.1021   16.1331 F   0  0  0  0  0  0
   29.7922   22.7767   17.5232 F   0  0  0  0  0  0
   28.3809   20.8008   19.1577 C   0  0  0  0  0  0
   28.6990   21.8490   20.1951 C   0  0  0  0  0  0
   28.3568   23.0266   20.1704 O   0  0  0  0  0  0
   29.4735   21.2961   21.1803 O   0  0  0  0  0  0
   30.7106   21.4437   23.2251 C   0  0  0  0  0  0
   29.8607   22.2035   22.2251 C   0  0  0  0  0  0
   25.1807   21.9421   11.9468 H   0  0  0  0  0  0
   25.5516   20.8868   14.1595 H   0  0  0  0  0  0
   26.8263   24.7092   15.7340 H   0  0  0  0  0  0
   26.4480   25.7333   13.5080 H   0  0  0  0  0  0
   23.8192   23.0553   15.7490 H   0  0  0  0  0  0
   21.3885   22.8303   15.5194 H   0  0  0  0  0  0
   21.4202   19.5443   18.3285 H   0  0  0  0  0  0
   23.8613   19.7573   18.5456 H   0  0  0  0  0  0
   18.2276   19.9328   15.0617 H   0  0  0  0  0  0
   19.7772   19.0994   15.3773 H   0  0  0  0  0  0
   19.7472   20.6182   14.4160 H   0  0  0  0  0  0
   29.2945   20.4985   18.6393 H   0  0  0  0  0  0
   27.9351   19.9263   19.6441 H   0  0  0  0  0  0
   31.0250   22.0960   24.0446 H   0  0  0  0  0  0
   31.6015   21.0317   22.7394 H   0  0  0  0  0  0
   30.1538   20.5969   23.6397 H   0  0  0  0  0  0
   28.9653   22.5952   22.7200 H   0  0  0  0  0  0
   30.4395   23.0297   21.7979 H   0  0  0  0  0  0
  1  2  2  0  0  0
  1  6  1  0  0  0
  1 18  1  0  0  0
  2  3  1  0  0  0
  2 33  1  0  0  0
  3  4  2  0  0  0
  3 34  1  0  0  0
  4  5  1  0  0  0
  4  7  1  0  0  0
  5  6  2  0  0  0
  5 35  1  0  0  0
  6 36  1  0  0  0
  7  8  1  0  0  0
  7 11  2  0  0  0
  8  9  2  0  0  0
  8 12  1  0  0  0
  9 10  1  0  0  0
 10 11  1  0  0  0
 10 27  1  0  0  0
 11 23  1  0  0  0
 12 13  2  0  0  0
 12 17  1  0  0  0
 13 14  1  0  0  0
 13 37  1  0  0  0
 14 15  2  0  0  0
 14 38  1  0  0  0
 15 16  1  0  0  0
 15 19  1  0  0  0
 16 17  2  0  0  0
 16 39  1  0  0  0
 17 40  1  0  0  0
 19 20  2  0  0  0
 19 21  2  0  0  0
 19 22  1  0  0  0
 22 41  1  0  0  0
 22 42  1  0  0  0
 22 43  1  0  0  0
 23 24  1  0  0  0
 23 25  1  0  0  0
 23 26  1  0  0  0
 27 28  1  0  0  0
 27 44  1  0  0  0
 27 45  1  0  0  0
 28 29  2  0  0  0
 28 30  1  0  0  0
 30 32  1  0  0  0
 31 32  1  0  0  0
 31 46  1  0  0  0
 31 47  1  0  0  0
 31 48  1  0  0  0
 32 49  1  0  0  0
 32 50  1  0  0  0
M  END
>  <Name>
13-7d

>  <Family>
K

>  <IC50_uM>
0.440000

>  <set>
2

$$$$
13-7e
  Cerius2 12120216103D 1   1.00000                          
 Structure written by MMmdl.
 55 58  0  0  0  0  0  0  0  0999 V2000
   25.7981   23.8951   12.6086 C   0  0  0  0  0  0
   25.5437   22.5389   12.7794 C   0  0  0  0  0  0
   25.7556   21.9495   14.0274 C   0  0  0  0  0  0
   26.2246   22.7228   15.0975 C   0  0  0  0  0  0
   26.4724   24.0901   14.9123 C   0  0  0  0  0  0
   26.2594   24.6758   13.6628 C   0  0  0  0  0  0
   26.4279   22.1130   16.3971 C   0  0  0  0  0  0
   25.4838   21.5186   17.2883 C   0  0  0  0  0  0
   26.1085   21.0074   18.3612 N   0  0  0  0  0  0
   27.4176   21.3027   18.1806 N   0  0  0  0  0  0
   27.6704   21.9201   16.9815 C   0  0  0  0  0  0
   24.0292   21.4076   17.1509 C   0  0  0  0  0  0
   23.3127   22.2695   16.3072 C   0  0  0  0  0  0
   21.9243   22.1528   16.1822 C   0  0  0  0  0  0
   21.2435   21.1770   16.9141 C   0  0  0  0  0  0
   21.9397   20.3097   17.7580 C   0  0  0  0  0  0
   23.3280   20.4314   17.8779 C   0  0  0  0  0  0
   25.5937   24.4589   11.4107 F   0  0  0  0  0  0
   19.4801   21.0202   16.7397 S   0  0  0  0  0  0
   18.9273   22.3543   16.5273 O   0  0  0  0  0  0
   18.9885   20.2367   17.8687 O   0  0  0  0  0  0
   19.2872   20.0760   15.2515 C   0  0  0  0  0  0
   29.0449   22.2310   16.5400 C   0  0  0  0  0  0
   29.1067   22.8790   15.3468 F   0  0  0  0  0  0
   29.7922   21.1018   16.3950 F   0  0  0  0  0  0
   29.7047   23.0150   17.4343 F   0  0  0  0  0  0
   28.3617   20.8760   19.2060 C   0  0  0  0  0  0
   28.8297   19.4488   18.9661 C   0  0  0  0  0  0
   28.0253   18.5326   18.7833 O   0  0  0  0  0  0
   30.2087   19.3106   19.0044 N   0  0  0  0  0  0
   30.9760   18.1398   18.8262 C   0  0  0  0  0  0
   32.3687   18.2752   18.9095 C   0  0  0  0  0  0
   33.2073   17.1695   18.7435 C   0  0  0  0  0  0
   32.6617   15.9143   18.4923 C   0  0  0  0  0  0
   31.2794   15.7677   18.4076 C   0  0  0  0  0  0
   30.4396   16.8753   18.5736 C   0  0  0  0  0  0
   25.1814   21.9459   11.9445 H   0  0  0  0  0  0
   25.5521   20.8876   14.1551 H   0  0  0  0  0  0
   26.8259   24.7085   15.7357 H   0  0  0  0  0  0
   26.4488   25.7346   13.5109 H   0  0  0  0  0  0
   23.8209   23.0510   15.7457 H   0  0  0  0  0  0
   21.3888   22.8305   15.5205 H   0  0  0  0  0  0
   21.4200   19.5427   18.3280 H   0  0  0  0  0  0
   23.8623   19.7524   18.5413 H   0  0  0  0  0  0
   18.2186   19.9402   15.0723 H   0  0  0  0  0  0
   19.7681   19.1046   15.3810 H   0  0  0  0  0  0
   19.7366   20.6246   14.4217 H   0  0  0  0  0  0
   27.8857   20.9299   20.1880 H   0  0  0  0  0  0
   29.1921   21.5898   19.1953 H   0  0  0  0  0  0
   30.7439   20.1597   19.1762 H   0  0  0  0  0  0
   32.8227   19.2457   19.1044 H   0  0  0  0  0  0
   34.2871   17.2914   18.8106 H   0  0  0  0  0  0
   33.3118   15.0509   18.3622 H   0  0  0  0  0  0
   30.8485   14.7873   18.2106 H   0  0  0  0  0  0
   29.3698   16.7087   18.4972 H   0  0  0  0  0  0
  1  2  2  0  0  0
  1  6  1  0  0  0
  1 18  1  0  0  0
  2  3  1  0  0  0
  2 37  1  0  0  0
  3  4  2  0  0  0
  3 38  1  0  0  0
  4  5  1  0  0  0
  4  7  1  0  0  0
  5  6  2  0  0  0
  5 39  1  0  0  0
  6 40  1  0  0  0
  7  8  1  0  0  0
  7 11  2  0  0  0
  8  9  2  0  0  0
  8 12  1  0  0  0
  9 10  1  0  0  0
 10 11  1  0  0  0
 10 27  1  0  0  0
 11 23  1  0  0  0
 12 13  2  0  0  0
 12 17  1  0  0  0
 13 14  1  0  0  0
 13 41  1  0  0  0
 14 15  2  0  0  0
 14 42  1  0  0  0
 15 16  1  0  0  0
 15 19  1  0  0  0
 16 17  2  0  0  0
 16 43  1  0  0  0
 17 44  1  0  0  0
 19 20  2  0  0  0
 19 21  2  0  0  0
 19 22  1  0  0  0
 22 45  1  0  0  0
 22 46  1  0  0  0
 22 47  1  0  0  0
 23 24  1  0  0  0
 23 25  1  0  0  0
 23 26  1  0  0  0
 27 28  1  0  0  0
 27 48  1  0  0  0
 27 49  1  0  0  0
 28 29  2  0  0  0
 28 30  1  0  0  0
 30 31  1  0  0  0
 30 50  1  0  0  0
 31 32  2  0  0  0
 31 36  1  0  0  0
 32 33  1  0  0  0
 32 51  1  0  0  0
 33 34  2  0  0  0
 33 52  1  0  0  0
 34 35  1  0  0  0
 34 53  1  0  0  0
 35 36  2  0  0  0
 35 54  1  0  0  0
 36 55  1  0  0  0
M  END
>  <Name>
13-7e

>  <Family>
K

>  <IC50_uM>
0.480000

>  <set>
1

$$$$
13-10
  Cerius2 12120216103D 1   1.00000                          
 Structure written by MMmdl.
 43 45  0  0  0  0  0  0  0  0999 V2000
   25.7987   23.8995   12.6096 C   0  0  0  0  0  0
   25.5447   22.5428   12.7778 C   0  0  0  0  0  0
   25.7572   21.9508   14.0244 C   0  0  0  0  0  0
   26.2265   22.7224   15.0958 C   0  0  0  0  0  0
   26.4764   24.0897   14.9124 C   0  0  0  0  0  0
   26.2623   24.6780   13.6643 C   0  0  0  0  0  0
   26.4279   22.1106   16.3946 C   0  0  0  0  0  0
   25.4828   21.5195   17.2886 C   0  0  0  0  0  0
   26.1089   21.0102   18.3621 N   0  0  0  0  0  0
   27.4187   21.2790   18.1639 N   0  0  0  0  0  0
   27.6701   21.9159   16.9778 C   0  0  0  0  0  0
   24.0269   21.4110   17.1545 C   0  0  0  0  0  0
   23.3077   22.2721   16.3119 C   0  0  0  0  0  0
   21.9191   22.1521   16.1876 C   0  0  0  0  0  0
   21.2390   21.1743   16.9186 C   0  0  0  0  0  0
   21.9378   20.3106   17.7638 C   0  0  0  0  0  0
   23.3263   20.4349   17.8828 C   0  0  0  0  0  0
   25.5920   24.4658   11.4132 F   0  0  0  0  0  0
   19.4837   21.0165   16.7332 S   0  0  0  0  0  0
   18.9013   22.3254   16.4959 O   0  0  0  0  0  0
   18.9738   20.1626   17.7916 O   0  0  0  0  0  0
   19.3553   20.1632   15.2973 N   0  0  0  0  0  0
   29.0450   22.2328   16.5450 C   0  0  0  0  0  0
   29.1057   22.9510   15.3922 F   0  0  0  0  0  0
   29.7781   21.1063   16.3264 F   0  0  0  0  0  0
   29.7208   22.9573   17.4780 F   0  0  0  0  0  0
   28.3699   20.8524   19.1811 C   0  0  0  0  0  0
   28.6187   21.9281   20.2248 C   0  0  0  0  0  0
   25.1817   21.9516   11.9418 H   0  0  0  0  0  0
   25.5537   20.8887   14.1505 H   0  0  0  0  0  0
   26.8328   24.7056   15.7364 H   0  0  0  0  0  0
   26.4530   25.7367   13.5140 H   0  0  0  0  0  0
   23.8125   23.0558   15.7506 H   0  0  0  0  0  0
   21.3780   22.8277   15.5283 H   0  0  0  0  0  0
   21.4192   19.5433   18.3342 H   0  0  0  0  0  0
   23.8614   19.7569   18.5469 H   0  0  0  0  0  0
   18.8629   20.7104   14.5864 H   0  0  0  0  0  0
   18.9057   19.2562   15.4466 H   0  0  0  0  0  0
   29.3036   20.5675   18.6884 H   0  0  0  0  0  0
   27.9615   19.9499   19.6505 H   0  0  0  0  0  0
   29.3379   21.5748   20.9702 H   0  0  0  0  0  0
   27.6926   22.1953   20.7443 H   0  0  0  0  0  0
   29.0187   22.8392   19.7682 H   0  0  0  0  0  0
  1  2  2  0  0  0
  1  6  1  0  0  0
  1 18  1  0  0  0
  2  3  1  0  0  0
  2 29  1  0  0  0
  3  4  2  0  0  0
  3 30  1  0  0  0
  4  5  1  0  0  0
  4  7  1  0  0  0
  5  6  2  0  0  0
  5 31  1  0  0  0
  6 32  1  0  0  0
  7  8  1  0  0  0
  7 11  2  0  0  0
  8  9  2  0  0  0
  8 12  1  0  0  0
  9 10  1  0  0  0
 10 11  1  0  0  0
 10 27  1  0  0  0
 11 23  1  0  0  0
 12 13  2  0  0  0
 12 17  1  0  0  0
 13 14  1  0  0  0
 13 33  1  0  0  0
 14 15  2  0  0  0
 14 34  1  0  0  0
 15 16  1  0  0  0
 15 19  1  0  0  0
 16 17  2  0  0  0
 16 35  1  0  0  0
 17 36  1  0  0  0
 19 20  2  0  0  0
 19 21  2  0  0  0
 19 22  1  0  0  0
 22 37  1  0  0  0
 22 38  1  0  0  0
 23 24  1  0  0  0
 23 25  1  0  0  0
 23 26  1  0  0  0
 27 28  1  0  0  0
 27 39  1  0  0  0
 27 40  1  0  0  0
 28 41  1  0  0  0
 28 42  1  0  0  0
 28 43  1  0  0  0
M  END
>  <Name>
13-10

>  <Family>
K

>  <IC50_uM>
0.033000

>  <set>
2

$$$$
14-3
  Cerius2 12120216103D 1   1.00000                          
 Structure written by MMmdl.
 43 46  0  0  0  0  0  0  0  0999 V2000
   26.4400   22.0651   16.4066 C   0  0  0  0  0  0
   25.5433   21.5285   17.2723 C   0  0  0  0  0  0
   26.1917   20.9797   18.5324 C   0  0  0  0  0  0
   27.6368   21.2476   18.2553 C   0  0  0  0  0  0
   27.7685   21.8838   17.0161 C   0  0  0  0  0  0
   24.0841   21.4305   17.1227 C   0  0  0  0  0  0
   26.1205   22.6981   15.1195 C   0  0  0  0  0  0
   23.3913   22.2882   16.2548 C   0  0  0  0  0  0
   22.0047   22.1885   16.1051 C   0  0  0  0  0  0
   21.3013   21.2239   16.8284 C   0  0  0  0  0  0
   21.9755   20.3489   17.6822 C   0  0  0  0  0  0
   23.3626   20.4553   17.8263 C   0  0  0  0  0  0
   25.5702   21.9364   14.0780 C   0  0  0  0  0  0
   25.2663   22.5320   12.8518 C   0  0  0  0  0  0
   25.5155   23.8867   12.6675 C   0  0  0  0  0  0
   26.0644   24.6577   13.6847 C   0  0  0  0  0  0
   26.3691   24.0632   14.9112 C   0  0  0  0  0  0
   28.7375   20.9571   19.0457 C   0  0  0  0  0  0
   29.9999   21.3203   18.5741 C   0  0  0  0  0  0
   30.1411   21.9644   17.3348 C   0  0  0  0  0  0
   29.0210   22.2521   16.5479 C   0  0  0  0  0  0
   25.2235   24.4572   11.4910 F   0  0  0  0  0  0
   19.5404   21.0805   16.6271 S   0  0  0  0  0  0
   19.0199   22.3973   16.2724 O   0  0  0  0  0  0
   19.0053   20.4196   17.8135 O   0  0  0  0  0  0
   19.3635   19.9974   15.2345 C   0  0  0  0  0  0
   26.0074   19.9059   18.6372 H   0  0  0  0  0  0
   25.8686   21.5189   19.4278 H   0  0  0  0  0  0
   23.9265   23.0398   15.6762 H   0  0  0  0  0  0
   21.4909   22.8655   15.4261 H   0  0  0  0  0  0
   21.4375   19.5874   18.2430 H   0  0  0  0  0  0
   23.8689   19.7734   18.5082 H   0  0  0  0  0  0
   25.3675   20.8755   14.2170 H   0  0  0  0  0  0
   24.8371   21.9444   12.0454 H   0  0  0  0  0  0
   26.2543   25.7148   13.5228 H   0  0  0  0  0  0
   26.8023   24.6724   15.7030 H   0  0  0  0  0  0
   28.6260   20.4630   20.0073 H   0  0  0  0  0  0
   30.8841   21.1056   19.1730 H   0  0  0  0  0  0
   31.1335   22.2442   16.9836 H   0  0  0  0  0  0
   29.1419   22.7553   15.5926 H   0  0  0  0  0  0
   18.2967   19.8596   15.0457 H   0  0  0  0  0  0
   19.8261   19.0370   15.4694 H   0  0  0  0  0  0
   19.8385   20.4554   14.3649 H   0  0  0  0  0  0
  1  2  2  0  0  0
  1  5  1  0  0  0
  1  7  1  0  0  0
  2  3  1  0  0  0
  2  6  1  0  0  0
  3  4  1  0  0  0
  3 27  1  0  0  0
  3 28  1  0  0  0
  4  5  2  0  0  0
  4 18  1  0  0  0
  5 21  1  0  0  0
  6  8  2  0  0  0
  6 12  1  0  0  0
  7 13  2  0  0  0
  7 17  1  0  0  0
  8  9  1  0  0  0
  8 29  1  0  0  0
  9 10  2  0  0  0
  9 30  1  0  0  0
 10 11  1  0  0  0
 10 23  1  0  0  0
 11 12  2  0  0  0
 11 31  1  0  0  0
 12 32  1  0  0  0
 13 14  1  0  0  0
 13 33  1  0  0  0
 14 15  2  0  0  0
 14 34  1  0  0  0
 15 16  1  0  0  0
 15 22  1  0  0  0
 16 17  2  0  0  0
 16 35  1  0  0  0
 17 36  1  0  0  0
 18 19  2  0  0  0
 18 37  1  0  0  0
 19 20  1  0  0  0
 19 38  1  0  0  0
 20 21  2  0  0  0
 20 39  1  0  0  0
 21 40  1  0  0  0
 23 24  2  0  0  0
 23 25  2  0  0  0
 23 26  1  0  0  0
 26 41  1  0  0  0
 26 42  1  0  0  0
 26 43  1  0  0  0
M  END
>  <Name>
14-3

>  <Family>
L

>  <IC50_uM>
0.011000

>  <set>
2

$$$$
14-7
  Cerius2 12120216103D 1   1.00000                          
 Structure written by MMmdl.
 41 44  0  0  0  0  0  0  0  0999 V2000
   26.4698   22.0803   16.3768 C   0  0  0  0  0  0
   25.4656   21.5738   17.1928 C   0  0  0  0  0  0
   26.0160   21.0735   18.3426 O   0  0  0  0  0  0
   27.3620   21.2406   18.2629 C   0  0  0  0  0  0
   27.7026   21.8572   17.0663 C   0  0  0  0  0  0
   24.0142   21.4330   17.1031 C   0  0  0  0  0  0
   26.2530   22.7191   15.0908 C   0  0  0  0  0  0
   23.2559   22.2722   16.2727 C   0  0  0  0  0  0
   21.8657   22.1364   16.1921 C   0  0  0  0  0  0
   21.2226   21.1556   16.9497 C   0  0  0  0  0  0
   21.9594   20.2999   17.7700 C   0  0  0  0  0  0
   23.3490   20.4426   17.8444 C   0  0  0  0  0  0
   25.7908   21.9645   14.0032 C   0  0  0  0  0  0
   25.5842   22.5726   12.7630 C   0  0  0  0  0  0
   25.8439   23.9298   12.6126 C   0  0  0  0  0  0
   26.3083   24.6917   13.6783 C   0  0  0  0  0  0
   26.5161   24.0862   14.9195 C   0  0  0  0  0  0
   28.2805   20.8550   19.2367 C   0  0  0  0  0  0
   29.6267   21.1210   18.9665 C   0  0  0  0  0  0
   30.0141   21.7441   17.7781 C   0  0  0  0  0  0
   29.0642   22.1212   16.8178 C   0  0  0  0  0  0
   25.6452   24.5118   11.4224 F   0  0  0  0  0  0
   19.4578   20.9683   16.8306 S   0  0  0  0  0  0
   18.8668   22.3013   16.7629 O   0  0  0  0  0  0
   19.0304   20.0732   17.9015 O   0  0  0  0  0  0
   19.2252   20.1569   15.2713 C   0  0  0  0  0  0
   23.7380   23.0367   15.6657 H   0  0  0  0  0  0
   21.3015   22.7984   15.5384 H   0  0  0  0  0  0
   21.4702   19.5252   18.3565 H   0  0  0  0  0  0
   23.9107   19.7728   18.4950 H   0  0  0  0  0  0
   25.5805   20.9018   14.1129 H   0  0  0  0  0  0
   25.2225   21.9929   11.9187 H   0  0  0  0  0  0
   26.5091   25.7504   13.5414 H   0  0  0  0  0  0
   26.8874   24.6899   15.7460 H   0  0  0  0  0  0
   27.9660   20.3746   20.1568 H   0  0  0  0  0  0
   30.3847   20.8387   19.6967 H   0  0  0  0  0  0
   31.0695   21.9427   17.5935 H   0  0  0  0  0  0
   29.3813   22.6100   15.8995 H   0  0  0  0  0  0
   18.1536   20.0068   15.1240 H   0  0  0  0  0  0
   19.7359   19.1924   15.2920 H   0  0  0  0  0  0
   19.6242   20.7912   14.4775 H   0  0  0  0  0  0
  1  2  2  0  0  0
  1  5  1  0  0  0
  1  7  1  0  0  0
  2  3  1  0  0  0
  2  6  1  0  0  0
  3  4  1  0  0  0
  4  5  2  0  0  0
  4 18  1  0  0  0
  5 21  1  0  0  0
  6  8  2  0  0  0
  6 12  1  0  0  0
  7 13  2  0  0  0
  7 17  1  0  0  0
  8  9  1  0  0  0
  8 27  1  0  0  0
  9 10  2  0  0  0
  9 28  1  0  0  0
 10 11  1  0  0  0
 10 23  1  0  0  0
 11 12  2  0  0  0
 11 29  1  0  0  0
 12 30  1  0  0  0
 13 14  1  0  0  0
 13 31  1  0  0  0
 14 15  2  0  0  0
 14 32  1  0  0  0
 15 16  1  0  0  0
 15 22  1  0  0  0
 16 17  2  0  0  0
 16 33  1  0  0  0
 17 34  1  0  0  0
 18 19  2  0  0  0
 18 35  1  0  0  0
 19 20  1  0  0  0
 19 36  1  0  0  0
 20 21  2  0  0  0
 20 37  1  0  0  0
 21 38  1  0  0  0
 23 24  2  0  0  0
 23 25  2  0  0  0
 23 26  1  0  0  0
 26 39  1  0  0  0
 26 40  1  0  0  0
 26 41  1  0  0  0
M  END
>  <Name>
14-7

>  <Family>
L

>  <IC50_uM>
0.020000

>  <set>
2

$$$$
14-13
  Cerius2 12120216103D 1   1.00000                          
 Structure written by MMmdl.
 42 45  0  0  0  0  0  0  0  0999 V2000
   26.4394   22.0634   16.4055 C   0  0  0  0  0  0
   25.5429   21.5295   17.2730 C   0  0  0  0  0  0
   26.1925   20.9795   18.5320 C   0  0  0  0  0  0
   27.6378   21.2430   18.2518 C   0  0  0  0  0  0
   27.7688   21.8783   17.0122 C   0  0  0  0  0  0
   24.0832   21.4341   17.1264 C   0  0  0  0  0  0
   26.1194   22.6977   15.1192 C   0  0  0  0  0  0
   23.3905   22.2909   16.2575 C   0  0  0  0  0  0
   22.0035   22.1909   16.1083 C   0  0  0  0  0  0
   21.2985   21.2273   16.8322 C   0  0  0  0  0  0
   21.9738   20.3551   17.6887 C   0  0  0  0  0  0
   23.3612   20.4611   17.8328 C   0  0  0  0  0  0
   25.5691   21.9373   14.0768 C   0  0  0  0  0  0
   25.2656   22.5342   12.8512 C   0  0  0  0  0  0
   25.5154   23.8889   12.6683 C   0  0  0  0  0  0
   26.0645   24.6588   13.6864 C   0  0  0  0  0  0
   26.3687   24.0629   14.9123 C   0  0  0  0  0  0
   28.7393   20.9493   19.0399 C   0  0  0  0  0  0
   30.0017   21.3085   18.5654 C   0  0  0  0  0  0
   30.1423   21.9515   17.3255 C   0  0  0  0  0  0
   29.0213   22.2425   16.5411 C   0  0  0  0  0  0
   25.2239   24.4608   11.4924 F   0  0  0  0  0  0
   19.5463   21.0730   16.6183 S   0  0  0  0  0  0
   18.9677   22.3922   16.4329 O   0  0  0  0  0  0
   19.0178   20.1740   17.6291 O   0  0  0  0  0  0
   19.4404   20.2783   15.1478 N   0  0  0  0  0  0
   26.0052   19.9062   18.6381 H   0  0  0  0  0  0
   25.8729   21.5203   19.4278 H   0  0  0  0  0  0
   23.9255   23.0414   15.6775 H   0  0  0  0  0  0
   21.4877   22.8666   15.4295 H   0  0  0  0  0  0
   21.4337   19.5967   18.2513 H   0  0  0  0  0  0
   23.8669   19.7808   18.5164 H   0  0  0  0  0  0
   25.3664   20.8763   14.2147 H   0  0  0  0  0  0
   24.8365   21.9475   12.0441 H   0  0  0  0  0  0
   26.2549   25.7160   13.5255 H   0  0  0  0  0  0
   26.8021   24.6711   15.7047 H   0  0  0  0  0  0
   28.6282   20.4557   20.0019 H   0  0  0  0  0  0
   30.8865   21.0912   19.1626 H   0  0  0  0  0  0
   31.1348   22.2280   16.9722 H   0  0  0  0  0  0
   29.1418   22.7450   15.5854 H   0  0  0  0  0  0
   18.9584   20.8530   14.4517 H   0  0  0  0  0  0
   18.9915   19.3650   15.2535 H   0  0  0  0  0  0
  1  2  2  0  0  0
  1  5  1  0  0  0
  1  7  1  0  0  0
  2  3  1  0  0  0
  2  6  1  0  0  0
  3  4  1  0  0  0
  3 27  1  0  0  0
  3 28  1  0  0  0
  4  5  2  0  0  0
  4 18  1  0  0  0
  5 21  1  0  0  0
  6  8  2  0  0  0
  6 12  1  0  0  0
  7 13  2  0  0  0
  7 17  1  0  0  0
  8  9  1  0  0  0
  8 29  1  0  0  0
  9 10  2  0  0  0
  9 30  1  0  0  0
 10 11  1  0  0  0
 10 23  1  0  0  0
 11 12  2  0  0  0
 11 31  1  0  0  0
 12 32  1  0  0  0
 13 14  1  0  0  0
 13 33  1  0  0  0
 14 15  2  0  0  0
 14 34  1  0  0  0
 15 16  1  0  0  0
 15 22  1  0  0  0
 16 17  2  0  0  0
 16 35  1  0  0  0
 17 36  1  0  0  0
 18 19  2  0  0  0
 18 37  1  0  0  0
 19 20  1  0  0  0
 19 38  1  0  0  0
 20 21  2  0  0  0
 20 39  1  0  0  0
 21 40  1  0  0  0
 23 24  2  0  0  0
 23 25  2  0  0  0
 23 26  1  0  0  0
 26 41  1  0  0  0
 26 42  1  0  0  0
M  END
>  <Name>
14-13

>  <Family>
L

>  <IC50_uM>
0.005000

>  <set>
2

$$$$
14-12
  Cerius2 12120216103D 1   1.00000                          
 Structure written by MMmdl.
 40 43  0  0  0  0  0  0  0  0999 V2000
   26.4691   22.0796   16.3763 C   0  0  0  0  0  0
   25.4654   21.5736   17.1929 C   0  0  0  0  0  0
   26.0165   21.0729   18.3424 O   0  0  0  0  0  0
   27.3624   21.2399   18.2618 C   0  0  0  0  0  0
   27.7023   21.8566   17.0652 C   0  0  0  0  0  0
   24.0138   21.4336   17.1047 C   0  0  0  0  0  0
   26.2519   22.7188   15.0906 C   0  0  0  0  0  0
   23.2552   22.2737   16.2755 C   0  0  0  0  0  0
   21.8648   22.1377   16.1964 C   0  0  0  0  0  0
   21.2209   21.1558   16.9529 C   0  0  0  0  0  0
   21.9589   20.3011   17.7734 C   0  0  0  0  0  0
   23.3490   20.4434   17.8467 C   0  0  0  0  0  0
   25.7897   21.9645   14.0028 C   0  0  0  0  0  0
   25.5834   22.5729   12.7625 C   0  0  0  0  0  0
   25.8431   23.9300   12.6124 C   0  0  0  0  0  0
   26.3074   24.6917   13.6783 C   0  0  0  0  0  0
   26.5150   24.0859   14.9195 C   0  0  0  0  0  0
   28.2815   20.8542   19.2352 C   0  0  0  0  0  0
   29.6273   21.1206   18.9643 C   0  0  0  0  0  0
   30.0141   21.7443   17.7761 C   0  0  0  0  0  0
   29.0637   22.1210   16.8161 C   0  0  0  0  0  0
   25.6450   24.5121   11.4222 F   0  0  0  0  0  0
   19.4634   20.9676   16.8237 S   0  0  0  0  0  0
   18.8477   22.2738   16.6684 O   0  0  0  0  0  0
   19.0070   20.0568   17.8587 O   0  0  0  0  0  0
   19.3024   20.1755   15.3568 N   0  0  0  0  0  0
   23.7368   23.0392   15.6693 H   0  0  0  0  0  0
   21.2969   22.8002   15.5465 H   0  0  0  0  0  0
   21.4688   19.5279   18.3610 H   0  0  0  0  0  0
   23.9108   19.7740   18.4976 H   0  0  0  0  0  0
   25.5792   20.9018   14.1122 H   0  0  0  0  0  0
   25.2218   21.9931   11.9181 H   0  0  0  0  0  0
   26.5081   25.7504   13.5417 H   0  0  0  0  0  0
   26.8860   24.6896   15.7462 H   0  0  0  0  0  0
   27.9675   20.3733   20.1552 H   0  0  0  0  0  0
   30.3857   20.8386   19.6943 H   0  0  0  0  0  0
   31.0694   21.9433   17.5912 H   0  0  0  0  0  0
   29.3803   22.6101   15.8979 H   0  0  0  0  0  0
   18.7763   20.7429   14.6872 H   0  0  0  0  0  0
   18.8765   19.2533   15.4803 H   0  0  0  0  0  0
  1  2  2  0  0  0
  1  5  1  0  0  0
  1  7  1  0  0  0
  2  3  1  0  0  0
  2  6  1  0  0  0
  3  4  1  0  0  0
  4  5  2  0  0  0
  4 18  1  0  0  0
  5 21  1  0  0  0
  6  8  2  0  0  0
  6 12  1  0  0  0
  7 13  2  0  0  0
  7 17  1  0  0  0
  8  9  1  0  0  0
  8 27  1  0  0  0
  9 10  2  0  0  0
  9 28  1  0  0  0
 10 11  1  0  0  0
 10 23  1  0  0  0
 11 12  2  0  0  0
 11 29  1  0  0  0
 12 30  1  0  0  0
 13 14  1  0  0  0
 13 31  1  0  0  0
 14 15  2  0  0  0
 14 32  1  0  0  0
 15 16  1  0  0  0
 15 22  1  0  0  0
 16 17  2  0  0  0
 16 33  1  0  0  0
 17 34  1  0  0  0
 18 19  2  0  0  0
 18 35  1  0  0  0
 19 20  1  0  0  0
 19 36  1  0  0  0
 20 21  2  0  0  0
 20 37  1  0  0  0
 21 38  1  0  0  0
 23 24  2  0  0  0
 23 25  2  0  0  0
 23 26  1  0  0  0
 26 39  1  0  0  0
 26 40  1  0  0  0
M  END
>  <Name>
14-12

>  <Family>
L

>  <IC50_uM>
0.007000

>  <set>
2

$$$$
14-14
  Cerius2 12120216103D 1   1.00000                          
 Structure written by MMmdl.
 45 48  0  0  0  0  0  0  0  0999 V2000
   26.4724   22.0773   16.3765 C   0  0  0  0  0  0
   25.4673   21.5747   17.1935 C   0  0  0  0  0  0
   26.0158   21.0795   18.3464 O   0  0  0  0  0  0
   27.3620   21.2459   18.2676 C   0  0  0  0  0  0
   27.7043   21.8571   17.0688 C   0  0  0  0  0  0
   24.0161   21.4338   17.1026 C   0  0  0  0  0  0
   26.2575   22.7100   15.0874 C   0  0  0  0  0  0
   23.2589   22.2734   16.2716 C   0  0  0  0  0  0
   21.8687   22.1376   16.1901 C   0  0  0  0  0  0
   21.2251   21.1570   16.9472 C   0  0  0  0  0  0
   21.9611   20.3011   17.7680 C   0  0  0  0  0  0
   23.3507   20.4434   17.8434 C   0  0  0  0  0  0
   26.5103   24.0749   14.9256 C   0  0  0  0  0  0
   26.2986   24.6854   13.6885 C   0  0  0  0  0  0
   25.8294   23.9555   12.5930 C   0  0  0  0  0  0
   25.5723   22.5916   12.7618 C   0  0  0  0  0  0
   25.7812   21.9714   13.9984 C   0  0  0  0  0  0
   28.2790   20.8642   19.2444 C   0  0  0  0  0  0
   29.6255   21.1286   18.9747 C   0  0  0  0  0  0
   30.0147   21.7466   17.7843 C   0  0  0  0  0  0
   29.0662   22.1199   16.8212 C   0  0  0  0  0  0
   19.4603   20.9698   16.8266 S   0  0  0  0  0  0
   18.8705   22.3025   16.7447 O   0  0  0  0  0  0
   19.0302   20.0856   17.9052 O   0  0  0  0  0  0
   19.2302   20.1436   15.2747 C   0  0  0  0  0  0
   26.5635   25.9965   13.5941 F   0  0  0  0  0  0
   25.5782   24.4211   11.3308 O   0  0  0  0  0  0
   25.8205   25.8043   11.0865 C   0  0  0  0  0  0
   23.7418   23.0374   15.6647 H   0  0  0  0  0  0
   21.3050   22.7996   15.5359 H   0  0  0  0  0  0
   21.4713   19.5265   18.3543 H   0  0  0  0  0  0
   23.9119   19.7738   18.4944 H   0  0  0  0  0  0
   26.8804   24.6788   15.7502 H   0  0  0  0  0  0
   25.2031   21.9990   11.9263 H   0  0  0  0  0  0
   25.5631   20.9090   14.0978 H   0  0  0  0  0  0
   27.9631   20.3878   20.1661 H   0  0  0  0  0  0
   30.3825   20.8493   19.7072 H   0  0  0  0  0  0
   31.0704   21.9441   17.6005 H   0  0  0  0  0  0
   29.3854   22.6050   15.9017 H   0  0  0  0  0  0
   18.1587   19.9936   15.1263 H   0  0  0  0  0  0
   19.7393   19.1786   15.3060 H   0  0  0  0  0  0
   19.6320   20.7695   14.4757 H   0  0  0  0  0  0
   25.5719   26.0043   10.0397 H   0  0  0  0  0  0
   26.8778   26.0497   11.2284 H   0  0  0  0  0  0
   25.1733   26.4328   11.7064 H   0  0  0  0  0  0
  1  2  2  0  0  0
  1  5  1  0  0  0
  1  7  1  0  0  0
  2  3  1  0  0  0
  2  6  1  0  0  0
  3  4  1  0  0  0
  4  5  2  0  0  0
  4 18  1  0  0  0
  5 21  1  0  0  0
  6  8  2  0  0  0
  6 12  1  0  0  0
  7 13  2  0  0  0
  7 17  1  0  0  0
  8  9  1  0  0  0
  8 29  1  0  0  0
  9 10  2  0  0  0
  9 30  1  0  0  0
 10 11  1  0  0  0
 10 22  1  0  0  0
 11 12  2  0  0  0
 11 31  1  0  0  0
 12 32  1  0  0  0
 13 14  1  0  0  0
 13 33  1  0  0  0
 14 15  2  0  0  0
 14 26  1  0  0  0
 15 16  1  0  0  0
 15 27  1  0  0  0
 16 17  2  0  0  0
 16 34  1  0  0  0
 17 35  1  0  0  0
 18 19  2  0  0  0
 18 36  1  0  0  0
 19 20  1  0  0  0
 19 37  1  0  0  0
 20 21  2  0  0  0
 20 38  1  0  0  0
 21 39  1  0  0  0
 22 23  2  0  0  0
 22 24  2  0  0  0
 22 25  1  0  0  0
 25 40  1  0  0  0
 25 41  1  0  0  0
 25 42  1  0  0  0
 27 28  1  0  0  0
 28 43  1  0  0  0
 28 44  1  0  0  0
 28 45  1  0  0  0
M  END
>  <Name>
14-14

>  <Family>
L

>  <IC50_uM>
0.093000

>  <set>
2

$$$$
14-15
  Cerius2 12120216103D 1   1.00000                          
 Structure written by MMmdl.
 44 47  0  0  0  0  0  0  0  0999 V2000
   26.4718   22.0767   16.3758 C   0  0  0  0  0  0
   25.4668   21.5749   17.1936 C   0  0  0  0  0  0
   26.0158   21.0789   18.3458 O   0  0  0  0  0  0
   27.3620   21.2445   18.2663 C   0  0  0  0  0  0
   27.7040   21.8558   17.0675 C   0  0  0  0  0  0
   24.0154   21.4353   17.1044 C   0  0  0  0  0  0
   26.2573   22.7096   15.0868 C   0  0  0  0  0  0
   23.2575   22.2754   16.2746 C   0  0  0  0  0  0
   21.8672   22.1391   16.1945 C   0  0  0  0  0  0
   21.2228   21.1572   16.9506 C   0  0  0  0  0  0
   21.9605   20.3026   17.7715 C   0  0  0  0  0  0
   23.3504   20.4450   17.8459 C   0  0  0  0  0  0
   26.5103   24.0744   14.9255 C   0  0  0  0  0  0
   26.2981   24.6854   13.6888 C   0  0  0  0  0  0
   25.8288   23.9560   12.5930 C   0  0  0  0  0  0
   25.5715   22.5921   12.7615 C   0  0  0  0  0  0
   25.7805   21.9715   13.9978 C   0  0  0  0  0  0
   28.2795   20.8622   19.2425 C   0  0  0  0  0  0
   29.6260   21.1257   18.9721 C   0  0  0  0  0  0
   30.0148   21.7438   17.7816 C   0  0  0  0  0  0
   29.0659   22.1180   16.8191 C   0  0  0  0  0  0
   19.4657   20.9679   16.8202 S   0  0  0  0  0  0
   18.8628   22.2533   16.5141 O   0  0  0  0  0  0
   18.9892   20.1795   17.9428 O   0  0  0  0  0  0
   19.3159   20.0203   15.4474 N   0  0  0  0  0  0
   26.5625   25.9969   13.5949 F   0  0  0  0  0  0
   25.5778   24.4220   11.3308 O   0  0  0  0  0  0
   25.8191   25.8054   11.0872 C   0  0  0  0  0  0
   23.7393   23.0406   15.6682 H   0  0  0  0  0  0
   21.2996   22.8012   15.5440 H   0  0  0  0  0  0
   21.4702   19.5290   18.3585 H   0  0  0  0  0  0
   23.9121   19.7756   18.4969 H   0  0  0  0  0  0
   26.8803   24.6781   15.7504 H   0  0  0  0  0  0
   25.2019   22.0000   11.9258 H   0  0  0  0  0  0
   25.5621   20.9091   14.0970 H   0  0  0  0  0  0
   27.9637   20.3859   20.1644 H   0  0  0  0  0  0
   30.3832   20.8456   19.7039 H   0  0  0  0  0  0
   31.0705   21.9406   17.5970 H   0  0  0  0  0  0
   29.3849   22.6032   15.8995 H   0  0  0  0  0  0
   18.8023   20.5142   14.7129 H   0  0  0  0  0  0
   18.8811   19.1201   15.6659 H   0  0  0  0  0  0
   25.5724   26.0054   10.0400 H   0  0  0  0  0  0
   26.8758   26.0523   11.2311 H   0  0  0  0  0  0
   25.1698   26.4331   11.7059 H   0  0  0  0  0  0
  1  2  2  0  0  0
  1  5  1  0  0  0
  1  7  1  0  0  0
  2  3  1  0  0  0
  2  6  1  0  0  0
  3  4  1  0  0  0
  4  5  2  0  0  0
  4 18  1  0  0  0
  5 21  1  0  0  0
  6  8  2  0  0  0
  6 12  1  0  0  0
  7 13  2  0  0  0
  7 17  1  0  0  0
  8  9  1  0  0  0
  8 29  1  0  0  0
  9 10  2  0  0  0
  9 30  1  0  0  0
 10 11  1  0  0  0
 10 22  1  0  0  0
 11 12  2  0  0  0
 11 31  1  0  0  0
 12 32  1  0  0  0
 13 14  1  0  0  0
 13 33  1  0  0  0
 14 15  2  0  0  0
 14 26  1  0  0  0
 15 16  1  0  0  0
 15 27  1  0  0  0
 16 17  2  0  0  0
 16 34  1  0  0  0
 17 35  1  0  0  0
 18 19  2  0  0  0
 18 36  1  0  0  0
 19 20  1  0  0  0
 19 37  1  0  0  0
 20 21  2  0  0  0
 20 38  1  0  0  0
 21 39  1  0  0  0
 22 23  2  0  0  0
 22 24  2  0  0  0
 22 25  1  0  0  0
 25 40  1  0  0  0
 25 41  1  0  0  0
 27 28  1  0  0  0
 28 42  1  0  0  0
 28 43  1  0  0  0
 28 44  1  0  0  0
M  END
>  <Name>
14-15

>  <Family>
L

>  <IC50_uM>
0.005000

>  <set>
2

$$$$
14-16
  Cerius2 12120216103D 1   1.00000                          
 Structure written by MMmdl.
 45 48  0  0  0  0  0  0  0  0999 V2000
   26.4717   22.0805   16.3781 C   0  0  0  0  0  0
   25.4666   21.5720   17.1918 C   0  0  0  0  0  0
   26.0144   21.0752   18.3439 O   0  0  0  0  0  0
   27.3600   21.2471   18.2690 C   0  0  0  0  0  0
   27.7029   21.8633   17.0728 C   0  0  0  0  0  0
   24.0154   21.4291   17.0978 C   0  0  0  0  0  0
   26.2560   22.7130   15.0888 C   0  0  0  0  0  0
   23.2579   22.2678   16.2660 C   0  0  0  0  0  0
   21.8673   22.1353   16.1877 C   0  0  0  0  0  0
   21.2233   21.1574   16.9473 C   0  0  0  0  0  0
   21.9594   20.3001   17.7667 C   0  0  0  0  0  0
   23.3492   20.4405   17.8402 C   0  0  0  0  0  0
   26.5074   24.0781   14.9269 C   0  0  0  0  0  0
   26.3042   24.6855   13.6835 C   0  0  0  0  0  0
   25.8442   23.9440   12.5821 C   0  0  0  0  0  0
   25.5864   22.5811   12.7541 C   0  0  0  0  0  0
   25.7876   21.9715   13.9986 C   0  0  0  0  0  0
   28.2762   20.8667   19.2473 C   0  0  0  0  0  0
   29.6223   21.1384   18.9826 C   0  0  0  0  0  0
   30.0119   21.7611   17.7948 C   0  0  0  0  0  0
   29.0646   22.1323   16.8297 C   0  0  0  0  0  0
   19.4577   20.9721   16.8371 S   0  0  0  0  0  0
   18.8710   22.3067   16.7657 O   0  0  0  0  0  0
   19.0311   20.0832   17.9135 O   0  0  0  0  0  0
   19.2175   20.1518   15.2835 C   0  0  0  0  0  0
   26.6422   26.3784   13.5454 Cl  0  0  0  0  0  0
   25.6776   24.6240   11.4027 O   0  0  0  0  0  0
   25.2283   23.8769   10.2743 C   0  0  0  0  0  0
   23.7409   23.0305   15.6574 H   0  0  0  0  0  0
   21.3043   22.7989   15.5348 H   0  0  0  0  0  0
   21.4687   19.5268   18.3539 H   0  0  0  0  0  0
   23.9101   19.7715   18.4923 H   0  0  0  0  0  0
   26.8711   24.6710   15.7636 H   0  0  0  0  0  0
   25.2255   21.9551   11.9424 H   0  0  0  0  0  0
   25.5718   20.9087   14.1021 H   0  0  0  0  0  0
   27.9599   20.3863   20.1668 H   0  0  0  0  0  0
   30.3784   20.8614   19.7169 H   0  0  0  0  0  0
   31.0672   21.9638   17.6145 H   0  0  0  0  0  0
   29.3842   22.6211   15.9124 H   0  0  0  0  0  0
   18.1452   20.0007   15.1420 H   0  0  0  0  0  0
   19.7286   19.1875   15.3075 H   0  0  0  0  0  0
   19.6125   20.7811   14.4838 H   0  0  0  0  0  0
   25.1598   24.5650    9.4263 H   0  0  0  0  0  0
   24.2298   23.4630   10.4491 H   0  0  0  0  0  0
   25.9450   23.0924   10.0104 H   0  0  0  0  0  0
  1  2  2  0  0  0
  1  5  1  0  0  0
  1  7  1  0  0  0
  2  3  1  0  0  0
  2  6  1  0  0  0
  3  4  1  0  0  0
  4  5  2  0  0  0
  4 18  1  0  0  0
  5 21  1  0  0  0
  6  8  2  0  0  0
  6 12  1  0  0  0
  7 13  2  0  0  0
  7 17  1  0  0  0
  8  9  1  0  0  0
  8 29  1  0  0  0
  9 10  2  0  0  0
  9 30  1  0  0  0
 10 11  1  0  0  0
 10 22  1  0  0  0
 11 12  2  0  0  0
 11 31  1  0  0  0
 12 32  1  0  0  0
 13 14  1  0  0  0
 13 33  1  0  0  0
 14 15  2  0  0  0
 14 26  1  0  0  0
 15 16  1  0  0  0
 15 27  1  0  0  0
 16 17  2  0  0  0
 16 34  1  0  0  0
 17 35  1  0  0  0
 18 19  2  0  0  0
 18 36  1  0  0  0
 19 20  1  0  0  0
 19 37  1  0  0  0
 20 21  2  0  0  0
 20 38  1  0  0  0
 21 39  1  0  0  0
 22 23  2  0  0  0
 22 24  2  0  0  0
 22 25  1  0  0  0
 25 40  1  0  0  0
 25 41  1  0  0  0
 25 42  1  0  0  0
 27 28  1  0  0  0
 28 43  1  0  0  0
 28 44  1  0  0  0
 28 45  1  0  0  0
M  END
>  <Name>
14-16

>  <Family>
L

>  <IC50_uM>
0.100000

>  <set>
0

$$$$
14-17
  Cerius2 12120216103D 1   1.00000                          
 Structure written by MMmdl.
 44 47  0  0  0  0  0  0  0  0999 V2000
   26.4714   22.0799   16.3781 C   0  0  0  0  0  0
   25.4667   21.5745   17.1944 C   0  0  0  0  0  0
   26.0154   21.0761   18.3457 O   0  0  0  0  0  0
   27.3618   21.2400   18.2657 C   0  0  0  0  0  0
   27.7038   21.8547   17.0683 C   0  0  0  0  0  0
   24.0158   21.4331   17.1021 C   0  0  0  0  0  0
   26.2550   22.7116   15.0886 C   0  0  0  0  0  0
   23.2594   22.2729   16.2704 C   0  0  0  0  0  0
   21.8687   22.1399   16.1910 C   0  0  0  0  0  0
   21.2231   21.1604   16.9485 C   0  0  0  0  0  0
   21.9601   20.3039   17.7687 C   0  0  0  0  0  0
   23.3500   20.4437   17.8434 C   0  0  0  0  0  0
   26.5079   24.0762   14.9264 C   0  0  0  0  0  0
   26.2985   24.6852   13.6848 C   0  0  0  0  0  0
   25.8310   23.9457   12.5851 C   0  0  0  0  0  0
   25.5739   22.5826   12.7565 C   0  0  0  0  0  0
   25.7821   21.9716   13.9995 C   0  0  0  0  0  0
   28.2796   20.8521   19.2395 C   0  0  0  0  0  0
   29.6266   21.1122   18.9676 C   0  0  0  0  0  0
   30.0154   21.7329   17.7784 C   0  0  0  0  0  0
   29.0661   22.1136   16.8189 C   0  0  0  0  0  0
   19.4658   20.9672   16.8254 S   0  0  0  0  0  0
   18.8552   22.2669   16.6073 O   0  0  0  0  0  0
   19.0018   20.1073   17.8997 O   0  0  0  0  0  0
   19.3089   20.1031   15.3996 N   0  0  0  0  0  0
   26.6365   26.3782   13.5470 Cl  0  0  0  0  0  0
   25.6575   24.6282   11.4080 O   0  0  0  0  0  0
   25.2016   23.8837   10.2804 C   0  0  0  0  0  0
   23.7427   23.0358   15.6625 H   0  0  0  0  0  0
   21.3036   22.8035   15.5397 H   0  0  0  0  0  0
   21.4669   19.5321   18.3561 H   0  0  0  0  0  0
   23.9105   19.7738   18.4947 H   0  0  0  0  0  0
   26.8758   24.6681   15.7621 H   0  0  0  0  0  0
   25.2076   21.9587   11.9456 H   0  0  0  0  0  0
   25.5660   20.9086   14.1030 H   0  0  0  0  0  0
   27.9638   20.3738   20.1603 H   0  0  0  0  0  0
   30.3841   20.8275   19.6973 H   0  0  0  0  0  0
   31.0715   21.9259   17.5922 H   0  0  0  0  0  0
   29.3850   22.6004   15.9003 H   0  0  0  0  0  0
   18.7844   20.6360   14.7010 H   0  0  0  0  0  0
   18.8831   19.1880   15.5679 H   0  0  0  0  0  0
   25.1301   24.5734    9.4341 H   0  0  0  0  0  0
   24.2035   23.4710   10.4590 H   0  0  0  0  0  0
   25.9162   23.0992   10.0110 H   0  0  0  0  0  0
  1  2  2  0  0  0
  1  5  1  0  0  0
  1  7  1  0  0  0
  2  3  1  0  0  0
  2  6  1  0  0  0
  3  4  1  0  0  0
  4  5  2  0  0  0
  4 18  1  0  0  0
  5 21  1  0  0  0
  6  8  2  0  0  0
  6 12  1  0  0  0
  7 13  2  0  0  0
  7 17  1  0  0  0
  8  9  1  0  0  0
  8 29  1  0  0  0
  9 10  2  0  0  0
  9 30  1  0  0  0
 10 11  1  0  0  0
 10 22  1  0  0  0
 11 12  2  0  0  0
 11 31  1  0  0  0
 12 32  1  0  0  0
 13 14  1  0  0  0
 13 33  1  0  0  0
 14 15  2  0  0  0
 14 26  1  0  0  0
 15 16  1  0  0  0
 15 27  1  0  0  0
 16 17  2  0  0  0
 16 34  1  0  0  0
 17 35  1  0  0  0
 18 19  2  0  0  0
 18 36  1  0  0  0
 19 20  1  0  0  0
 19 37  1  0  0  0
 20 21  2  0  0  0
 20 38  1  0  0  0
 21 39  1  0  0  0
 22 23  2  0  0  0
 22 24  2  0  0  0
 22 25  1  0  0  0
 25 40  1  0  0  0
 25 41  1  0  0  0
 27 28  1  0  0  0
 28 42  1  0  0  0
 28 43  1  0  0  0
 28 44  1  0  0  0
M  END
>  <Name>
14-17

>  <Family>
L

>  <IC50_uM>
0.020000

>  <set>
0

$$$$
7-39
  Cerius2 12120216103D 1   1.00000                          
 Structure written by MMmdl.
 36 38  0  0  0  0  0  0  0  0999 V2000
   26.4864   22.0717   16.4736 C   0  0  0  0  0  0
   25.5801   21.4511   17.3577 C   0  0  0  0  0  0
   24.1194   21.3867   17.1595 C   0  0  0  0  0  0
   26.1210   22.6715   15.1776 C   0  0  0  0  0  0
   23.4507   22.2734   16.2947 C   0  0  0  0  0  0
   22.0655   22.2000   16.1116 C   0  0  0  0  0  0
   21.3266   21.2433   16.8096 C   0  0  0  0  0  0
   21.9626   20.3551   17.6775 C   0  0  0  0  0  0
   23.3482   20.4350   17.8533 C   0  0  0  0  0  0
   26.3666   24.0358   14.9290 C   0  0  0  0  0  0
   26.0249   24.6192   13.7058 C   0  0  0  0  0  0
   25.4425   23.8398   12.7157 C   0  0  0  0  0  0
   25.1991   22.4887   12.9240 C   0  0  0  0  0  0
   25.5411   21.9063   14.1478 C   0  0  0  0  0  0
   26.0106   20.8619   18.5154 N   0  0  0  0  0  0
   27.3396   20.9288   18.7686 C   0  0  0  0  0  0
   28.2233   21.5559   17.9142 C   0  0  0  0  0  0
   27.8233   22.1372   16.7580 N   0  0  0  0  0  0
   19.5685   21.1369   16.5623 S   0  0  0  0  0  0
   19.0864   22.4596   16.1764 O   0  0  0  0  0  0
   18.9893   20.5043   17.7433 O   0  0  0  0  0  0
   19.4028   20.0407   15.1786 C   0  0  0  0  0  0
   25.1162   24.3970   11.5421 F   0  0  0  0  0  0
   24.0053   23.0395   15.7534 H   0  0  0  0  0  0
   21.5787   22.8957   15.4311 H   0  0  0  0  0  0
   21.3975   19.6036   18.2245 H   0  0  0  0  0  0
   23.8320   19.7387   18.5386 H   0  0  0  0  0  0
   26.8264   24.6558   15.6986 H   0  0  0  0  0  0
   26.2138   25.6738   13.5264 H   0  0  0  0  0  0
   24.7493   21.8907   12.1364 H   0  0  0  0  0  0
   25.3548   20.8420   14.2880 H   0  0  0  0  0  0
   27.6836   20.4644   19.6871 H   0  0  0  0  0  0
   29.2838   21.6022   18.1397 H   0  0  0  0  0  0
   18.3387   19.9299   14.9596 H   0  0  0  0  0  0
   19.8309   19.0710   15.4395 H   0  0  0  0  0  0
   19.9161   20.4737   14.3183 H   0  0  0  0  0  0
  1  2  2  0  0  0
  1  4  1  0  0  0
  1 18  1  0  0  0
  2  3  1  0  0  0
  2 15  1  0  0  0
  3  5  2  0  0  0
  3  9  1  0  0  0
  4 10  2  0  0  0
  4 14  1  0  0  0
  5  6  1  0  0  0
  5 24  1  0  0  0
  6  7  2  0  0  0
  6 25  1  0  0  0
  7  8  1  0  0  0
  7 19  1  0  0  0
  8  9  2  0  0  0
  8 26  1  0  0  0
  9 27  1  0  0  0
 10 11  1  0  0  0
 10 28  1  0  0  0
 11 12  2  0  0  0
 11 29  1  0  0  0
 12 13  1  0  0  0
 12 23  1  0  0  0
 13 14  2  0  0  0
 13 30  1  0  0  0
 14 31  1  0  0  0
 15 16  2  0  0  0
 16 17  1  0  0  0
 16 32  1  0  0  0
 17 18  2  0  0  0
 17 33  1  0  0  0
 19 20  2  0  0  0
 19 21  2  0  0  0
 19 22  1  0  0  0
 22 34  1  0  0  0
 22 35  1  0  0  0
 22 36  1  0  0  0
M  END
>  <Name>
7-39

>  <Family>
M

>  <IC50_uM>
>100

>  <set>
2

$$$$
