lit-1
  Cerius2 12180216403D 1   1.00000                          
 Structure written by MMmdl.
 44 47  0  0  0  0  0  0  0  0999 V2000
   -6.7900   -4.1043   16.7444 C   0  0  0  0  0  0
   -5.4076   -4.1404   16.6599 C   0  0  0  0  0  0
   -4.7826   -4.4465   15.4579 C   0  0  0  0  0  0
   -7.5603   -4.3694   15.6094 C   0  0  0  0  0  0
   -6.9596   -4.6606   14.3710 C   0  0  0  0  0  0
   -5.5492   -4.7237   14.3105 C   0  0  0  0  0  0
   -4.8095   -5.0302   13.0287 C   0  0  0  0  0  0
   -5.6913   -5.6032   11.9233 C   0  0  0  0  0  0
   -7.8046   -4.9957   13.1421 C   0  0  0  0  0  0
   -6.9911   -4.8017   11.8263 C   0  0  0  0  0  0
   -9.9758   -4.5951   11.7928 C   0  0  0  0  0  0
   -9.1739   -4.2687   13.0673 C   0  0  0  0  0  0
   -9.1429   -4.3817   10.5218 C   0  0  0  0  0  0
   -7.8600   -5.2319   10.6428 C   0  0  0  0  0  0
   -7.2701   -5.1938    9.2324 C   0  0  0  0  0  0
   -8.5099   -5.1801    8.3196 C   0  0  0  0  0  0
   -9.7404   -5.0066    9.2416 C   0  0  0  0  0  0
   -8.8995   -2.8639   10.3198 C   0  0  0  0  0  0
  -10.7490   -4.1895    8.6540 O   0  0  0  0  0  0
   -8.6499   -6.8655    7.3345 Br  0  0  0  0  0  0
   -4.6876   -3.8729   17.7862 O   0  0  0  0  0  0
   -7.2787   -3.8754   17.6889 H   0  0  0  0  0  0
   -3.6959   -4.4756   15.3968 H   0  0  0  0  0  0
   -8.6424   -4.3495   15.7207 H   0  0  0  0  0  0
   -3.9963   -5.7380   13.2301 H   0  0  0  0  0  0
   -4.3533   -4.0970   12.6739 H   0  0  0  0  0  0
   -5.9142   -6.6576   12.1318 H   0  0  0  0  0  0
   -5.1355   -5.5756   10.9796 H   0  0  0  0  0  0
   -8.0301   -6.0692   13.2378 H   0  0  0  0  0  0
   -6.7182   -3.7445   11.7148 H   0  0  0  0  0  0
  -10.8875   -3.9863   11.7653 H   0  0  0  0  0  0
  -10.3061   -5.6404   11.8519 H   0  0  0  0  0  0
   -9.0237   -3.1855   13.1483 H   0  0  0  0  0  0
   -9.8005   -4.5535   13.9205 H   0  0  0  0  0  0
   -8.1497   -6.2806   10.8240 H   0  0  0  0  0  0
   -6.5929   -6.0348    9.0536 H   0  0  0  0  0  0
   -6.6911   -4.2742    9.0866 H   0  0  0  0  0  0
   -8.4408   -4.4044    7.5507 H   0  0  0  0  0  0
  -10.2058   -5.9708    9.4830 H   0  0  0  0  0  0
   -8.3419   -2.6478    9.4032 H   0  0  0  0  0  0
   -8.3441   -2.4105   11.1449 H   0  0  0  0  0  0
   -9.8529   -2.3274   10.2489 H   0  0  0  0  0  0
  -11.0275   -4.6485    7.8334 H   0  0  0  0  0  0
   -3.7336   -3.9381   17.5666 H   0  0  0  0  0  0
  1  2  2  0  0  0
  1  4  1  0  0  0
  1 22  1  0  0  0
  2  3  1  0  0  0
  2 21  1  0  0  0
  3  6  2  0  0  0
  3 23  1  0  0  0
  4  5  2  0  0  0
  4 24  1  0  0  0
  5  6  1  0  0  0
  5  9  1  0  0  0
  6  7  1  0  0  0
  7  8  1  0  0  0
  7 25  1  0  0  0
  7 26  1  0  0  0
  8 10  1  0  0  0
  8 27  1  0  0  0
  8 28  1  0  0  0
  9 10  1  0  0  0
  9 12  1  0  0  0
  9 29  1  0  0  0
 10 14  1  0  0  0
 10 30  1  0  0  0
 11 12  1  0  0  0
 11 13  1  0  0  0
 11 31  1  0  0  0
 11 32  1  0  0  0
 12 33  1  0  0  0
 12 34  1  0  0  0
 13 14  1  0  0  0
 13 17  1  0  0  0
 13 18  1  0  0  0
 14 15  1  0  0  0
 14 35  1  0  0  0
 15 16  1  0  0  0
 15 36  1  0  0  0
 15 37  1  0  0  0
 16 17  1  0  0  0
 16 20  1  0  0  0
 16 38  1  0  0  0
 17 19  1  0  0  0
 17 39  1  0  0  0
 18 40  1  0  0  0
 18 41  1  0  0  0
 18 42  1  0  0  0
 19 43  1  0  0  0
 21 44  1  0  0  0
M  END
>  <Name>
lit-1

>  <Family>
A.1

>  <RBA>
123,87

>  <RBA_avg>
105.000000

>  <Method>
RUC,RUC

>  <set>
0

$$$$
lit-2
  Cerius2 12180216403D 1   1.00000                          
 Structure written by MMmdl.
 44 47  0  0  0  0  0  0  0  0999 V2000
   -6.7888   -4.1047   16.7446 C   0  0  0  0  0  0
   -5.4065   -4.1407   16.6593 C   0  0  0  0  0  0
   -4.7821   -4.4467   15.4568 C   0  0  0  0  0  0
   -7.5597   -4.3698   15.6100 C   0  0  0  0  0  0
   -6.9597   -4.6609   14.3714 C   0  0  0  0  0  0
   -5.5492   -4.7238   14.3099 C   0  0  0  0  0  0
   -4.8101   -5.0298   13.0274 C   0  0  0  0  0  0
   -5.6926   -5.6019   11.9220 C   0  0  0  0  0  0
   -7.8053   -4.9960   13.1428 C   0  0  0  0  0  0
   -6.9923   -4.8003   11.8270 C   0  0  0  0  0  0
   -9.9776   -4.5946   11.7936 C   0  0  0  0  0  0
   -9.1761   -4.2711   13.0695 C   0  0  0  0  0  0
   -9.1434   -4.3794   10.5242 C   0  0  0  0  0  0
   -7.8620   -5.2298   10.6452 C   0  0  0  0  0  0
   -7.2774   -5.1948    9.2358 C   0  0  0  0  0  0
   -8.5146   -5.1797    8.3190 C   0  0  0  0  0  0
   -9.7353   -5.0019    9.2434 C   0  0  0  0  0  0
   -8.8982   -2.8620   10.3241 C   0  0  0  0  0  0
  -10.7382   -4.1990    8.6408 O   0  0  0  0  0  0
   -4.6858   -3.8732   17.7851 O   0  0  0  0  0  0
   -7.2769   -3.8755   17.6893 H   0  0  0  0  0  0
   -3.6954   -4.4757   15.3951 H   0  0  0  0  0  0
   -8.6417   -4.3499   15.7219 H   0  0  0  0  0  0
   -3.9971   -5.7381   13.2281 H   0  0  0  0  0  0
   -4.3538   -4.0966   12.6731 H   0  0  0  0  0  0
   -5.9153   -6.6564   12.1299 H   0  0  0  0  0  0
   -5.1381   -5.5735   10.9775 H   0  0  0  0  0  0
   -8.0294   -6.0698   13.2382 H   0  0  0  0  0  0
   -6.7198   -3.7428   11.7165 H   0  0  0  0  0  0
  -10.8887   -3.9849   11.7665 H   0  0  0  0  0  0
  -10.3088   -5.6398   11.8501 H   0  0  0  0  0  0
   -9.0275   -3.1879   13.1534 H   0  0  0  0  0  0
   -9.8023   -4.5592   13.9218 H   0  0  0  0  0  0
   -8.1528   -6.2781   10.8272 H   0  0  0  0  0  0
   -6.6436   -6.0640    9.0329 H   0  0  0  0  0  0
   -6.6707   -4.2969    9.0741 H   0  0  0  0  0  0
   -8.5993   -6.1198    7.7626 H   0  0  0  0  0  0
   -8.4392   -4.3768    7.5771 H   0  0  0  0  0  0
  -10.1766   -5.9828    9.4612 H   0  0  0  0  0  0
   -8.3294   -2.6464    9.4141 H   0  0  0  0  0  0
   -8.3524   -2.4077   11.1551 H   0  0  0  0  0  0
   -9.8510   -2.3259   10.2416 H   0  0  0  0  0  0
  -10.9863   -4.6507    7.8064 H   0  0  0  0  0  0
   -3.7319   -3.9388   17.5651 H   0  0  0  0  0  0
  1  2  2  0  0  0
  1  4  1  0  0  0
  1 21  1  0  0  0
  2  3  1  0  0  0
  2 20  1  0  0  0
  3  6  2  0  0  0
  3 22  1  0  0  0
  4  5  2  0  0  0
  4 23  1  0  0  0
  5  6  1  0  0  0
  5  9  1  0  0  0
  6  7  1  0  0  0
  7  8  1  0  0  0
  7 24  1  0  0  0
  7 25  1  0  0  0
  8 10  1  0  0  0
  8 26  1  0  0  0
  8 27  1  0  0  0
  9 10  1  0  0  0
  9 12  1  0  0  0
  9 28  1  0  0  0
 10 14  1  0  0  0
 10 29  1  0  0  0
 11 12  1  0  0  0
 11 13  1  0  0  0
 11 30  1  0  0  0
 11 31  1  0  0  0
 12 32  1  0  0  0
 12 33  1  0  0  0
 13 14  1  0  0  0
 13 17  1  0  0  0
 13 18  1  0  0  0
 14 15  1  0  0  0
 14 34  1  0  0  0
 15 16  1  0  0  0
 15 35  1  0  0  0
 15 36  1  0  0  0
 16 17  1  0  0  0
 16 37  1  0  0  0
 16 38  1  0  0  0
 17 19  1  0  0  0
 17 39  1  0  0  0
 18 40  1  0  0  0
 18 41  1  0  0  0
 18 42  1  0  0  0
 19 43  1  0  0  0
 20 44  1  0  0  0
M  END
>  <Name>
lit-2

>  <Family>
A.1

>  <RBA>
100.000000

>  <RBA_avg>
100.000000

>  <Method>
RUC

>  <set>
0

$$$$
lit-3
  Cerius2 12180216403D 1   1.00000                          
 Structure written by MMmdl.
 44 47  0  0  0  0  0  0  0  0999 V2000
   -6.7906   -4.1036   16.7444 C   0  0  0  0  0  0
   -5.4083   -4.1410   16.6603 C   0  0  0  0  0  0
   -4.7831   -4.4481   15.4586 C   0  0  0  0  0  0
   -7.5608   -4.3682   15.6091 C   0  0  0  0  0  0
   -6.9600   -4.6602   14.3710 C   0  0  0  0  0  0
   -5.5496   -4.7248   14.3110 C   0  0  0  0  0  0
   -4.8097   -5.0324   13.0295 C   0  0  0  0  0  0
   -5.6919   -5.6052   11.9242 C   0  0  0  0  0  0
   -7.8048   -4.9945   13.1417 C   0  0  0  0  0  0
   -6.9905   -4.8022   11.8262 C   0  0  0  0  0  0
   -9.9748   -4.5900   11.7912 C   0  0  0  0  0  0
   -9.1732   -4.2655   13.0663 C   0  0  0  0  0  0
   -9.1406   -4.3793   10.5204 C   0  0  0  0  0  0
   -7.8594   -5.2319   10.6426 C   0  0  0  0  0  0
   -7.2678   -5.2004    9.2333 C   0  0  0  0  0  0
   -8.5045   -5.1627    8.3108 C   0  0  0  0  0  0
   -9.7366   -5.0070    9.2418 C   0  0  0  0  0  0
   -8.8947   -2.8623   10.3171 C   0  0  0  0  0  0
  -10.7656   -4.2071    8.6660 O   0  0  0  0  0  0
   -4.6884   -3.8737   17.7867 O   0  0  0  0  0  0
   -8.6390   -6.6531    7.3308 Cl  0  0  0  0  0  0
   -7.2794   -3.8740   17.6885 H   0  0  0  0  0  0
   -3.6965   -4.4783   15.3980 H   0  0  0  0  0  0
   -8.6428   -4.3473   15.7201 H   0  0  0  0  0  0
   -3.9972   -5.7409   13.2314 H   0  0  0  0  0  0
   -4.3527   -4.0998   12.6745 H   0  0  0  0  0  0
   -5.9160   -6.6592   12.1332 H   0  0  0  0  0  0
   -5.1358   -5.5789   10.9805 H   0  0  0  0  0  0
   -8.0320   -6.0676   13.2378 H   0  0  0  0  0  0
   -6.7166   -3.7452   11.7143 H   0  0  0  0  0  0
  -10.8850   -3.9789   11.7628 H   0  0  0  0  0  0
  -10.3080   -5.6346   11.8502 H   0  0  0  0  0  0
   -9.0212   -3.1825   13.1476 H   0  0  0  0  0  0
   -9.8007   -4.5494   13.9190 H   0  0  0  0  0  0
   -8.1519   -6.2795   10.8254 H   0  0  0  0  0  0
   -6.6132   -6.0586    9.0491 H   0  0  0  0  0  0
   -6.6662   -4.2956    9.0869 H   0  0  0  0  0  0
   -8.4313   -4.3356    7.5972 H   0  0  0  0  0  0
  -10.1765   -5.9842    9.4801 H   0  0  0  0  0  0
   -8.3259   -2.6481    9.4070 H   0  0  0  0  0  0
   -8.3484   -2.4073   11.1473 H   0  0  0  0  0  0
   -9.8471   -2.3259   10.2340 H   0  0  0  0  0  0
  -11.0362   -4.6653    7.8423 H   0  0  0  0  0  0
   -3.7343   -3.9395   17.5674 H   0  0  0  0  0  0
  1  2  2  0  0  0
  1  4  1  0  0  0
  1 22  1  0  0  0
  2  3  1  0  0  0
  2 20  1  0  0  0
  3  6  2  0  0  0
  3 23  1  0  0  0
  4  5  2  0  0  0
  4 24  1  0  0  0
  5  6  1  0  0  0
  5  9  1  0  0  0
  6  7  1  0  0  0
  7  8  1  0  0  0
  7 25  1  0  0  0
  7 26  1  0  0  0
  8 10  1  0  0  0
  8 27  1  0  0  0
  8 28  1  0  0  0
  9 10  1  0  0  0
  9 12  1  0  0  0
  9 29  1  0  0  0
 10 14  1  0  0  0
 10 30  1  0  0  0
 11 12  1  0  0  0
 11 13  1  0  0  0
 11 31  1  0  0  0
 11 32  1  0  0  0
 12 33  1  0  0  0
 12 34  1  0  0  0
 13 14  1  0  0  0
 13 17  1  0  0  0
 13 18  1  0  0  0
 14 15  1  0  0  0
 14 35  1  0  0  0
 15 16  1  0  0  0
 15 36  1  0  0  0
 15 37  1  0  0  0
 16 17  1  0  0  0
 16 21  1  0  0  0
 16 38  1  0  0  0
 17 19  1  0  0  0
 17 39  1  0  0  0
 18 40  1  0  0  0
 18 41  1  0  0  0
 18 42  1  0  0  0
 19 43  1  0  0  0
 20 44  1  0  0  0
M  END
>  <Name>
lit-3

>  <Family>
A.1

>  <RBA>
100.000000

>  <RBA_avg>
100.000000

>  <Method>
RUC

>  <set>
0

$$$$
lit-4
  Cerius2 12180216403D 1   1.00000                          
 Structure written by MMmdl.
 47 50  0  0  0  0  0  0  0  0999 V2000
   -6.7902   -4.1035   16.7448 C   0  0  0  0  0  0
   -5.4079   -4.1409   16.6602 C   0  0  0  0  0  0
   -4.7831   -4.4475   15.4582 C   0  0  0  0  0  0
   -7.5607   -4.3678   15.6096 C   0  0  0  0  0  0
   -6.9602   -4.6595   14.3713 C   0  0  0  0  0  0
   -5.5498   -4.7239   14.3107 C   0  0  0  0  0  0
   -4.8104   -5.0307   13.0288 C   0  0  0  0  0  0
   -5.6926   -5.6034   11.9235 C   0  0  0  0  0  0
   -7.8052   -4.9943   13.1424 C   0  0  0  0  0  0
   -6.9917   -4.8008   11.8267 C   0  0  0  0  0  0
   -9.9756   -4.5917   11.7913 C   0  0  0  0  0  0
   -9.1750   -4.2679   13.0676 C   0  0  0  0  0  0
   -9.1401   -4.3802   10.5216 C   0  0  0  0  0  0
   -7.8617   -5.2305   10.6445 C   0  0  0  0  0  0
   -7.2724   -5.2045    9.2354 C   0  0  0  0  0  0
   -8.5106   -5.1622    8.2983 C   0  0  0  0  0  0
   -9.7335   -5.0093    9.2432 C   0  0  0  0  0  0
   -8.8932   -2.8629   10.3205 C   0  0  0  0  0  0
  -10.7535   -4.2044    8.6671 O   0  0  0  0  0  0
   -4.6876   -3.8742   17.7866 O   0  0  0  0  0  0
   -8.6482   -6.4076    7.4293 C   0  0  0  0  0  0
   -7.2843   -6.4281    6.0309 Br  0  0  0  0  0  0
   -7.2786   -3.8742   17.6892 H   0  0  0  0  0  0
   -3.6964   -4.4778   15.3972 H   0  0  0  0  0  0
   -8.6428   -4.3468   15.7208 H   0  0  0  0  0  0
   -3.9975   -5.7390   13.2301 H   0  0  0  0  0  0
   -4.3538   -4.0978   12.6740 H   0  0  0  0  0  0
   -5.9163   -6.6575   12.1322 H   0  0  0  0  0  0
   -5.1372   -5.5763   10.9795 H   0  0  0  0  0  0
   -8.0308   -6.0678   13.2384 H   0  0  0  0  0  0
   -6.7182   -3.7437   11.7149 H   0  0  0  0  0  0
  -10.8856   -3.9804   11.7624 H   0  0  0  0  0  0
  -10.3089   -5.6362   11.8493 H   0  0  0  0  0  0
   -9.0254   -3.1847   13.1511 H   0  0  0  0  0  0
   -9.8022   -4.5547   13.9196 H   0  0  0  0  0  0
   -8.1544   -6.2778   10.8291 H   0  0  0  0  0  0
   -6.6324   -6.0750    9.0592 H   0  0  0  0  0  0
   -6.6576   -4.3098    9.0827 H   0  0  0  0  0  0
   -8.4375   -4.2818    7.6460 H   0  0  0  0  0  0
  -10.1719   -5.9895    9.4723 H   0  0  0  0  0  0
   -8.3154   -2.6477    9.4165 H   0  0  0  0  0  0
   -8.3547   -2.4077   11.1558 H   0  0  0  0  0  0
   -9.8449   -2.3266   10.2293 H   0  0  0  0  0  0
  -11.0597   -4.6699    7.8611 H   0  0  0  0  0  0
   -3.7336   -3.9401   17.5670 H   0  0  0  0  0  0
   -9.6066   -6.4285    6.9025 H   0  0  0  0  0  0
   -8.5303   -7.3334    7.9998 H   0  0  0  0  0  0
  1  2  2  0  0  0
  1  4  1  0  0  0
  1 23  1  0  0  0
  2  3  1  0  0  0
  2 20  1  0  0  0
  3  6  2  0  0  0
  3 24  1  0  0  0
  4  5  2  0  0  0
  4 25  1  0  0  0
  5  6  1  0  0  0
  5  9  1  0  0  0
  6  7  1  0  0  0
  7  8  1  0  0  0
  7 26  1  0  0  0
  7 27  1  0  0  0
  8 10  1  0  0  0
  8 28  1  0  0  0
  8 29  1  0  0  0
  9 10  1  0  0  0
  9 12  1  0  0  0
  9 30  1  0  0  0
 10 14  1  0  0  0
 10 31  1  0  0  0
 11 12  1  0  0  0
 11 13  1  0  0  0
 11 32  1  0  0  0
 11 33  1  0  0  0
 12 34  1  0  0  0
 12 35  1  0  0  0
 13 14  1  0  0  0
 13 17  1  0  0  0
 13 18  1  0  0  0
 14 15  1  0  0  0
 14 36  1  0  0  0
 15 16  1  0  0  0
 15 37  1  0  0  0
 15 38  1  0  0  0
 16 17  1  0  0  0
 16 21  1  0  0  0
 16 39  1  0  0  0
 17 19  1  0  0  0
 17 40  1  0  0  0
 18 41  1  0  0  0
 18 42  1  0  0  0
 18 43  1  0  0  0
 19 44  1  0  0  0
 20 45  1  0  0  0
 21 22  1  0  0  0
 21 46  1  0  0  0
 21 47  1  0  0  0
M  END
>  <Name>
lit-4

>  <Family>
A.1

>  <RBA>
93.000000

>  <RBA_avg>
93.000000

>  <Method>
RUC

>  <set>
0

$$$$
lit-5
  Cerius2 12180216403D 1   1.00000                          
 Structure written by MMmdl.
 44 47  0  0  0  0  0  0  0  0999 V2000
   -6.7901   -4.1055   16.7445 C   0  0  0  0  0  0
   -5.4078   -4.1418   16.6599 C   0  0  0  0  0  0
   -4.7829   -4.4474   15.4578 C   0  0  0  0  0  0
   -7.5606   -4.3697   15.6094 C   0  0  0  0  0  0
   -6.9599   -4.6603   14.3707 C   0  0  0  0  0  0
   -5.5496   -4.7239   14.3102 C   0  0  0  0  0  0
   -4.8099   -5.0303   13.0283 C   0  0  0  0  0  0
   -5.6921   -5.6035   11.9232 C   0  0  0  0  0  0
   -7.8052   -4.9945   13.1417 C   0  0  0  0  0  0
   -6.9912   -4.8010   11.8262 C   0  0  0  0  0  0
   -9.9760   -4.5905   11.7914 C   0  0  0  0  0  0
   -9.1740   -4.2662   13.0666 C   0  0  0  0  0  0
   -9.1419   -4.3781   10.5213 C   0  0  0  0  0  0
   -7.8599   -5.2304   10.6427 C   0  0  0  0  0  0
   -7.2700   -5.1962    9.2331 C   0  0  0  0  0  0
   -8.5060   -5.1765    8.3199 C   0  0  0  0  0  0
   -9.7351   -5.0040    9.2434 C   0  0  0  0  0  0
   -8.8969   -2.8612   10.3177 C   0  0  0  0  0  0
  -10.7583   -4.2039    8.6578 O   0  0  0  0  0  0
   -4.6876   -3.8750   17.7862 O   0  0  0  0  0  0
   -8.6100   -6.3724    7.6702 F   0  0  0  0  0  0
   -7.2788   -3.8771   17.6890 H   0  0  0  0  0  0
   -3.6962   -4.4768   15.3966 H   0  0  0  0  0  0
   -8.6426   -4.3496   15.7207 H   0  0  0  0  0  0
   -3.9966   -5.7381   13.2296 H   0  0  0  0  0  0
   -4.3538   -4.0971   12.6734 H   0  0  0  0  0  0
   -5.9157   -6.6576   12.1324 H   0  0  0  0  0  0
   -5.1368   -5.5768   10.9791 H   0  0  0  0  0  0
   -8.0317   -6.0678   13.2373 H   0  0  0  0  0  0
   -6.7177   -3.7439   11.7148 H   0  0  0  0  0  0
  -10.8864   -3.9800   11.7637 H   0  0  0  0  0  0
  -10.3082   -5.6354   11.8491 H   0  0  0  0  0  0
   -9.0226   -3.1831   13.1482 H   0  0  0  0  0  0
   -9.8012   -4.5508   13.9194 H   0  0  0  0  0  0
   -8.1517   -6.2785   10.8244 H   0  0  0  0  0  0
   -6.6324   -6.0629    9.0343 H   0  0  0  0  0  0
   -6.6730   -4.2896    9.0857 H   0  0  0  0  0  0
   -8.4362   -4.3961    7.5559 H   0  0  0  0  0  0
  -10.1744   -5.9867    9.4563 H   0  0  0  0  0  0
   -8.3324   -2.6475    9.4046 H   0  0  0  0  0  0
   -8.3469   -2.4063   11.1456 H   0  0  0  0  0  0
   -9.8496   -2.3247   10.2387 H   0  0  0  0  0  0
  -11.0279   -4.6659    7.8353 H   0  0  0  0  0  0
   -3.7337   -3.9403   17.5665 H   0  0  0  0  0  0
  1  2  2  0  0  0
  1  4  1  0  0  0
  1 22  1  0  0  0
  2  3  1  0  0  0
  2 20  1  0  0  0
  3  6  2  0  0  0
  3 23  1  0  0  0
  4  5  2  0  0  0
  4 24  1  0  0  0
  5  6  1  0  0  0
  5  9  1  0  0  0
  6  7  1  0  0  0
  7  8  1  0  0  0
  7 25  1  0  0  0
  7 26  1  0  0  0
  8 10  1  0  0  0
  8 27  1  0  0  0
  8 28  1  0  0  0
  9 10  1  0  0  0
  9 12  1  0  0  0
  9 29  1  0  0  0
 10 14  1  0  0  0
 10 30  1  0  0  0
 11 12  1  0  0  0
 11 13  1  0  0  0
 11 31  1  0  0  0
 11 32  1  0  0  0
 12 33  1  0  0  0
 12 34  1  0  0  0
 13 14  1  0  0  0
 13 17  1  0  0  0
 13 18  1  0  0  0
 14 15  1  0  0  0
 14 35  1  0  0  0
 15 16  1  0  0  0
 15 36  1  0  0  0
 15 37  1  0  0  0
 16 17  1  0  0  0
 16 21  1  0  0  0
 16 38  1  0  0  0
 17 19  1  0  0  0
 17 39  1  0  0  0
 18 40  1  0  0  0
 18 41  1  0  0  0
 18 42  1  0  0  0
 19 43  1  0  0  0
 20 44  1  0  0  0
M  END
>  <Name>
lit-5

>  <Family>
A.1

>  <RBA>
81.000000

>  <RBA_avg>
81.000000

>  <Method>
RUC

>  <set>
0

$$$$
lit-6
  Cerius2 12180216403D 1   1.00000                          
 Structure written by MMmdl.
 44 47  0  0  0  0  0  0  0  0999 V2000
   -6.7902   -4.1045   16.7449 C   0  0  0  0  0  0
   -5.4078   -4.1402   16.6604 C   0  0  0  0  0  0
   -4.7828   -4.4464   15.4584 C   0  0  0  0  0  0
   -7.5605   -4.3697   15.6098 C   0  0  0  0  0  0
   -6.9597   -4.6606   14.3714 C   0  0  0  0  0  0
   -5.5494   -4.7239   14.3110 C   0  0  0  0  0  0
   -4.8096   -5.0304   13.0292 C   0  0  0  0  0  0
   -5.6915   -5.6034   11.9237 C   0  0  0  0  0  0
   -7.8046   -4.9955   13.1423 C   0  0  0  0  0  0
   -6.9911   -4.8017   11.8266 C   0  0  0  0  0  0
   -9.9751   -4.5940   11.7927 C   0  0  0  0  0  0
   -9.1735   -4.2679   13.0675 C   0  0  0  0  0  0
   -9.1418   -4.3815   10.5216 C   0  0  0  0  0  0
   -7.8602   -5.2316   10.6430 C   0  0  0  0  0  0
   -7.2695   -5.1941    9.2333 C   0  0  0  0  0  0
   -8.5099   -5.1802    8.3074 C   0  0  0  0  0  0
   -9.7404   -5.0076    9.2425 C   0  0  0  0  0  0
   -8.8979   -2.8638   10.3199 C   0  0  0  0  0  0
  -10.7518   -4.1905    8.6599 O   0  0  0  0  0  0
   -4.6878   -3.8723   17.7865 O   0  0  0  0  0  0
   -8.6610   -7.0071    7.1712 I   0  0  0  0  0  0
   -7.2789   -3.8756   17.6892 H   0  0  0  0  0  0
   -3.6961   -4.4757   15.3973 H   0  0  0  0  0  0
   -8.6424   -4.3500   15.7211 H   0  0  0  0  0  0
   -3.9965   -5.7384   13.2307 H   0  0  0  0  0  0
   -4.3533   -4.0973   12.6744 H   0  0  0  0  0  0
   -5.9145   -6.6578   12.1320 H   0  0  0  0  0  0
   -5.1354   -5.5757   10.9802 H   0  0  0  0  0  0
   -8.0306   -6.0689   13.2380 H   0  0  0  0  0  0
   -6.7179   -3.7445   11.7152 H   0  0  0  0  0  0
  -10.8864   -3.9847   11.7648 H   0  0  0  0  0  0
  -10.3061   -5.6391   11.8521 H   0  0  0  0  0  0
   -9.0228   -3.1848   13.1483 H   0  0  0  0  0  0
   -9.8004   -4.5524   13.9205 H   0  0  0  0  0  0
   -8.1500   -6.2801   10.8245 H   0  0  0  0  0  0
   -6.5902   -6.0340    9.0583 H   0  0  0  0  0  0
   -6.6885   -4.2756    9.0870 H   0  0  0  0  0  0
   -8.4378   -4.3500    7.5949 H   0  0  0  0  0  0
  -10.2032   -5.9721    9.4864 H   0  0  0  0  0  0
   -8.3379   -2.6472    9.4051 H   0  0  0  0  0  0
   -8.3446   -2.4104   11.1464 H   0  0  0  0  0  0
   -9.8511   -2.3271   10.2469 H   0  0  0  0  0  0
  -11.0290   -4.6451    7.8369 H   0  0  0  0  0  0
   -3.7338   -3.9366   17.5667 H   0  0  0  0  0  0
  1  2  2  0  0  0
  1  4  1  0  0  0
  1 22  1  0  0  0
  2  3  1  0  0  0
  2 20  1  0  0  0
  3  6  2  0  0  0
  3 23  1  0  0  0
  4  5  2  0  0  0
  4 24  1  0  0  0
  5  6  1  0  0  0
  5  9  1  0  0  0
  6  7  1  0  0  0
  7  8  1  0  0  0
  7 25  1  0  0  0
  7 26  1  0  0  0
  8 10  1  0  0  0
  8 27  1  0  0  0
  8 28  1  0  0  0
  9 10  1  0  0  0
  9 12  1  0  0  0
  9 29  1  0  0  0
 10 14  1  0  0  0
 10 30  1  0  0  0
 11 12  1  0  0  0
 11 13  1  0  0  0
 11 31  1  0  0  0
 11 32  1  0  0  0
 12 33  1  0  0  0
 12 34  1  0  0  0
 13 14  1  0  0  0
 13 17  1  0  0  0
 13 18  1  0  0  0
 14 15  1  0  0  0
 14 35  1  0  0  0
 15 16  1  0  0  0
 15 36  1  0  0  0
 15 37  1  0  0  0
 16 17  1  0  0  0
 16 21  1  0  0  0
 16 38  1  0  0  0
 17 19  1  0  0  0
 17 39  1  0  0  0
 18 40  1  0  0  0
 18 41  1  0  0  0
 18 42  1  0  0  0
 19 43  1  0  0  0
 20 44  1  0  0  0
M  END
>  <Name>
lit-6

>  <Family>
A.1

>  <RBA>
79.000000

>  <RBA_avg>
79.000000

>  <Method>
RUC

>  <set>
0

$$$$
lit-7
  Cerius2 12180216403D 1   1.00000                          
 Structure written by MMmdl.
 47 50  0  0  0  0  0  0  0  0999 V2000
   -6.7901   -4.1033   16.7447 C   0  0  0  0  0  0
   -5.4079   -4.1408   16.6601 C   0  0  0  0  0  0
   -4.7831   -4.4476   15.4581 C   0  0  0  0  0  0
   -7.5608   -4.3677   15.6097 C   0  0  0  0  0  0
   -6.9603   -4.6596   14.3713 C   0  0  0  0  0  0
   -5.5499   -4.7241   14.3108 C   0  0  0  0  0  0
   -4.8106   -5.0313   13.0288 C   0  0  0  0  0  0
   -5.6930   -5.6039   11.9235 C   0  0  0  0  0  0
   -7.8055   -4.9944   13.1425 C   0  0  0  0  0  0
   -6.9918   -4.8010   11.8267 C   0  0  0  0  0  0
   -9.9757   -4.5910   11.7912 C   0  0  0  0  0  0
   -9.1751   -4.2677   13.0676 C   0  0  0  0  0  0
   -9.1399   -4.3798   10.5216 C   0  0  0  0  0  0
   -7.8620   -5.2305   10.6446 C   0  0  0  0  0  0
   -7.2723   -5.2059    9.2356 C   0  0  0  0  0  0
   -8.5092   -5.1585    8.2964 C   0  0  0  0  0  0
   -9.7326   -5.0095    9.2435 C   0  0  0  0  0  0
   -8.8924   -2.8627   10.3205 C   0  0  0  0  0  0
  -10.7552   -4.2071    8.6685 O   0  0  0  0  0  0
   -4.6875   -3.8738   17.7863 O   0  0  0  0  0  0
   -8.6481   -6.4047    7.4127 C   0  0  0  0  0  0
   -7.1858   -6.4257    5.8325 I   0  0  0  0  0  0
   -7.2785   -3.8739   17.6891 H   0  0  0  0  0  0
   -3.6964   -4.4779   15.3971 H   0  0  0  0  0  0
   -8.6428   -4.3468   15.7209 H   0  0  0  0  0  0
   -3.9979   -5.7397   13.2302 H   0  0  0  0  0  0
   -4.3538   -4.0985   12.6738 H   0  0  0  0  0  0
   -5.9170   -6.6580   12.1324 H   0  0  0  0  0  0
   -5.1376   -5.5770   10.9796 H   0  0  0  0  0  0
   -8.0313   -6.0679   13.2385 H   0  0  0  0  0  0
   -6.7181   -3.7439   11.7150 H   0  0  0  0  0  0
  -10.8855   -3.9793   11.7622 H   0  0  0  0  0  0
  -10.3095   -5.6353   11.8492 H   0  0  0  0  0  0
   -9.0253   -3.1845   13.1514 H   0  0  0  0  0  0
   -9.8025   -4.5544   13.9195 H   0  0  0  0  0  0
   -8.1551   -6.2776   10.8297 H   0  0  0  0  0  0
   -6.6360   -6.0795    9.0615 H   0  0  0  0  0  0
   -6.6535   -4.3138    9.0838 H   0  0  0  0  0  0
   -8.4394   -4.2728    7.6512 H   0  0  0  0  0  0
  -10.1681   -5.9910    9.4720 H   0  0  0  0  0  0
   -8.3125   -2.6478    9.4178 H   0  0  0  0  0  0
   -8.3558   -2.4071   11.1568 H   0  0  0  0  0  0
   -9.8440   -2.3265   10.2269 H   0  0  0  0  0  0
  -11.0552   -4.6700    7.8588 H   0  0  0  0  0  0
   -3.7335   -3.9396   17.5666 H   0  0  0  0  0  0
   -9.6412   -6.4238    6.9495 H   0  0  0  0  0  0
   -8.5530   -7.3174    8.0122 H   0  0  0  0  0  0
  1  2  2  0  0  0
  1  4  1  0  0  0
  1 23  1  0  0  0
  2  3  1  0  0  0
  2 20  1  0  0  0
  3  6  2  0  0  0
  3 24  1  0  0  0
  4  5  2  0  0  0
  4 25  1  0  0  0
  5  6  1  0  0  0
  5  9  1  0  0  0
  6  7  1  0  0  0
  7  8  1  0  0  0
  7 26  1  0  0  0
  7 27  1  0  0  0
  8 10  1  0  0  0
  8 28  1  0  0  0
  8 29  1  0  0  0
  9 10  1  0  0  0
  9 12  1  0  0  0
  9 30  1  0  0  0
 10 14  1  0  0  0
 10 31  1  0  0  0
 11 12  1  0  0  0
 11 13  1  0  0  0
 11 32  1  0  0  0
 11 33  1  0  0  0
 12 34  1  0  0  0
 12 35  1  0  0  0
 13 14  1  0  0  0
 13 17  1  0  0  0
 13 18  1  0  0  0
 14 15  1  0  0  0
 14 36  1  0  0  0
 15 16  1  0  0  0
 15 37  1  0  0  0
 15 38  1  0  0  0
 16 17  1  0  0  0
 16 21  1  0  0  0
 16 39  1  0  0  0
 17 19  1  0  0  0
 17 40  1  0  0  0
 18 41  1  0  0  0
 18 42  1  0  0  0
 18 43  1  0  0  0
 19 44  1  0  0  0
 20 45  1  0  0  0
 21 22  1  0  0  0
 21 46  1  0  0  0
 21 47  1  0  0  0
M  END
>  <Name>
lit-7

>  <Family>
A.1

>  <RBA>
76.000000

>  <RBA_avg>
76.000000

>  <Method>
RUC

>  <set>
0

$$$$
lit-8
  Cerius2 12180216403D 1   1.00000                          
 Structure written by MMmdl.
 49 52  0  0  0  0  0  0  0  0999 V2000
   -6.8712   -4.2709   16.7985 C   0  0  0  0  0  0
   -5.4874   -4.2684   16.7481 C   0  0  0  0  0  0
   -4.8218   -4.5328   15.5588 C   0  0  0  0  0  0
   -7.6036   -4.5277   15.6398 C   0  0  0  0  0  0
   -6.9631   -4.7710   14.4115 C   0  0  0  0  0  0
   -5.5503   -4.8008   14.3856 C   0  0  0  0  0  0
   -4.7714   -5.0561   13.1167 C   0  0  0  0  0  0
   -5.6156   -5.5853   11.9607 C   0  0  0  0  0  0
   -7.7675   -5.0739   13.1497 C   0  0  0  0  0  0
   -6.9220   -4.7941   11.8702 C   0  0  0  0  0  0
   -9.9086   -4.6339   11.7609 C   0  0  0  0  0  0
   -9.1552   -4.3819   13.0790 C   0  0  0  0  0  0
   -9.0372   -4.3194   10.5392 C   0  0  0  0  0  0
   -7.7515   -5.1608   10.6400 C   0  0  0  0  0  0
   -7.1247   -5.0308    9.2528 C   0  0  0  0  0  0
   -8.3375   -4.9286    8.2898 C   0  0  0  0  0  0
   -9.5861   -4.8608    9.2052 C   0  0  0  0  0  0
   -8.8069   -2.7880   10.4540 C   0  0  0  0  0  0
  -10.5937   -4.0240    8.6692 O   0  0  0  0  0  0
   -4.8141   -4.0002   17.8999 O   0  0  0  0  0  0
   -8.4245   -6.1034    7.3118 C   0  0  0  0  0  0
   -7.2644   -6.0701    6.4117 N   0  0  0  0  0  0
   -7.5135   -6.0233    5.1939 N   0  3  0  0  0  0
   -7.7476   -5.9794    4.0798 N   0  5  0  0  0  0
   -7.3810   -4.0731   17.7375 H   0  0  0  0  0  0
   -3.7364   -4.5312   15.5221 H   0  0  0  0  0  0
   -8.6865   -4.5340   15.7200 H   0  0  0  0  0  0
   -3.9629   -5.7698   13.3152 H   0  0  0  0  0  0
   -4.3070   -4.1093   12.8127 H   0  0  0  0  0  0
   -5.8310   -6.6509   12.1118 H   0  0  0  0  0  0
   -5.0357   -5.5068   11.0345 H   0  0  0  0  0  0
   -7.9650   -6.1563   13.1881 H   0  0  0  0  0  0
   -6.6580   -3.7294   11.8275 H   0  0  0  0  0  0
  -10.8302   -4.0398   11.7435 H   0  0  0  0  0  0
  -10.2201   -5.6864   11.7373 H   0  0  0  0  0  0
   -9.0409   -3.3037   13.2421 H   0  0  0  0  0  0
   -9.7986   -4.7446   13.8892 H   0  0  0  0  0  0
   -8.0328   -6.2218   10.7477 H   0  0  0  0  0  0
   -6.4731   -5.8819    9.0298 H   0  0  0  0  0  0
   -6.5143   -4.1233    9.1814 H   0  0  0  0  0  0
   -8.2497   -4.0045    7.7024 H   0  0  0  0  0  0
  -10.0186   -5.8594    9.3493 H   0  0  0  0  0  0
   -8.2046   -2.5021    9.5864 H   0  0  0  0  0  0
   -8.3006   -2.3859   11.3356 H   0  0  0  0  0  0
   -9.7626   -2.2575   10.3714 H   0  0  0  0  0  0
  -10.9035   -4.4134    7.8345 H   0  0  0  0  0  0
   -3.8587   -4.0406   17.7314 H   0  0  0  0  0  0
   -9.3671   -6.0525    6.7513 H   0  0  0  0  0  0
   -8.4214   -7.0567    7.8534 H   0  0  0  0  0  0
  1  2  2  0  0  0
  1  4  1  0  0  0
  1 25  1  0  0  0
  2  3  1  0  0  0
  2 20  1  0  0  0
  3  6  2  0  0  0
  3 26  1  0  0  0
  4  5  2  0  0  0
  4 27  1  0  0  0
  5  6  1  0  0  0
  5  9  1  0  0  0
  6  7  1  0  0  0
  7  8  1  0  0  0
  7 28  1  0  0  0
  7 29  1  0  0  0
  8 10  1  0  0  0
  8 30  1  0  0  0
  8 31  1  0  0  0
  9 10  1  0  0  0
  9 12  1  0  0  0
  9 32  1  0  0  0
 10 14  1  0  0  0
 10 33  1  0  0  0
 11 12  1  0  0  0
 11 13  1  0  0  0
 11 34  1  0  0  0
 11 35  1  0  0  0
 12 36  1  0  0  0
 12 37  1  0  0  0
 13 14  1  0  0  0
 13 17  1  0  0  0
 13 18  1  0  0  0
 14 15  1  0  0  0
 14 38  1  0  0  0
 15 16  1  0  0  0
 15 39  1  0  0  0
 15 40  1  0  0  0
 16 17  1  0  0  0
 16 21  1  0  0  0
 16 41  1  0  0  0
 17 19  1  0  0  0
 17 42  1  0  0  0
 18 43  1  0  0  0
 18 44  1  0  0  0
 18 45  1  0  0  0
 19 46  1  0  0  0
 20 47  1  0  0  0
 21 22  1  0  0  0
 21 48  1  0  0  0
 21 49  1  0  0  0
 22 23  2  0  0  0
 23 24  2  0  0  0
M  CHG  2  23   1  24  -1
M  END
>  <Name>
lit-8

>  <Family>
A.1

>  <RBA>
65.000000

>  <RBA_avg>
65.000000

>  <Method>
RUC

>  <set>
1

$$$$
lit-9
  Cerius2 12180216403D 1   1.00000                          
 Structure written by MMmdl.
 45 48  0  0  0  0  0  0  0  0999 V2000
   -6.7905   -4.1055   16.7451 C   0  0  0  0  0  0
   -5.4081   -4.1399   16.6606 C   0  0  0  0  0  0
   -4.7828   -4.4448   15.4584 C   0  0  0  0  0  0
   -7.5605   -4.3709   15.6100 C   0  0  0  0  0  0
   -6.9595   -4.6609   14.3715 C   0  0  0  0  0  0
   -5.5491   -4.7224   14.3109 C   0  0  0  0  0  0
   -4.8090   -5.0277   13.0290 C   0  0  0  0  0  0
   -5.6902   -5.6013   11.9234 C   0  0  0  0  0  0
   -7.8040   -4.9964   13.1424 C   0  0  0  0  0  0
   -6.9908   -4.8010   11.8267 C   0  0  0  0  0  0
   -9.9750   -4.5979   11.7924 C   0  0  0  0  0  0
   -9.1741   -4.2708   13.0675 C   0  0  0  0  0  0
   -9.1417   -4.3835   10.5214 C   0  0  0  0  0  0
   -7.8596   -5.2312   10.6427 C   0  0  0  0  0  0
   -7.2724   -5.1871    9.2329 C   0  0  0  0  0  0
   -8.5143   -5.2032    8.3065 C   0  0  0  0  0  0
   -9.7419   -5.0064    9.2398 C   0  0  0  0  0  0
   -8.8992   -2.8647   10.3222 C   0  0  0  0  0  0
  -10.7441   -4.1725    8.6617 O   0  0  0  0  0  0
   -4.6883   -3.8721   17.7869 O   0  0  0  0  0  0
   -8.6160   -6.4783    7.5725 C   0  0  0  0  0  0
   -8.6955   -7.4820    6.9888 N   0  0  0  0  0  0
   -7.2795   -3.8776   17.6897 H   0  0  0  0  0  0
   -3.6961   -4.4726   15.3973 H   0  0  0  0  0  0
   -8.6426   -4.3524   15.7213 H   0  0  0  0  0  0
   -3.9951   -5.7348   13.2302 H   0  0  0  0  0  0
   -4.3538   -4.0939   12.6745 H   0  0  0  0  0  0
   -5.9120   -6.6560   12.1315 H   0  0  0  0  0  0
   -5.1346   -5.5726   10.9797 H   0  0  0  0  0  0
   -8.0285   -6.0703   13.2377 H   0  0  0  0  0  0
   -6.7185   -3.7436   11.7161 H   0  0  0  0  0  0
  -10.8874   -3.9901   11.7646 H   0  0  0  0  0  0
  -10.3042   -5.6437   11.8511 H   0  0  0  0  0  0
   -9.0250   -3.1874   13.1485 H   0  0  0  0  0  0
   -9.8007   -4.5564   13.9204 H   0  0  0  0  0  0
   -8.1473   -6.2807   10.8218 H   0  0  0  0  0  0
   -6.5888   -6.0240    9.0521 H   0  0  0  0  0  0
   -6.7030   -4.2626    9.0804 H   0  0  0  0  0  0
   -8.4443   -4.3865    7.5779 H   0  0  0  0  0  0
  -10.2164   -5.9679    9.4782 H   0  0  0  0  0  0
   -8.3471   -2.6463    9.4029 H   0  0  0  0  0  0
   -8.3394   -2.4132   11.1453 H   0  0  0  0  0  0
   -9.8528   -2.3274   10.2584 H   0  0  0  0  0  0
  -11.1029   -4.6558    7.8876 H   0  0  0  0  0  0
   -3.7342   -3.9361   17.5672 H   0  0  0  0  0  0
  1  2  2  0  0  0
  1  4  1  0  0  0
  1 23  1  0  0  0
  2  3  1  0  0  0
  2 20  1  0  0  0
  3  6  2  0  0  0
  3 24  1  0  0  0
  4  5  2  0  0  0
  4 25  1  0  0  0
  5  6  1  0  0  0
  5  9  1  0  0  0
  6  7  1  0  0  0
  7  8  1  0  0  0
  7 26  1  0  0  0
  7 27  1  0  0  0
  8 10  1  0  0  0
  8 28  1  0  0  0
  8 29  1  0  0  0
  9 10  1  0  0  0
  9 12  1  0  0  0
  9 30  1  0  0  0
 10 14  1  0  0  0
 10 31  1  0  0  0
 11 12  1  0  0  0
 11 13  1  0  0  0
 11 32  1  0  0  0
 11 33  1  0  0  0
 12 34  1  0  0  0
 12 35  1  0  0  0
 13 14  1  0  0  0
 13 17  1  0  0  0
 13 18  1  0  0  0
 14 15  1  0  0  0
 14 36  1  0  0  0
 15 16  1  0  0  0
 15 37  1  0  0  0
 15 38  1  0  0  0
 16 17  1  0  0  0
 16 21  1  0  0  0
 16 39  1  0  0  0
 17 19  1  0  0  0
 17 40  1  0  0  0
 18 41  1  0  0  0
 18 42  1  0  0  0
 18 43  1  0  0  0
 19 44  1  0  0  0
 20 45  1  0  0  0
 21 22  3  0  0  0
M  END
>  <Name>
lit-9

>  <Family>
A.1

>  <RBA>
63.000000

>  <RBA_avg>
63.000000

>  <Method>
RUC

>  <set>
2

$$$$
lit-10
  Cerius2 12180216403D 1   1.00000                          
 Structure written by MMmdl.
 47 50  0  0  0  0  0  0  0  0999 V2000
   -6.7903   -4.1032   16.7446 C   0  0  0  0  0  0
   -5.4080   -4.1406   16.6602 C   0  0  0  0  0  0
   -4.7831   -4.4474   15.4582 C   0  0  0  0  0  0
   -7.5608   -4.3676   15.6095 C   0  0  0  0  0  0
   -6.9601   -4.6595   14.3712 C   0  0  0  0  0  0
   -5.5498   -4.7238   14.3107 C   0  0  0  0  0  0
   -4.8103   -5.0308   13.0288 C   0  0  0  0  0  0
   -5.6924   -5.6034   11.9234 C   0  0  0  0  0  0
   -7.8051   -4.9945   13.1423 C   0  0  0  0  0  0
   -6.9916   -4.8010   11.8265 C   0  0  0  0  0  0
   -9.9756   -4.5923   11.7911 C   0  0  0  0  0  0
   -9.1751   -4.2686   13.0675 C   0  0  0  0  0  0
   -9.1402   -4.3805   10.5213 C   0  0  0  0  0  0
   -7.8615   -5.2307   10.6442 C   0  0  0  0  0  0
   -7.2720   -5.2054    9.2349 C   0  0  0  0  0  0
   -8.5105   -5.1617    8.2998 C   0  0  0  0  0  0
   -9.7341   -5.0094    9.2427 C   0  0  0  0  0  0
   -8.8931   -2.8632   10.3208 C   0  0  0  0  0  0
  -10.7535   -4.2026    8.6678 O   0  0  0  0  0  0
   -4.6878   -3.8739   17.7865 O   0  0  0  0  0  0
   -8.6480   -6.4021    7.4169 C   0  0  0  0  0  0
   -7.3160   -6.5113    6.2316 Cl  0  0  0  0  0  0
   -7.2788   -3.8739   17.6889 H   0  0  0  0  0  0
   -3.6964   -4.4777   15.3973 H   0  0  0  0  0  0
   -8.6428   -4.3467   15.7206 H   0  0  0  0  0  0
   -3.9975   -5.7390   13.2302 H   0  0  0  0  0  0
   -4.3535   -4.0978   12.6741 H   0  0  0  0  0  0
   -5.9161   -6.6576   12.1321 H   0  0  0  0  0  0
   -5.1369   -5.5763   10.9795 H   0  0  0  0  0  0
   -8.0304   -6.0682   13.2384 H   0  0  0  0  0  0
   -6.7181   -3.7438   11.7148 H   0  0  0  0  0  0
  -10.8858   -3.9811   11.7624 H   0  0  0  0  0  0
  -10.3088   -5.6368   11.8490 H   0  0  0  0  0  0
   -9.0259   -3.1854   13.1512 H   0  0  0  0  0  0
   -9.8023   -4.5556   13.9194 H   0  0  0  0  0  0
   -8.1542   -6.2779   10.8291 H   0  0  0  0  0  0
   -6.6339   -6.0773    9.0600 H   0  0  0  0  0  0
   -6.6560   -4.3117    9.0818 H   0  0  0  0  0  0
   -8.4382   -4.2821    7.6459 H   0  0  0  0  0  0
  -10.1732   -5.9892    9.4716 H   0  0  0  0  0  0
   -8.3152   -2.6478    9.4170 H   0  0  0  0  0  0
   -8.3547   -2.4082   11.1563 H   0  0  0  0  0  0
   -9.8448   -2.3267   10.2297 H   0  0  0  0  0  0
  -11.0718   -4.6733    7.8695 H   0  0  0  0  0  0
   -3.7338   -3.9398   17.5670 H   0  0  0  0  0  0
   -9.5817   -6.3733    6.8472 H   0  0  0  0  0  0
   -8.6358   -7.3210    8.0116 H   0  0  0  0  0  0
  1  2  2  0  0  0
  1  4  1  0  0  0
  1 23  1  0  0  0
  2  3  1  0  0  0
  2 20  1  0  0  0
  3  6  2  0  0  0
  3 24  1  0  0  0
  4  5  2  0  0  0
  4 25  1  0  0  0
  5  6  1  0  0  0
  5  9  1  0  0  0
  6  7  1  0  0  0
  7  8  1  0  0  0
  7 26  1  0  0  0
  7 27  1  0  0  0
  8 10  1  0  0  0
  8 28  1  0  0  0
  8 29  1  0  0  0
  9 10  1  0  0  0
  9 12  1  0  0  0
  9 30  1  0  0  0
 10 14  1  0  0  0
 10 31  1  0  0  0
 11 12  1  0  0  0
 11 13  1  0  0  0
 11 32  1  0  0  0
 11 33  1  0  0  0
 12 34  1  0  0  0
 12 35  1  0  0  0
 13 14  1  0  0  0
 13 17  1  0  0  0
 13 18  1  0  0  0
 14 15  1  0  0  0
 14 36  1  0  0  0
 15 16  1  0  0  0
 15 37  1  0  0  0
 15 38  1  0  0  0
 16 17  1  0  0  0
 16 21  1  0  0  0
 16 39  1  0  0  0
 17 19  1  0  0  0
 17 40  1  0  0  0
 18 41  1  0  0  0
 18 42  1  0  0  0
 18 43  1  0  0  0
 19 44  1  0  0  0
 20 45  1  0  0  0
 21 22  1  0  0  0
 21 46  1  0  0  0
 21 47  1  0  0  0
M  END
>  <Name>
lit-10

>  <Family>
A.1

>  <RBA>
55.000000

>  <RBA_avg>
55.000000

>  <Method>
RUC

>  <set>
0

$$$$
lit-11
  Cerius2 12180216403D 1   1.00000                          
 Structure written by MMmdl.
 49 52  0  0  0  0  0  0  0  0999 V2000
   -6.7901   -4.1026   16.7444 C   0  0  0  0  0  0
   -5.4078   -4.1404   16.6600 C   0  0  0  0  0  0
   -4.7830   -4.4474   15.4581 C   0  0  0  0  0  0
   -7.5607   -4.3673   15.6095 C   0  0  0  0  0  0
   -6.9601   -4.6599   14.3713 C   0  0  0  0  0  0
   -5.5498   -4.7242   14.3107 C   0  0  0  0  0  0
   -4.8104   -5.0313   13.0288 C   0  0  0  0  0  0
   -5.6925   -5.6037   11.9234 C   0  0  0  0  0  0
   -7.8052   -4.9953   13.1425 C   0  0  0  0  0  0
   -6.9917   -4.8014   11.8269 C   0  0  0  0  0  0
   -9.9757   -4.5929   11.7915 C   0  0  0  0  0  0
   -9.1753   -4.2695   13.0679 C   0  0  0  0  0  0
   -9.1405   -4.3804   10.5218 C   0  0  0  0  0  0
   -7.8615   -5.2306   10.6442 C   0  0  0  0  0  0
   -7.2717   -5.2028    9.2354 C   0  0  0  0  0  0
   -8.5111   -5.1639    8.2995 C   0  0  0  0  0  0
   -9.7345   -5.0085    9.2431 C   0  0  0  0  0  0
   -8.8937   -2.8630   10.3217 C   0  0  0  0  0  0
  -10.7523   -4.2018    8.6652 O   0  0  0  0  0  0
   -4.6875   -3.8733   17.7862 O   0  0  0  0  0  0
   -8.6407   -6.4164    7.4227 C   0  0  0  0  0  0
   -7.5841   -6.4795    6.3977 C   0  0  0  0  0  0
   -6.7235   -6.5332    5.5617 C   0  0  0  0  0  0
   -7.2786   -3.8727   17.6887 H   0  0  0  0  0  0
   -3.6963   -4.4775   15.3971 H   0  0  0  0  0  0
   -8.6427   -4.3462   15.7206 H   0  0  0  0  0  0
   -3.9976   -5.7397   13.2303 H   0  0  0  0  0  0
   -4.3536   -4.0984   12.6740 H   0  0  0  0  0  0
   -5.9161   -6.6579   12.1319 H   0  0  0  0  0  0
   -5.1371   -5.5764   10.9795 H   0  0  0  0  0  0
   -8.0302   -6.0689   13.2385 H   0  0  0  0  0  0
   -6.7183   -3.7442   11.7155 H   0  0  0  0  0  0
  -10.8860   -3.9820   11.7630 H   0  0  0  0  0  0
  -10.3087   -5.6375   11.8490 H   0  0  0  0  0  0
   -9.0263   -3.1863   13.1519 H   0  0  0  0  0  0
   -9.8024   -4.5570   13.9197 H   0  0  0  0  0  0
   -8.1538   -6.2783   10.8279 H   0  0  0  0  0  0
   -6.6289   -6.0709    9.0567 H   0  0  0  0  0  0
   -6.6601   -4.3059    9.0829 H   0  0  0  0  0  0
   -8.4355   -4.2868    7.6422 H   0  0  0  0  0  0
  -10.1753   -5.9874    9.4719 H   0  0  0  0  0  0
   -8.3171   -2.6472    9.4171 H   0  0  0  0  0  0
   -8.3543   -2.4084   11.1567 H   0  0  0  0  0  0
   -9.8456   -2.3266   10.2320 H   0  0  0  0  0  0
  -11.0461   -4.6600    7.8504 H   0  0  0  0  0  0
   -3.7336   -3.9404   17.5669 H   0  0  0  0  0  0
   -9.6159   -6.4128    6.9210 H   0  0  0  0  0  0
   -8.6072   -7.3198    8.0436 H   0  0  0  0  0  0
   -5.9583   -6.5807    4.8188 H   0  0  0  0  0  0
  1  2  2  0  0  0
  1  4  1  0  0  0
  1 24  1  0  0  0
  2  3  1  0  0  0
  2 20  1  0  0  0
  3  6  2  0  0  0
  3 25  1  0  0  0
  4  5  2  0  0  0
  4 26  1  0  0  0
  5  6  1  0  0  0
  5  9  1  0  0  0
  6  7  1  0  0  0
  7  8  1  0  0  0
  7 27  1  0  0  0
  7 28  1  0  0  0
  8 10  1  0  0  0
  8 29  1  0  0  0
  8 30  1  0  0  0
  9 10  1  0  0  0
  9 12  1  0  0  0
  9 31  1  0  0  0
 10 14  1  0  0  0
 10 32  1  0  0  0
 11 12  1  0  0  0
 11 13  1  0  0  0
 11 33  1  0  0  0
 11 34  1  0  0  0
 12 35  1  0  0  0
 12 36  1  0  0  0
 13 14  1  0  0  0
 13 17  1  0  0  0
 13 18  1  0  0  0
 14 15  1  0  0  0
 14 37  1  0  0  0
 15 16  1  0  0  0
 15 38  1  0  0  0
 15 39  1  0  0  0
 16 17  1  0  0  0
 16 21  1  0  0  0
 16 40  1  0  0  0
 17 19  1  0  0  0
 17 41  1  0  0  0
 18 42  1  0  0  0
 18 43  1  0  0  0
 18 44  1  0  0  0
 19 45  1  0  0  0
 20 46  1  0  0  0
 21 22  1  0  0  0
 21 47  1  0  0  0
 21 48  1  0  0  0
 22 23  3  0  0  0
 23 49  1  0  0  0
M  END
>  <Name>
lit-11

>  <Family>
A.1

>  <RBA>
44.000000

>  <RBA_avg>
44.000000

>  <Method>
RUC

>  <set>
1

$$$$
lit-12
  Cerius2 12180216403D 1   1.00000                          
 Structure written by MMmdl.
 51 54  0  0  0  0  0  0  0  0999 V2000
   -6.7902   -4.1027   16.7443 C   0  0  0  0  0  0
   -5.4078   -4.1397   16.6598 C   0  0  0  0  0  0
   -4.7831   -4.4471   15.4579 C   0  0  0  0  0  0
   -7.5608   -4.3679   15.6095 C   0  0  0  0  0  0
   -6.9603   -4.6603   14.3714 C   0  0  0  0  0  0
   -5.5500   -4.7246   14.3107 C   0  0  0  0  0  0
   -4.8106   -5.0324   13.0290 C   0  0  0  0  0  0
   -5.6930   -5.6046   11.9236 C   0  0  0  0  0  0
   -7.8055   -4.9955   13.1425 C   0  0  0  0  0  0
   -6.9918   -4.8018   11.8269 C   0  0  0  0  0  0
   -9.9759   -4.5919   11.7912 C   0  0  0  0  0  0
   -9.1754   -4.2693   13.0680 C   0  0  0  0  0  0
   -9.1401   -4.3798   10.5217 C   0  0  0  0  0  0
   -7.8619   -5.2307   10.6443 C   0  0  0  0  0  0
   -7.2714   -5.2069    9.2351 C   0  0  0  0  0  0
   -8.5091   -5.1562    8.2979 C   0  0  0  0  0  0
   -9.7330   -5.0082    9.2431 C   0  0  0  0  0  0
   -8.8921   -2.8627   10.3219 C   0  0  0  0  0  0
  -10.7555   -4.2059    8.6674 O   0  0  0  0  0  0
   -4.6875   -3.8718   17.7857 O   0  0  0  0  0  0
   -8.6466   -6.3924    7.3949 C   0  0  0  0  0  0
   -7.5619   -6.4775    6.3555 C   0  0  0  0  0  0
   -7.7810   -6.3987    5.0368 C   0  0  0  0  0  0
   -7.2787   -3.8727   17.6887 H   0  0  0  0  0  0
   -3.6964   -4.4770   15.3967 H   0  0  0  0  0  0
   -8.6428   -4.3472   15.7208 H   0  0  0  0  0  0
   -3.9983   -5.7411   13.2308 H   0  0  0  0  0  0
   -4.3532   -4.0998   12.6739 H   0  0  0  0  0  0
   -5.9169   -6.6587   12.1321 H   0  0  0  0  0  0
   -5.1373   -5.5776   10.9797 H   0  0  0  0  0  0
   -8.0309   -6.0690   13.2385 H   0  0  0  0  0  0
   -6.7180   -3.7447   11.7154 H   0  0  0  0  0  0
  -10.8856   -3.9804   11.7625 H   0  0  0  0  0  0
  -10.3095   -5.6364   11.8484 H   0  0  0  0  0  0
   -9.0261   -3.1862   13.1525 H   0  0  0  0  0  0
   -9.8027   -4.5570   13.9196 H   0  0  0  0  0  0
   -8.1553   -6.2778   10.8293 H   0  0  0  0  0  0
   -6.6379   -6.0822    9.0611 H   0  0  0  0  0  0
   -6.6507   -4.3164    9.0830 H   0  0  0  0  0  0
   -8.4337   -4.2701    7.6528 H   0  0  0  0  0  0
  -10.1682   -5.9901    9.4697 H   0  0  0  0  0  0
   -8.3114   -2.6472    9.4198 H   0  0  0  0  0  0
   -8.3560   -2.4078   11.1588 H   0  0  0  0  0  0
   -9.8435   -2.3261   10.2281 H   0  0  0  0  0  0
  -11.0301   -4.6537    7.8403 H   0  0  0  0  0  0
   -3.7336   -3.9378   17.5661 H   0  0  0  0  0  0
   -9.6289   -6.3743    6.9061 H   0  0  0  0  0  0
   -8.6190   -7.3063    8.0014 H   0  0  0  0  0  0
   -6.5426   -6.6263    6.7098 H   0  0  0  0  0  0
   -6.9588   -6.4738    4.3294 H   0  0  0  0  0  0
   -8.7772   -6.2573    4.6257 H   0  0  0  0  0  0
  1  2  2  0  0  0
  1  4  1  0  0  0
  1 24  1  0  0  0
  2  3  1  0  0  0
  2 20  1  0  0  0
  3  6  2  0  0  0
  3 25  1  0  0  0
  4  5  2  0  0  0
  4 26  1  0  0  0
  5  6  1  0  0  0
  5  9  1  0  0  0
  6  7  1  0  0  0
  7  8  1  0  0  0
  7 27  1  0  0  0
  7 28  1  0  0  0
  8 10  1  0  0  0
  8 29  1  0  0  0
  8 30  1  0  0  0
  9 10  1  0  0  0
  9 12  1  0  0  0
  9 31  1  0  0  0
 10 14  1  0  0  0
 10 32  1  0  0  0
 11 12  1  0  0  0
 11 13  1  0  0  0
 11 33  1  0  0  0
 11 34  1  0  0  0
 12 35  1  0  0  0
 12 36  1  0  0  0
 13 14  1  0  0  0
 13 17  1  0  0  0
 13 18  1  0  0  0
 14 15  1  0  0  0
 14 37  1  0  0  0
 15 16  1  0  0  0
 15 38  1  0  0  0
 15 39  1  0  0  0
 16 17  1  0  0  0
 16 21  1  0  0  0
 16 40  1  0  0  0
 17 19  1  0  0  0
 17 41  1  0  0  0
 18 42  1  0  0  0
 18 43  1  0  0  0
 18 44  1  0  0  0
 19 45  1  0  0  0
 20 46  1  0  0  0
 21 22  1  0  0  0
 21 47  1  0  0  0
 21 48  1  0  0  0
 22 23  2  0  0  0
 22 49  1  0  0  0
 23 50  1  0  0  0
 23 51  1  0  0  0
M  END
>  <Name>
lit-12

>  <Family>
A.1

>  <RBA>
38.000000

>  <RBA_avg>
38.000000

>  <Method>
RUC

>  <set>
0

$$$$
lit-13
  Cerius2 12180216403D 1   1.00000                          
 Structure written by MMmdl.
 45 48  0  0  0  0  0  0  0  0999 V2000
   -6.7901   -4.1034   16.7442 C   0  0  0  0  0  0
   -5.4079   -4.1406   16.6597 C   0  0  0  0  0  0
   -4.7830   -4.4477   15.4579 C   0  0  0  0  0  0
   -7.5606   -4.3682   15.6093 C   0  0  0  0  0  0
   -6.9601   -4.6604   14.3710 C   0  0  0  0  0  0
   -5.5498   -4.7246   14.3106 C   0  0  0  0  0  0
   -4.8102   -5.0320   13.0288 C   0  0  0  0  0  0
   -5.6927   -5.6050   11.9237 C   0  0  0  0  0  0
   -7.8054   -4.9951   13.1421 C   0  0  0  0  0  0
   -6.9914   -4.8020   11.8265 C   0  0  0  0  0  0
   -9.9761   -4.5910   11.7918 C   0  0  0  0  0  0
   -9.1744   -4.2673   13.0673 C   0  0  0  0  0  0
   -9.1418   -4.3788   10.5218 C   0  0  0  0  0  0
   -7.8608   -5.2310   10.6431 C   0  0  0  0  0  0
   -7.2688   -5.2036    9.2329 C   0  0  0  0  0  0
   -8.5039   -5.1615    8.3095 C   0  0  0  0  0  0
   -9.7354   -5.0058    9.2446 C   0  0  0  0  0  0
   -8.8955   -2.8619   10.3195 C   0  0  0  0  0  0
  -10.7597   -4.2068    8.6618 O   0  0  0  0  0  0
   -4.6875   -3.8732   17.7859 O   0  0  0  0  0  0
   -8.5867   -6.3716    7.5536 O   0  0  0  0  0  0
   -7.2786   -3.8735   17.6886 H   0  0  0  0  0  0
   -3.6964   -4.4777   15.3968 H   0  0  0  0  0  0
   -8.6426   -4.3475   15.7206 H   0  0  0  0  0  0
   -3.9975   -5.7403   13.2304 H   0  0  0  0  0  0
   -4.3536   -4.0992   12.6736 H   0  0  0  0  0  0
   -5.9168   -6.6590   12.1330 H   0  0  0  0  0  0
   -5.1372   -5.5787   10.9797 H   0  0  0  0  0  0
   -8.0317   -6.0684   13.2381 H   0  0  0  0  0  0
   -6.7176   -3.7449   11.7150 H   0  0  0  0  0  0
  -10.8863   -3.9801   11.7641 H   0  0  0  0  0  0
  -10.3089   -5.6356   11.8495 H   0  0  0  0  0  0
   -9.0235   -3.1843   13.1499 H   0  0  0  0  0  0
   -9.8016   -4.5529   13.9198 H   0  0  0  0  0  0
   -8.1539   -6.2784   10.8266 H   0  0  0  0  0  0
   -6.6320   -6.0738    9.0433 H   0  0  0  0  0  0
   -6.6619   -4.3022    9.0907 H   0  0  0  0  0  0
   -8.4232   -4.3348    7.5948 H   0  0  0  0  0  0
  -10.1741   -5.9890    9.4585 H   0  0  0  0  0  0
   -8.3244   -2.6477    9.4109 H   0  0  0  0  0  0
   -8.3511   -2.4070   11.1511 H   0  0  0  0  0  0
   -9.8478   -2.3254   10.2344 H   0  0  0  0  0  0
  -11.0775   -4.6922    7.8722 H   0  0  0  0  0  0
   -3.7336   -3.9391   17.5664 H   0  0  0  0  0  0
   -9.3573   -6.2719    6.9554 H   0  0  0  0  0  0
  1  2  2  0  0  0
  1  4  1  0  0  0
  1 22  1  0  0  0
  2  3  1  0  0  0
  2 20  1  0  0  0
  3  6  2  0  0  0
  3 23  1  0  0  0
  4  5  2  0  0  0
  4 24  1  0  0  0
  5  6  1  0  0  0
  5  9  1  0  0  0
  6  7  1  0  0  0
  7  8  1  0  0  0
  7 25  1  0  0  0
  7 26  1  0  0  0
  8 10  1  0  0  0
  8 27  1  0  0  0
  8 28  1  0  0  0
  9 10  1  0  0  0
  9 12  1  0  0  0
  9 29  1  0  0  0
 10 14  1  0  0  0
 10 30  1  0  0  0
 11 12  1  0  0  0
 11 13  1  0  0  0
 11 31  1  0  0  0
 11 32  1  0  0  0
 12 33  1  0  0  0
 12 34  1  0  0  0
 13 14  1  0  0  0
 13 17  1  0  0  0
 13 18  1  0  0  0
 14 15  1  0  0  0
 14 35  1  0  0  0
 15 16  1  0  0  0
 15 36  1  0  0  0
 15 37  1  0  0  0
 16 17  1  0  0  0
 16 21  1  0  0  0
 16 38  1  0  0  0
 17 19  1  0  0  0
 17 39  1  0  0  0
 18 40  1  0  0  0
 18 41  1  0  0  0
 18 42  1  0  0  0
 19 43  1  0  0  0
 20 44  1  0  0  0
 21 45  1  0  0  0
M  END
>  <Name>
lit-13

>  <Family>
A.1

>  <RBA>
19.1,20.9

>  <RBA_avg>
20.000000

>  <Method>
RUC,LUC

>  <set>
0

$$$$
lit-14
  Cerius2 12180216403D 1   1.00000                          
 Structure written by MMmdl.
 53 56  0  0  0  0  0  0  0  0999 V2000
   -6.7802   -4.1299   16.7490 C   0  0  0  0  0  0
   -5.3980   -4.1727   16.6638 C   0  0  0  0  0  0
   -4.7750   -4.4802   15.4611 C   0  0  0  0  0  0
   -7.5523   -4.3897   15.6138 C   0  0  0  0  0  0
   -6.9535   -4.6823   14.3750 C   0  0  0  0  0  0
   -5.5434   -4.7522   14.3137 C   0  0  0  0  0  0
   -4.8056   -5.0603   13.0310 C   0  0  0  0  0  0
   -5.6907   -5.6269   11.9248 C   0  0  0  0  0  0
   -7.8003   -5.0118   13.1460 C   0  0  0  0  0  0
   -6.9864   -4.8186   11.8304 C   0  0  0  0  0  0
   -9.9696   -4.5961   11.7953 C   0  0  0  0  0  0
   -9.1681   -4.2811   13.0735 C   0  0  0  0  0  0
   -9.1319   -4.3847   10.5270 C   0  0  0  0  0  0
   -7.8590   -5.2417   10.6479 C   0  0  0  0  0  0
   -7.2692   -5.2234    9.2381 C   0  0  0  0  0  0
   -8.5004   -5.1433    8.2958 C   0  0  0  0  0  0
   -9.7234   -5.0094    9.2469 C   0  0  0  0  0  0
   -8.8769   -2.8683   10.3310 C   0  0  0  0  0  0
  -10.7503   -4.2108    8.6756 O   0  0  0  0  0  0
   -4.6763   -3.9102   17.7901 O   0  0  0  0  0  0
   -8.6468   -6.3538    7.3609 C   0  0  0  0  0  0
   -7.5645   -6.4711    6.2862 C   0  0  0  0  0  0
   -7.6661   -5.3606    5.4877 F   0  0  0  0  0  0
   -7.6956   -7.6911    5.3963 C   0  0  0  0  0  0
   -7.2674   -3.8997   17.6938 H   0  0  0  0  0  0
   -3.6884   -4.5145   15.3995 H   0  0  0  0  0  0
   -8.6342   -4.3645   15.7254 H   0  0  0  0  0  0
   -3.9959   -5.7725   13.2309 H   0  0  0  0  0  0
   -4.3449   -4.1289   12.6777 H   0  0  0  0  0  0
   -5.9188   -6.6805   12.1314 H   0  0  0  0  0  0
   -5.1356   -5.6003   10.9805 H   0  0  0  0  0  0
   -8.0294   -6.0848   13.2399 H   0  0  0  0  0  0
   -6.7085   -3.7623   11.7209 H   0  0  0  0  0  0
  -10.8762   -3.9798   11.7679 H   0  0  0  0  0  0
  -10.3086   -5.6389   11.8494 H   0  0  0  0  0  0
   -9.0153   -3.1989   13.1624 H   0  0  0  0  0  0
   -9.7963   -4.5699   13.9240 H   0  0  0  0  0  0
   -8.1581   -6.2873   10.8333 H   0  0  0  0  0  0
   -6.6572   -6.1138    9.0657 H   0  0  0  0  0  0
   -6.6278   -4.3469    9.0908 H   0  0  0  0  0  0
   -8.4255   -4.2409    7.6749 H   0  0  0  0  0  0
  -10.1509   -5.9961    9.4688 H   0  0  0  0  0  0
   -8.2853   -2.6536    9.4360 H   0  0  0  0  0  0
   -8.3478   -2.4162   11.1740 H   0  0  0  0  0  0
   -9.8253   -2.3285   10.2278 H   0  0  0  0  0  0
  -11.0467   -4.6741    7.8648 H   0  0  0  0  0  0
   -3.7227   -3.9799   17.5701 H   0  0  0  0  0  0
   -9.6082   -6.2912    6.8345 H   0  0  0  0  0  0
   -8.6962   -7.2844    7.9402 H   0  0  0  0  0  0
   -6.5708   -6.4389    6.7454 H   0  0  0  0  0  0
   -6.9771   -7.6303    4.5722 H   0  0  0  0  0  0
   -8.6918   -7.7398    4.9451 H   0  0  0  0  0  0
   -7.5047   -8.6171    5.9445 H   0  0  0  0  0  0
  1  2  2  0  0  0
  1  4  1  0  0  0
  1 25  1  0  0  0
  2  3  1  0  0  0
  2 20  1  0  0  0
  3  6  2  0  0  0
  3 26  1  0  0  0
  4  5  2  0  0  0
  4 27  1  0  0  0
  5  6  1  0  0  0
  5  9  1  0  0  0
  6  7  1  0  0  0
  7  8  1  0  0  0
  7 28  1  0  0  0
  7 29  1  0  0  0
  8 10  1  0  0  0
  8 30  1  0  0  0
  8 31  1  0  0  0
  9 10  1  0  0  0
  9 12  1  0  0  0
  9 32  1  0  0  0
 10 14  1  0  0  0
 10 33  1  0  0  0
 11 12  1  0  0  0
 11 13  1  0  0  0
 11 34  1  0  0  0
 11 35  1  0  0  0
 12 36  1  0  0  0
 12 37  1  0  0  0
 13 14  1  0  0  0
 13 17  1  0  0  0
 13 18  1  0  0  0
 14 15  1  0  0  0
 14 38  1  0  0  0
 15 16  1  0  0  0
 15 39  1  0  0  0
 15 40  1  0  0  0
 16 17  1  0  0  0
 16 21  1  0  0  0
 16 41  1  0  0  0
 17 19  1  0  0  0
 17 42  1  0  0  0
 18 43  1  0  0  0
 18 44  1  0  0  0
 18 45  1  0  0  0
 19 46  1  0  0  0
 20 47  1  0  0  0
 21 22  1  0  0  0
 21 48  1  0  0  0
 21 49  1  0  0  0
 22 23  1  0  0  0
 22 24  1  0  0  0
 22 50  1  0  0  0
 24 51  1  0  0  0
 24 52  1  0  0  0
 24 53  1  0  0  0
M  END
>  <Name>
lit-14

>  <Family>
A.1

>  <RBA>
7.100000

>  <RBA_avg>
7.100000

>  <Method>
RUC

>  <set>
1

$$$$
lit-15
  Cerius2 12180216403D 1   1.00000                          
 Structure written by MMmdl.
 65 69  0  0  0  0  0  0  0  0999 V2000
   -6.7903   -4.1041   16.7449 C   0  0  0  0  0  0
   -5.4079   -4.1417   16.6606 C   0  0  0  0  0  0
   -4.7830   -4.4476   15.4584 C   0  0  0  0  0  0
   -7.5607   -4.3677   15.6095 C   0  0  0  0  0  0
   -6.9601   -4.6590   14.3712 C   0  0  0  0  0  0
   -5.5498   -4.7234   14.3108 C   0  0  0  0  0  0
   -4.8103   -5.0300   13.0287 C   0  0  0  0  0  0
   -5.6925   -5.6026   11.9234 C   0  0  0  0  0  0
   -7.8052   -4.9935   13.1422 C   0  0  0  0  0  0
   -6.9915   -4.8003   11.8265 C   0  0  0  0  0  0
   -9.9756   -4.5901   11.7913 C   0  0  0  0  0  0
   -9.1747   -4.2669   13.0675 C   0  0  0  0  0  0
   -9.1401   -4.3796   10.5213 C   0  0  0  0  0  0
   -7.8618   -5.2302   10.6445 C   0  0  0  0  0  0
   -7.2718   -5.2079    9.2351 C   0  0  0  0  0  0
   -8.5099   -5.1594    8.2984 C   0  0  0  0  0  0
   -9.7335   -5.0096    9.2438 C   0  0  0  0  0  0
   -8.8923   -2.8627   10.3195 C   0  0  0  0  0  0
  -10.7561   -4.2079    8.6674 O   0  0  0  0  0  0
   -4.6878   -3.8757   17.7871 O   0  0  0  0  0  0
   -8.6479   -6.3975    7.3980 C   0  0  0  0  0  0
   -7.5628   -6.4844    6.3581 C   0  0  0  0  0  0
   -7.7867   -6.3982    5.0363 C   0  0  0  0  0  0
   -6.7190   -6.4863    3.9850 C   0  0  0  0  0  0
   -7.0675   -7.5719    3.1211 O   0  0  0  0  0  0
   -6.2333   -7.8157    2.0646 C   0  0  0  0  0  0
   -5.0762   -7.1014    1.7497 C   0  0  0  0  0  0
   -4.3120   -7.4592    0.6339 C   0  0  0  0  0  0
   -4.6994   -8.5295   -0.1703 C   0  0  0  0  0  0
   -5.8528   -9.2455    0.1391 C   0  0  0  0  0  0
   -6.6155   -8.8882    1.2529 C   0  0  0  0  0  0
   -7.2789   -3.8753   17.6893 H   0  0  0  0  0  0
   -3.6964   -4.4779   15.3975 H   0  0  0  0  0  0
   -8.6428   -4.3468   15.7206 H   0  0  0  0  0  0
   -3.9973   -5.7382   13.2300 H   0  0  0  0  0  0
   -4.3538   -4.0970   12.6740 H   0  0  0  0  0  0
   -5.9160   -6.6568   12.1320 H   0  0  0  0  0  0
   -5.1369   -5.5756   10.9794 H   0  0  0  0  0  0
   -8.0310   -6.0670   13.2382 H   0  0  0  0  0  0
   -6.7181   -3.7431   11.7144 H   0  0  0  0  0  0
  -10.8852   -3.9781   11.7623 H   0  0  0  0  0  0
  -10.3099   -5.6343   11.8495 H   0  0  0  0  0  0
   -9.0250   -3.1838   13.1512 H   0  0  0  0  0  0
   -9.8020   -4.5536   13.9195 H   0  0  0  0  0  0
   -8.1552   -6.2772   10.8306 H   0  0  0  0  0  0
   -6.6378   -6.0829    9.0620 H   0  0  0  0  0  0
   -6.6517   -4.3172    9.0815 H   0  0  0  0  0  0
   -8.4350   -4.2746    7.6513 H   0  0  0  0  0  0
  -10.1689   -5.9910    9.4719 H   0  0  0  0  0  0
   -8.3118   -2.6484    9.4172 H   0  0  0  0  0  0
   -8.3561   -2.4068   11.1559 H   0  0  0  0  0  0
   -9.8437   -2.3263   10.2253 H   0  0  0  0  0  0
  -11.0319   -4.6574    7.8416 H   0  0  0  0  0  0
   -3.7339   -3.9430   17.5679 H   0  0  0  0  0  0
   -9.6307   -6.3806    6.9103 H   0  0  0  0  0  0
   -8.6197   -7.3102    8.0062 H   0  0  0  0  0  0
   -6.5479   -6.6418    6.7214 H   0  0  0  0  0  0
   -8.7986   -6.2439    4.6658 H   0  0  0  0  0  0
   -5.7384   -6.6659    4.4415 H   0  0  0  0  0  0
   -6.7064   -5.5442    3.4245 H   0  0  0  0  0  0
   -4.7356   -6.2602    2.3473 H   0  0  0  0  0  0
   -3.4102   -6.8983    0.3929 H   0  0  0  0  0  0
   -4.1019   -8.8047   -1.0377 H   0  0  0  0  0  0
   -6.1602  -10.0822   -0.4855 H   0  0  0  0  0  0
   -7.5160   -9.4543    1.4866 H   0  0  0  0  0  0
  1  2  2  0  0  0
  1  4  1  0  0  0
  1 32  1  0  0  0
  2  3  1  0  0  0
  2 20  1  0  0  0
  3  6  2  0  0  0
  3 33  1  0  0  0
  4  5  2  0  0  0
  4 34  1  0  0  0
  5  6  1  0  0  0
  5  9  1  0  0  0
  6  7  1  0  0  0
  7  8  1  0  0  0
  7 35  1  0  0  0
  7 36  1  0  0  0
  8 10  1  0  0  0
  8 37  1  0  0  0
  8 38  1  0  0  0
  9 10  1  0  0  0
  9 12  1  0  0  0
  9 39  1  0  0  0
 10 14  1  0  0  0
 10 40  1  0  0  0
 11 12  1  0  0  0
 11 13  1  0  0  0
 11 41  1  0  0  0
 11 42  1  0  0  0
 12 43  1  0  0  0
 12 44  1  0  0  0
 13 14  1  0  0  0
 13 17  1  0  0  0
 13 18  1  0  0  0
 14 15  1  0  0  0
 14 45  1  0  0  0
 15 16  1  0  0  0
 15 46  1  0  0  0
 15 47  1  0  0  0
 16 17  1  0  0  0
 16 21  1  0  0  0
 16 48  1  0  0  0
 17 19  1  0  0  0
 17 49  1  0  0  0
 18 50  1  0  0  0
 18 51  1  0  0  0
 18 52  1  0  0  0
 19 53  1  0  0  0
 20 54  1  0  0  0
 21 22  1  0  0  0
 21 55  1  0  0  0
 21 56  1  0  0  0
 22 23  2  0  0  0
 22 57  1  0  0  0
 23 24  1  0  0  0
 23 58  1  0  0  0
 24 25  1  0  0  0
 24 59  1  0  0  0
 24 60  1  0  0  0
 25 26  1  0  0  0
 26 27  2  0  0  0
 26 31  1  0  0  0
 27 28  1  0  0  0
 27 61  1  0  0  0
 28 29  2  0  0  0
 28 62  1  0  0  0
 29 30  1  0  0  0
 29 63  1  0  0  0
 30 31  2  0  0  0
 30 64  1  0  0  0
 31 65  1  0  0  0
M  END
>  <Name>
lit-15

>  <Family>
A.1

>  <RBA>
7.100000

>  <RBA_avg>
7.100000

>  <Method>
RUC

>  <set>
2

$$$$
lit-16
  Cerius2 12180216403D 1   1.00000                          
 Structure written by MMmdl.
 53 56  0  0  0  0  0  0  0  0999 V2000
   -6.7900   -4.1011   16.7439 C   0  0  0  0  0  0
   -5.4077   -4.1399   16.6596 C   0  0  0  0  0  0
   -4.7830   -4.4483   15.4579 C   0  0  0  0  0  0
   -7.5607   -4.3660   15.6091 C   0  0  0  0  0  0
   -6.9603   -4.6597   14.3712 C   0  0  0  0  0  0
   -5.5500   -4.7252   14.3107 C   0  0  0  0  0  0
   -4.8107   -5.0335   13.0289 C   0  0  0  0  0  0
   -5.6933   -5.6048   11.9233 C   0  0  0  0  0  0
   -7.8055   -4.9952   13.1426 C   0  0  0  0  0  0
   -6.9919   -4.8015   11.8267 C   0  0  0  0  0  0
   -9.9764   -4.5918   11.7914 C   0  0  0  0  0  0
   -9.1760   -4.2700   13.0683 C   0  0  0  0  0  0
   -9.1404   -4.3794   10.5223 C   0  0  0  0  0  0
   -7.8623   -5.2305   10.6447 C   0  0  0  0  0  0
   -7.2717   -5.2101    9.2351 C   0  0  0  0  0  0
   -8.5072   -5.1486    8.2986 C   0  0  0  0  0  0
   -9.7318   -5.0082    9.2436 C   0  0  0  0  0  0
   -8.8920   -2.8623   10.3226 C   0  0  0  0  0  0
  -10.7567   -4.2113    8.6659 O   0  0  0  0  0  0
   -4.6873   -3.8728   17.7857 O   0  0  0  0  0  0
   -7.7196   -7.6337    5.4012 C   0  0  0  0  0  0
   -7.5408   -6.4319    6.3159 C   0  0  0  0  0  0
   -8.6403   -6.3723    7.3794 C   0  0  0  0  0  0
   -7.2784   -3.8702   17.6880 H   0  0  0  0  0  0
   -3.6963   -4.4794   15.3969 H   0  0  0  0  0  0
   -8.6427   -4.3436   15.7201 H   0  0  0  0  0  0
   -3.9990   -5.7430   13.2307 H   0  0  0  0  0  0
   -4.3526   -4.1013   12.6741 H   0  0  0  0  0  0
   -5.9177   -6.6590   12.1314 H   0  0  0  0  0  0
   -5.1378   -5.5778   10.9793 H   0  0  0  0  0  0
   -8.0304   -6.0689   13.2387 H   0  0  0  0  0  0
   -6.7180   -3.7444   11.7153 H   0  0  0  0  0  0
  -10.8860   -3.9798   11.7629 H   0  0  0  0  0  0
  -10.3105   -5.6361   11.8481 H   0  0  0  0  0  0
   -9.0274   -3.1868   13.1540 H   0  0  0  0  0  0
   -9.8030   -4.5588   13.9198 H   0  0  0  0  0  0
   -8.1565   -6.2772   10.8309 H   0  0  0  0  0  0
   -6.6471   -6.0919    9.0613 H   0  0  0  0  0  0
   -6.6426   -4.3255    9.0834 H   0  0  0  0  0  0
   -8.4322   -4.2572    7.6617 H   0  0  0  0  0  0
  -10.1618   -5.9928    9.4682 H   0  0  0  0  0  0
   -8.3062   -2.6471    9.4240 H   0  0  0  0  0  0
   -8.3604   -2.4068   11.1622 H   0  0  0  0  0  0
   -9.8431   -2.3263   10.2234 H   0  0  0  0  0  0
  -11.0256   -4.6624    7.8386 H   0  0  0  0  0  0
   -3.7334   -3.9399   17.5663 H   0  0  0  0  0  0
   -6.9271   -7.6569    4.6467 H   0  0  0  0  0  0
   -8.6821   -7.5915    4.8813 H   0  0  0  0  0  0
   -7.6758   -8.5685    5.9690 H   0  0  0  0  0  0
   -7.5591   -5.5169    5.7126 H   0  0  0  0  0  0
   -6.5532   -6.4894    6.7857 H   0  0  0  0  0  0
   -9.6154   -6.3397    6.8776 H   0  0  0  0  0  0
   -8.6238   -7.2912    7.9791 H   0  0  0  0  0  0
  1  2  2  0  0  0
  1  4  1  0  0  0
  1 24  1  0  0  0
  2  3  1  0  0  0
  2 20  1  0  0  0
  3  6  2  0  0  0
  3 25  1  0  0  0
  4  5  2  0  0  0
  4 26  1  0  0  0
  5  6  1  0  0  0
  5  9  1  0  0  0
  6  7  1  0  0  0
  7  8  1  0  0  0
  7 27  1  0  0  0
  7 28  1  0  0  0
  8 10  1  0  0  0
  8 29  1  0  0  0
  8 30  1  0  0  0
  9 10  1  0  0  0
  9 12  1  0  0  0
  9 31  1  0  0  0
 10 14  1  0  0  0
 10 32  1  0  0  0
 11 12  1  0  0  0
 11 13  1  0  0  0
 11 33  1  0  0  0
 11 34  1  0  0  0
 12 35  1  0  0  0
 12 36  1  0  0  0
 13 14  1  0  0  0
 13 17  1  0  0  0
 13 18  1  0  0  0
 14 15  1  0  0  0
 14 37  1  0  0  0
 15 16  1  0  0  0
 15 38  1  0  0  0
 15 39  1  0  0  0
 16 17  1  0  0  0
 16 23  1  0  0  0
 16 40  1  0  0  0
 17 19  1  0  0  0
 17 41  1  0  0  0
 18 42  1  0  0  0
 18 43  1  0  0  0
 18 44  1  0  0  0
 19 45  1  0  0  0
 20 46  1  0  0  0
 21 22  1  0  0  0
 21 47  1  0  0  0
 21 48  1  0  0  0
 21 49  1  0  0  0
 22 23  1  0  0  0
 22 50  1  0  0  0
 22 51  1  0  0  0
 23 52  1  0  0  0
 23 53  1  0  0  0
M  END
>  <Name>
lit-16

>  <Family>
A.1

>  <RBA>
5.000000

>  <RBA_avg>
5.000000

>  <Method>
RUC

>  <set>
0

$$$$
lit-17
  Cerius2 12180216403D 1   1.00000                          
 Structure written by MMmdl.
 57 61  0  0  0  0  0  0  0  0999 V2000
   -6.7900   -4.1047   16.7450 C   0  0  0  0  0  0
   -5.4077   -4.1412   16.6602 C   0  0  0  0  0  0
   -4.7830   -4.4469   15.4579 C   0  0  0  0  0  0
   -7.5606   -4.3689   15.6100 C   0  0  0  0  0  0
   -6.9602   -4.6596   14.3714 C   0  0  0  0  0  0
   -5.5499   -4.7233   14.3106 C   0  0  0  0  0  0
   -4.8105   -5.0299   13.0284 C   0  0  0  0  0  0
   -5.6928   -5.6029   11.9233 C   0  0  0  0  0  0
   -7.8054   -4.9941   13.1425 C   0  0  0  0  0  0
   -6.9919   -4.8006   11.8267 C   0  0  0  0  0  0
   -9.9758   -4.5903   11.7915 C   0  0  0  0  0  0
   -9.1749   -4.2670   13.0677 C   0  0  0  0  0  0
   -9.1403   -4.3795   10.5216 C   0  0  0  0  0  0
   -7.8621   -5.2303   10.6446 C   0  0  0  0  0  0
   -7.2721   -5.2064    9.2357 C   0  0  0  0  0  0
   -8.5099   -5.1620    8.2990 C   0  0  0  0  0  0
   -9.7337   -5.0091    9.2438 C   0  0  0  0  0  0
   -8.8927   -2.8625   10.3202 C   0  0  0  0  0  0
  -10.7540   -4.2062    8.6653 O   0  0  0  0  0  0
   -4.6874   -3.8747   17.7866 O   0  0  0  0  0  0
   -7.5847   -6.5101    6.3411 C   0  0  0  0  0  0
   -8.6476   -6.4107    7.4115 C   0  0  0  0  0  0
   -7.5970   -5.6381    5.2434 C   0  0  0  0  0  0
   -6.6151   -5.7285    4.2552 C   0  0  0  0  0  0
   -5.6129   -6.6916    4.3528 C   0  0  0  0  0  0
   -5.5925   -7.5659    5.4377 C   0  0  0  0  0  0
   -6.5739   -7.4770    6.4268 C   0  0  0  0  0  0
   -7.2785   -3.8762   17.6897 H   0  0  0  0  0  0
   -3.6963   -4.4765   15.3967 H   0  0  0  0  0  0
   -8.6427   -4.3489   15.7214 H   0  0  0  0  0  0
   -3.9974   -5.7378   13.2297 H   0  0  0  0  0  0
   -4.3543   -4.0968   12.6735 H   0  0  0  0  0  0
   -5.9162   -6.6571   12.1321 H   0  0  0  0  0  0
   -5.1373   -5.5759   10.9793 H   0  0  0  0  0  0
   -8.0313   -6.0675   13.2384 H   0  0  0  0  0  0
   -6.7185   -3.7434   11.7147 H   0  0  0  0  0  0
  -10.8854   -3.9785   11.7628 H   0  0  0  0  0  0
  -10.3097   -5.6346   11.8497 H   0  0  0  0  0  0
   -9.0247   -3.1840   13.1514 H   0  0  0  0  0  0
   -9.8021   -4.5535   13.9198 H   0  0  0  0  0  0
   -8.1553   -6.2775   10.8300 H   0  0  0  0  0  0
   -6.6334   -6.0775    9.0621 H   0  0  0  0  0  0
   -6.6555   -4.3132    9.0821 H   0  0  0  0  0  0
   -8.4356   -4.2772    7.6531 H   0  0  0  0  0  0
  -10.1717   -5.9893    9.4729 H   0  0  0  0  0  0
   -8.3132   -2.6479    9.4171 H   0  0  0  0  0  0
   -8.3556   -2.4069   11.1561 H   0  0  0  0  0  0
   -9.8441   -2.3261   10.2270 H   0  0  0  0  0  0
  -11.0381   -4.6615    7.8457 H   0  0  0  0  0  0
   -3.7335   -3.9398   17.5667 H   0  0  0  0  0  0
   -9.6255   -6.4058    6.9124 H   0  0  0  0  0  0
   -8.6365   -7.3150    8.0339 H   0  0  0  0  0  0
   -8.3750   -4.8811    5.1501 H   0  0  0  0  0  0
   -6.6331   -5.0460    3.4071 H   0  0  0  0  0  0
   -4.8475   -6.7618    3.5820 H   0  0  0  0  0  0
   -4.8104   -8.3193    5.5146 H   0  0  0  0  0  0
   -6.5411   -8.1684    7.2681 H   0  0  0  0  0  0
  1  2  2  0  0  0
  1  4  1  0  0  0
  1 28  1  0  0  0
  2  3  1  0  0  0
  2 20  1  0  0  0
  3  6  2  0  0  0
  3 29  1  0  0  0
  4  5  2  0  0  0
  4 30  1  0  0  0
  5  6  1  0  0  0
  5  9  1  0  0  0
  6  7  1  0  0  0
  7  8  1  0  0  0
  7 31  1  0  0  0
  7 32  1  0  0  0
  8 10  1  0  0  0
  8 33  1  0  0  0
  8 34  1  0  0  0
  9 10  1  0  0  0
  9 12  1  0  0  0
  9 35  1  0  0  0
 10 14  1  0  0  0
 10 36  1  0  0  0
 11 12  1  0  0  0
 11 13  1  0  0  0
 11 37  1  0  0  0
 11 38  1  0  0  0
 12 39  1  0  0  0
 12 40  1  0  0  0
 13 14  1  0  0  0
 13 17  1  0  0  0
 13 18  1  0  0  0
 14 15  1  0  0  0
 14 41  1  0  0  0
 15 16  1  0  0  0
 15 42  1  0  0  0
 15 43  1  0  0  0
 16 17  1  0  0  0
 16 22  1  0  0  0
 16 44  1  0  0  0
 17 19  1  0  0  0
 17 45  1  0  0  0
 18 46  1  0  0  0
 18 47  1  0  0  0
 18 48  1  0  0  0
 19 49  1  0  0  0
 20 50  1  0  0  0
 21 22  1  0  0  0
 21 23  2  0  0  0
 21 27  1  0  0  0
 22 51  1  0  0  0
 22 52  1  0  0  0
 23 24  1  0  0  0
 23 53  1  0  0  0
 24 25  2  0  0  0
 24 54  1  0  0  0
 25 26  1  0  0  0
 25 55  1  0  0  0
 26 27  2  0  0  0
 26 56  1  0  0  0
 27 57  1  0  0  0
M  END
>  <Name>
lit-17

>  <Family>
A.1

>  <RBA>
5.000000

>  <RBA_avg>
5.000000

>  <Method>
RUC

>  <set>
2

$$$$
lit-18
  Cerius2 12180216403D 1   1.00000                          
 Structure written by MMmdl.
 68 72  0  0  0  0  0  0  0  0999 V2000
   -6.7993   -4.0996   16.7327 C   0  0  0  0  0  0
   -5.4184   -4.1281   16.6531 C   0  0  0  0  0  0
   -4.7869   -4.4442   15.4559 C   0  0  0  0  0  0
   -7.5635   -4.3797   15.6000 C   0  0  0  0  0  0
   -6.9581   -4.6740   14.3657 C   0  0  0  0  0  0
   -5.5476   -4.7331   14.3078 C   0  0  0  0  0  0
   -4.8060   -5.0454   13.0296 C   0  0  0  0  0  0
   -5.6877   -5.6132   11.9202 C   0  0  0  0  0  0
   -7.8017   -5.0080   13.1387 C   0  0  0  0  0  0
   -6.9862   -4.8097   11.8244 C   0  0  0  0  0  0
   -9.9704   -4.5947   11.7941 C   0  0  0  0  0  0
   -9.1694   -4.2771   13.0689 C   0  0  0  0  0  0
   -9.1332   -4.3797   10.5279 C   0  0  0  0  0  0
   -7.8564   -5.2329   10.6405 C   0  0  0  0  0  0
   -7.2733   -5.1953    9.2285 C   0  0  0  0  0  0
   -8.5192   -5.1599    8.3006 C   0  0  0  0  0  0
   -9.7351   -5.0005    9.2538 C   0  0  0  0  0  0
   -8.8862   -2.8615   10.3311 C   0  0  0  0  0  0
  -10.7484   -4.1834    8.6978 O   0  0  0  0  0  0
   -4.7079   -3.8399   17.7806 O   0  0  0  0  0  0
   -8.6581   -6.4203    7.4368 C   0  0  0  0  0  0
   -7.6400   -6.4797    6.3758 C   0  0  0  0  0  0
   -6.8170   -6.5434    5.5021 C   0  0  0  0  0  0
   -5.8143   -6.6302    4.4311 C   0  0  0  0  0  0
   -4.7060   -7.4529    4.8718 N   0  0  0  0  0  0
   -3.5546   -7.7144    4.1498 C   0  0  0  0  0  0
   -2.4706   -8.4545    4.6781 C   0  0  0  0  0  0
   -1.2810   -8.6606    3.9502 C   0  0  0  0  0  0
   -1.1394   -8.1342    2.6697 C   0  0  0  0  0  0
   -2.1875   -7.3856    2.1346 C   0  0  0  0  0  0
   -3.3696   -7.1825    2.8622 C   0  0  0  0  0  0
    0.0753   -8.2944    1.9893 N   0  0  0  0  0  0
   -0.0114   -9.0293    0.9841 N   0  3  0  0  0  0
   -0.0936   -9.6973    0.0636 N   0  5  0  0  0  0
   -2.5274   -9.0247    6.0310 N   0  3  0  0  0  0
   -1.4507   -9.2100    6.6184 O   0  0  0  0  0  0
   -3.6387   -9.3035    6.5078 O   0  5  0  0  0  0
   -7.2864   -3.8655   17.6733 H   0  0  0  0  0  0
   -3.7021   -4.4689   15.4007 H   0  0  0  0  0  0
   -8.6438   -4.3658   15.7107 H   0  0  0  0  0  0
   -3.9984   -5.7587   13.2346 H   0  0  0  0  0  0
   -4.3425   -4.1154   12.6750 H   0  0  0  0  0  0
   -5.9124   -6.6679   12.1252 H   0  0  0  0  0  0
   -5.1310   -5.5835   10.9769 H   0  0  0  0  0  0
   -8.0294   -6.0815   13.2311 H   0  0  0  0  0  0
   -6.7114   -3.7523   11.7178 H   0  0  0  0  0  0
  -10.8789   -3.9814   11.7673 H   0  0  0  0  0  0
  -10.3060   -5.6386   11.8486 H   0  0  0  0  0  0
   -9.0163   -3.1945   13.1556 H   0  0  0  0  0  0
   -9.7976   -4.5649   13.9196 H   0  0  0  0  0  0
   -8.1489   -6.2815   10.8186 H   0  0  0  0  0  0
   -6.6262   -6.0586    9.0414 H   0  0  0  0  0  0
   -6.6677   -4.2941    9.0766 H   0  0  0  0  0  0
   -8.4489   -4.2872    7.6373 H   0  0  0  0  0  0
  -10.1803   -5.9777    9.4812 H   0  0  0  0  0  0
   -8.3207   -2.6422    9.4201 H   0  0  0  0  0  0
   -8.3357   -2.4114   11.1613 H   0  0  0  0  0  0
   -9.8378   -2.3221   10.2569 H   0  0  0  0  0  0
  -11.0714   -4.6087    7.8860 H   0  0  0  0  0  0
   -3.7641   -3.9329   17.5696 H   0  0  0  0  0  0
   -9.6497   -6.4348    6.9687 H   0  0  0  0  0  0
   -8.5923   -7.3181    8.0636 H   0  0  0  0  0  0
   -5.4640   -5.6210    4.1863 H   0  0  0  0  0  0
   -6.2728   -7.0626    3.5347 H   0  0  0  0  0  0
   -4.8670   -7.9997    5.7206 H   0  0  0  0  0  0
   -0.4521   -9.2165    4.3846 H   0  0  0  0  0  0
   -2.0894   -6.9336    1.1497 H   0  0  0  0  0  0
   -4.1459   -6.5827    2.3935 H   0  0  0  0  0  0
  1  2  2  0  0  0
  1  4  1  0  0  0
  1 38  1  0  0  0
  2  3  1  0  0  0
  2 20  1  0  0  0
  3  6  2  0  0  0
  3 39  1  0  0  0
  4  5  2  0  0  0
  4 40  1  0  0  0
  5  6  1  0  0  0
  5  9  1  0  0  0
  6  7  1  0  0  0
  7  8  1  0  0  0
  7 41  1  0  0  0
  7 42  1  0  0  0
  8 10  1  0  0  0
  8 43  1  0  0  0
  8 44  1  0  0  0
  9 10  1  0  0  0
  9 12  1  0  0  0
  9 45  1  0  0  0
 10 14  1  0  0  0
 10 46  1  0  0  0
 11 12  1  0  0  0
 11 13  1  0  0  0
 11 47  1  0  0  0
 11 48  1  0  0  0
 12 49  1  0  0  0
 12 50  1  0  0  0
 13 14  1  0  0  0
 13 17  1  0  0  0
 13 18  1  0  0  0
 14 15  1  0  0  0
 14 51  1  0  0  0
 15 16  1  0  0  0
 15 52  1  0  0  0
 15 53  1  0  0  0
 16 17  1  0  0  0
 16 21  1  0  0  0
 16 54  1  0  0  0
 17 19  1  0  0  0
 17 55  1  0  0  0
 18 56  1  0  0  0
 18 57  1  0  0  0
 18 58  1  0  0  0
 19 59  1  0  0  0
 20 60  1  0  0  0
 21 22  1  0  0  0
 21 61  1  0  0  0
 21 62  1  0  0  0
 22 23  3  0  0  0
 23 24  1  0  0  0
 24 25  1  0  0  0
 24 63  1  0  0  0
 24 64  1  0  0  0
 25 26  1  0  0  0
 25 65  1  0  0  0
 26 27  2  0  0  0
 26 31  1  0  0  0
 27 28  1  0  0  0
 27 35  1  0  0  0
 28 29  2  0  0  0
 28 66  1  0  0  0
 29 30  1  0  0  0
 29 32  1  0  0  0
 30 31  2  0  0  0
 30 67  1  0  0  0
 31 68  1  0  0  0
 32 33  2  0  0  0
 33 34  2  0  0  0
 35 36  2  0  0  0
 35 37  1  0  0  0
M  CHG  4  33   1  34  -1  35   1  37  -1
M  END
>  <Name>
lit-18

>  <Family>
A.1

>  <RBA>
3.800000

>  <RBA_avg>
3.800000

>  <Method>
RUC

>  <set>
1

$$$$
lit-19
  Cerius2 12180216403D 1   1.00000                          
 Structure written by MMmdl.
 48 51  0  0  0  0  0  0  0  0999 V2000
   -6.7903   -4.1060   16.7454 C   0  0  0  0  0  0
   -5.4080   -4.1416   16.6608 C   0  0  0  0  0  0
   -4.7829   -4.4461   15.4584 C   0  0  0  0  0  0
   -7.5606   -4.3701   15.6099 C   0  0  0  0  0  0
   -6.9598   -4.6597   14.3713 C   0  0  0  0  0  0
   -5.5494   -4.7224   14.3107 C   0  0  0  0  0  0
   -4.8097   -5.0276   13.0284 C   0  0  0  0  0  0
   -5.6915   -5.6015   11.9234 C   0  0  0  0  0  0
   -7.8047   -4.9941   13.1421 C   0  0  0  0  0  0
   -6.9912   -4.8003   11.8263 C   0  0  0  0  0  0
   -9.9753   -4.5917   11.7918 C   0  0  0  0  0  0
   -9.1741   -4.2671   13.0673 C   0  0  0  0  0  0
   -9.1408   -4.3806   10.5212 C   0  0  0  0  0  0
   -7.8609   -5.2306   10.6439 C   0  0  0  0  0  0
   -7.2719   -5.2024    9.2347 C   0  0  0  0  0  0
   -8.5147   -5.1736    8.3042 C   0  0  0  0  0  0
   -9.7373   -5.0089    9.2431 C   0  0  0  0  0  0
   -8.8943   -2.8632   10.3194 C   0  0  0  0  0  0
  -10.7496   -4.1974    8.6623 O   0  0  0  0  0  0
   -4.6881   -3.8752   17.7873 O   0  0  0  0  0  0
   -8.6319   -6.4294    7.4405 C   0  0  0  0  0  0
   -7.5392   -6.4877    6.5236 O   0  0  0  0  0  0
   -7.2791   -3.8783   17.6900 H   0  0  0  0  0  0
   -3.6962   -4.4749   15.3973 H   0  0  0  0  0  0
   -8.6426   -4.3508   15.7212 H   0  0  0  0  0  0
   -3.9956   -5.7345   13.2293 H   0  0  0  0  0  0
   -4.3549   -4.0937   12.6737 H   0  0  0  0  0  0
   -5.9140   -6.6559   12.1323 H   0  0  0  0  0  0
   -5.1360   -5.5742   10.9794 H   0  0  0  0  0  0
   -8.0305   -6.0676   13.2378 H   0  0  0  0  0  0
   -6.7184   -3.7430   11.7146 H   0  0  0  0  0  0
  -10.8855   -3.9806   11.7632 H   0  0  0  0  0  0
  -10.3082   -5.6361   11.8505 H   0  0  0  0  0  0
   -9.0238   -3.1839   13.1498 H   0  0  0  0  0  0
   -9.8011   -4.5527   13.9198 H   0  0  0  0  0  0
   -8.1528   -6.2783   10.8281 H   0  0  0  0  0  0
   -6.6259   -6.0674    9.0527 H   0  0  0  0  0  0
   -6.6661   -4.3019    9.0800 H   0  0  0  0  0  0
   -8.4237   -4.3105    7.6315 H   0  0  0  0  0  0
  -10.1839   -5.9847    9.4738 H   0  0  0  0  0  0
   -8.3223   -2.6484    9.4116 H   0  0  0  0  0  0
   -8.3506   -2.4085   11.1517 H   0  0  0  0  0  0
   -9.8463   -2.3263   10.2341 H   0  0  0  0  0  0
  -11.0544   -4.6606    7.8544 H   0  0  0  0  0  0
   -3.7340   -3.9399   17.5678 H   0  0  0  0  0  0
   -9.5602   -6.4111    6.8601 H   0  0  0  0  0  0
   -8.6184   -7.3366    8.0540 H   0  0  0  0  0  0
   -7.6755   -7.3072    6.0004 H   0  0  0  0  0  0
  1  2  2  0  0  0
  1  4  1  0  0  0
  1 23  1  0  0  0
  2  3  1  0  0  0
  2 20  1  0  0  0
  3  6  2  0  0  0
  3 24  1  0  0  0
  4  5  2  0  0  0
  4 25  1  0  0  0
  5  6  1  0  0  0
  5  9  1  0  0  0
  6  7  1  0  0  0
  7  8  1  0  0  0
  7 26  1  0  0  0
  7 27  1  0  0  0
  8 10  1  0  0  0
  8 28  1  0  0  0
  8 29  1  0  0  0
  9 10  1  0  0  0
  9 12  1  0  0  0
  9 30  1  0  0  0
 10 14  1  0  0  0
 10 31  1  0  0  0
 11 12  1  0  0  0
 11 13  1  0  0  0
 11 32  1  0  0  0
 11 33  1  0  0  0
 12 34  1  0  0  0
 12 35  1  0  0  0
 13 14  1  0  0  0
 13 17  1  0  0  0
 13 18  1  0  0  0
 14 15  1  0  0  0
 14 36  1  0  0  0
 15 16  1  0  0  0
 15 37  1  0  0  0
 15 38  1  0  0  0
 16 17  1  0  0  0
 16 21  1  0  0  0
 16 39  1  0  0  0
 17 19  1  0  0  0
 17 40  1  0  0  0
 18 41  1  0  0  0
 18 42  1  0  0  0
 18 43  1  0  0  0
 19 44  1  0  0  0
 20 45  1  0  0  0
 21 22  1  0  0  0
 21 46  1  0  0  0
 21 47  1  0  0  0
 22 48  1  0  0  0
M  END
>  <Name>
lit-19

>  <Family>
A.1

>  <RBA>
2.400000

>  <RBA_avg>
2.400000

>  <Method>
RUC

>  <set>
1

$$$$
lit-20
  Cerius2 12180216403D 1   1.00000                          
 Structure written by MMmdl.
 54 57  0  0  0  0  0  0  0  0999 V2000
   -6.7900   -4.1025   16.7443 C   0  0  0  0  0  0
   -5.4076   -4.1403   16.6597 C   0  0  0  0  0  0
   -4.7830   -4.4476   15.4578 C   0  0  0  0  0  0
   -7.5607   -4.3672   15.6095 C   0  0  0  0  0  0
   -6.9603   -4.6597   14.3713 C   0  0  0  0  0  0
   -5.5500   -4.7245   14.3106 C   0  0  0  0  0  0
   -4.8107   -5.0322   13.0287 C   0  0  0  0  0  0
   -5.6934   -5.6046   11.9235 C   0  0  0  0  0  0
   -7.8056   -4.9948   13.1425 C   0  0  0  0  0  0
   -6.9920   -4.8015   11.8267 C   0  0  0  0  0  0
   -9.9763   -4.5908   11.7914 C   0  0  0  0  0  0
   -9.1757   -4.2688   13.0682 C   0  0  0  0  0  0
   -9.1403   -4.3792   10.5220 C   0  0  0  0  0  0
   -7.8624   -5.2308   10.6448 C   0  0  0  0  0  0
   -7.2720   -5.2116    9.2352 C   0  0  0  0  0  0
   -8.5073   -5.1486    8.2984 C   0  0  0  0  0  0
   -9.7319   -5.0083    9.2437 C   0  0  0  0  0  0
   -8.8914   -2.8623   10.3219 C   0  0  0  0  0  0
  -10.7569   -4.2118    8.6660 O   0  0  0  0  0  0
   -4.6873   -3.8730   17.7858 O   0  0  0  0  0  0
   -8.6404   -6.3712    7.3769 C   0  0  0  0  0  0
   -7.5408   -6.4296    6.3109 C   0  0  0  0  0  0
   -7.7226   -7.6385    5.3916 C   0  0  0  0  0  0
   -6.6690   -7.6900    4.3661 C   0  0  0  0  0  0
   -5.8375   -7.7349    3.5529 N   0  0  0  0  0  0
   -7.2783   -3.8726   17.6886 H   0  0  0  0  0  0
   -3.6963   -4.4781   15.3968 H   0  0  0  0  0  0
   -8.6427   -4.3461   15.7207 H   0  0  0  0  0  0
   -3.9983   -5.7409   13.2303 H   0  0  0  0  0  0
   -4.3535   -4.0997   12.6736 H   0  0  0  0  0  0
   -5.9174   -6.6587   12.1323 H   0  0  0  0  0  0
   -5.1379   -5.5780   10.9795 H   0  0  0  0  0  0
   -8.0310   -6.0684   13.2387 H   0  0  0  0  0  0
   -6.7182   -3.7444   11.7149 H   0  0  0  0  0  0
  -10.8856   -3.9784   11.7627 H   0  0  0  0  0  0
  -10.3108   -5.6349   11.8485 H   0  0  0  0  0  0
   -9.0264   -3.1857   13.1533 H   0  0  0  0  0  0
   -9.8028   -4.5568   13.9197 H   0  0  0  0  0  0
   -8.1571   -6.2773   10.8317 H   0  0  0  0  0  0
   -6.6488   -6.0944    9.0616 H   0  0  0  0  0  0
   -6.6416   -4.3279    9.0830 H   0  0  0  0  0  0
   -8.4318   -4.2564    7.6626 H   0  0  0  0  0  0
  -10.1617   -5.9931    9.4685 H   0  0  0  0  0  0
   -8.3054   -2.6476    9.4232 H   0  0  0  0  0  0
   -8.3599   -2.4066   11.1614 H   0  0  0  0  0  0
   -9.8424   -2.3260   10.2222 H   0  0  0  0  0  0
  -11.0301   -4.6655    7.8416 H   0  0  0  0  0  0
   -3.7333   -3.9394   17.5662 H   0  0  0  0  0  0
   -9.6158   -6.3376    6.8756 H   0  0  0  0  0  0
   -8.6232   -7.2908    7.9751 H   0  0  0  0  0  0
   -6.5533   -6.4773    6.7852 H   0  0  0  0  0  0
   -7.5589   -5.5075    5.7158 H   0  0  0  0  0  0
   -8.7029   -7.5910    4.9036 H   0  0  0  0  0  0
   -7.7009   -8.5614    5.9826 H   0  0  0  0  0  0
  1  2  2  0  0  0
  1  4  1  0  0  0
  1 26  1  0  0  0
  2  3  1  0  0  0
  2 20  1  0  0  0
  3  6  2  0  0  0
  3 27  1  0  0  0
  4  5  2  0  0  0
  4 28  1  0  0  0
  5  6  1  0  0  0
  5  9  1  0  0  0
  6  7  1  0  0  0
  7  8  1  0  0  0
  7 29  1  0  0  0
  7 30  1  0  0  0
  8 10  1  0  0  0
  8 31  1  0  0  0
  8 32  1  0  0  0
  9 10  1  0  0  0
  9 12  1  0  0  0
  9 33  1  0  0  0
 10 14  1  0  0  0
 10 34  1  0  0  0
 11 12  1  0  0  0
 11 13  1  0  0  0
 11 35  1  0  0  0
 11 36  1  0  0  0
 12 37  1  0  0  0
 12 38  1  0  0  0
 13 14  1  0  0  0
 13 17  1  0  0  0
 13 18  1  0  0  0
 14 15  1  0  0  0
 14 39  1  0  0  0
 15 16  1  0  0  0
 15 40  1  0  0  0
 15 41  1  0  0  0
 16 17  1  0  0  0
 16 21  1  0  0  0
 16 42  1  0  0  0
 17 19  1  0  0  0
 17 43  1  0  0  0
 18 44  1  0  0  0
 18 45  1  0  0  0
 18 46  1  0  0  0
 19 47  1  0  0  0
 20 48  1  0  0  0
 21 22  1  0  0  0
 21 49  1  0  0  0
 21 50  1  0  0  0
 22 23  1  0  0  0
 22 51  1  0  0  0
 22 52  1  0  0  0
 23 24  1  0  0  0
 23 53  1  0  0  0
 23 54  1  0  0  0
 24 25  3  0  0  0
M  END
>  <Name>
lit-20

>  <Family>
A.1

>  <RBA>
0.900000

>  <RBA_avg>
0.890000

>  <Method>
RUC

>  <set>
2

$$$$
lit-21
  Cerius2 12180216403D 1   1.00000                          
 Structure written by MMmdl.
 63 66  0  0  0  0  0  0  0  0999 V2000
   -6.7899   -4.1033   16.7447 C   0  0  0  0  0  0
   -5.4077   -4.1409   16.6598 C   0  0  0  0  0  0
   -4.7832   -4.4477   15.4576 C   0  0  0  0  0  0
   -7.5609   -4.3677   15.6099 C   0  0  0  0  0  0
   -6.9606   -4.6595   14.3715 C   0  0  0  0  0  0
   -5.5503   -4.7241   14.3105 C   0  0  0  0  0  0
   -4.8112   -5.0312   13.0283 C   0  0  0  0  0  0
   -5.6939   -5.6041   11.9233 C   0  0  0  0  0  0
   -7.8061   -4.9941   13.1428 C   0  0  0  0  0  0
   -6.9927   -4.8011   11.8270 C   0  0  0  0  0  0
   -9.9765   -4.5883   11.7910 C   0  0  0  0  0  0
   -9.1759   -4.2673   13.0683 C   0  0  0  0  0  0
   -9.1395   -4.3785   10.5221 C   0  0  0  0  0  0
   -7.8637   -5.2308   10.6457 C   0  0  0  0  0  0
   -7.2737   -5.2143    9.2360 C   0  0  0  0  0  0
   -8.5051   -5.1449    8.2930 C   0  0  0  0  0  0
   -9.7288   -5.0096    9.2442 C   0  0  0  0  0  0
   -8.8895   -2.8620   10.3206 C   0  0  0  0  0  0
  -10.7590   -4.2166    8.6701 O   0  0  0  0  0  0
   -4.6870   -3.8741   17.7857 O   0  0  0  0  0  0
   -8.6473   -6.3652    7.3669 C   0  0  0  0  0  0
   -7.8225   -6.2912    6.0750 C   0  0  0  0  0  0
   -6.3090   -6.3080    6.2789 C   0  0  0  0  0  0
   -5.5720   -6.3789    4.9421 C   0  0  0  0  0  0
   -4.1303   -6.3796    5.1324 N   0  0  0  0  0  0
   -3.3055   -7.4600    5.2537 C   0  0  0  0  0  0
   -2.0931   -7.3002    5.4149 O   0  0  0  0  0  0
   -3.9174   -8.8326    5.1698 C   0  0  0  0  0  0
   -7.2780   -3.8737   17.6892 H   0  0  0  0  0  0
   -3.6965   -4.4779   15.3962 H   0  0  0  0  0  0
   -8.6428   -4.3467   15.7212 H   0  0  0  0  0  0
   -3.9982   -5.7394   13.2294 H   0  0  0  0  0  0
   -4.3548   -4.0983   12.6732 H   0  0  0  0  0  0
   -5.9177   -6.6581   12.1324 H   0  0  0  0  0  0
   -5.1386   -5.5774   10.9792 H   0  0  0  0  0  0
   -8.0321   -6.0675   13.2390 H   0  0  0  0  0  0
   -6.7189   -3.7442   11.7147 H   0  0  0  0  0  0
  -10.8848   -3.9746   11.7617 H   0  0  0  0  0  0
  -10.3126   -5.6319   11.8484 H   0  0  0  0  0  0
   -9.0260   -3.1843   13.1538 H   0  0  0  0  0  0
   -9.8035   -4.5552   13.9197 H   0  0  0  0  0  0
   -8.1592   -6.2768   10.8341 H   0  0  0  0  0  0
   -6.6560   -6.1013    9.0672 H   0  0  0  0  0  0
   -6.6377   -4.3343    9.0859 H   0  0  0  0  0  0
   -8.4339   -4.2465    7.6661 H   0  0  0  0  0  0
  -10.1535   -5.9966    9.4696 H   0  0  0  0  0  0
   -8.2994   -2.6486    9.4243 H   0  0  0  0  0  0
   -8.3613   -2.4053   11.1617 H   0  0  0  0  0  0
   -9.8398   -2.3257   10.2163 H   0  0  0  0  0  0
  -11.0266   -4.6656    7.8414 H   0  0  0  0  0  0
   -3.7331   -3.9404   17.5660 H   0  0  0  0  0  0
   -9.6981   -6.4567    7.0631 H   0  0  0  0  0  0
   -8.4052   -7.2862    7.9113 H   0  0  0  0  0  0
   -8.1065   -5.3920    5.5145 H   0  0  0  0  0  0
   -8.1046   -7.1480    5.4498 H   0  0  0  0  0  0
   -6.0275   -7.1626    6.9049 H   0  0  0  0  0  0
   -5.9893   -5.4035    6.8080 H   0  0  0  0  0  0
   -5.8093   -5.5008    4.3319 H   0  0  0  0  0  0
   -5.8702   -7.2688    4.3796 H   0  0  0  0  0  0
   -3.6739   -5.4735    5.1926 H   0  0  0  0  0  0
   -3.1555   -9.5846    5.3951 H   0  0  0  0  0  0
   -4.2947   -9.0092    4.1592 H   0  0  0  0  0  0
   -4.7279   -8.9376    5.8946 H   0  0  0  0  0  0
  1  2  2  0  0  0
  1  4  1  0  0  0
  1 29  1  0  0  0
  2  3  1  0  0  0
  2 20  1  0  0  0
  3  6  2  0  0  0
  3 30  1  0  0  0
  4  5  2  0  0  0
  4 31  1  0  0  0
  5  6  1  0  0  0
  5  9  1  0  0  0
  6  7  1  0  0  0
  7  8  1  0  0  0
  7 32  1  0  0  0
  7 33  1  0  0  0
  8 10  1  0  0  0
  8 34  1  0  0  0
  8 35  1  0  0  0
  9 10  1  0  0  0
  9 12  1  0  0  0
  9 36  1  0  0  0
 10 14  1  0  0  0
 10 37  1  0  0  0
 11 12  1  0  0  0
 11 13  1  0  0  0
 11 38  1  0  0  0
 11 39  1  0  0  0
 12 40  1  0  0  0
 12 41  1  0  0  0
 13 14  1  0  0  0
 13 17  1  0  0  0
 13 18  1  0  0  0
 14 15  1  0  0  0
 14 42  1  0  0  0
 15 16  1  0  0  0
 15 43  1  0  0  0
 15 44  1  0  0  0
 16 17  1  0  0  0
 16 21  1  0  0  0
 16 45  1  0  0  0
 17 19  1  0  0  0
 17 46  1  0  0  0
 18 47  1  0  0  0
 18 48  1  0  0  0
 18 49  1  0  0  0
 19 50  1  0  0  0
 20 51  1  0  0  0
 21 22  1  0  0  0
 21 52  1  0  0  0
 21 53  1  0  0  0
 22 23  1  0  0  0
 22 54  1  0  0  0
 22 55  1  0  0  0
 23 24  1  0  0  0
 23 56  1  0  0  0
 23 57  1  0  0  0
 24 25  1  0  0  0
 24 58  1  0  0  0
 24 59  1  0  0  0
 25 26  1  0  0  0
 25 60  1  0  0  0
 26 27  2  0  0  0
 26 28  1  0  0  0
 28 61  1  0  0  0
 28 62  1  0  0  0
 28 63  1  0  0  0
M  END
>  <Name>
lit-21

>  <Family>
A.1

>  <RBA>
0.800000

>  <RBA_avg>
0.790000

>  <Method>
RUC

>  <set>
1

$$$$
lit-22
  Cerius2 12180216403D 1   1.00000                          
 Structure written by MMmdl.
 69 74  0  0  0  0  0  0  0  0999 V2000
   -6.7900   -4.0960   16.7416 C   0  0  0  0  0  0
   -5.4077   -4.1321   16.6560 C   0  0  0  0  0  0
   -4.7835   -4.4442   15.4552 C   0  0  0  0  0  0
   -7.5614   -4.3670   15.6087 C   0  0  0  0  0  0
   -6.9615   -4.6643   14.3714 C   0  0  0  0  0  0
   -5.5510   -4.7274   14.3099 C   0  0  0  0  0  0
   -4.8119   -5.0393   13.0289 C   0  0  0  0  0  0
   -5.6949   -5.6142   11.9253 C   0  0  0  0  0  0
   -7.8070   -5.0041   13.1438 C   0  0  0  0  0  0
   -6.9931   -4.8101   11.8283 C   0  0  0  0  0  0
   -9.9772   -4.6000   11.7908 C   0  0  0  0  0  0
   -9.1791   -4.2818   13.0701 C   0  0  0  0  0  0
   -9.1394   -4.3815   10.5241 C   0  0  0  0  0  0
   -7.8627   -5.2350   10.6441 C   0  0  0  0  0  0
   -7.2704   -5.2036    9.2359 C   0  0  0  0  0  0
   -8.5046   -5.1424    8.2948 C   0  0  0  0  0  0
   -9.7306   -5.0011    9.2404 C   0  0  0  0  0  0
   -8.8894   -2.8635   10.3332 C   0  0  0  0  0  0
  -10.7527   -4.1950    8.6692 O   0  0  0  0  0  0
   -4.6869   -3.8576   17.7801 O   0  0  0  0  0  0
   -8.6416   -6.3784    7.3877 C   0  0  0  0  0  0
   -7.6102   -6.5823    6.3058 C   0  0  0  0  0  0
   -6.6062   -5.7588    5.9591 C   0  0  0  0  0  0
   -5.6163   -6.0427    4.8673 C   0  0  0  0  0  0
   -5.8177   -5.0570    3.8272 N   0  0  0  0  0  0
   -5.0437   -4.9450    2.6921 C   0  0  0  0  0  0
   -5.2985   -3.9707    1.6792 C   0  0  0  0  0  0
   -4.4828   -3.8346    0.4710 C   0  0  0  0  0  0
   -3.3837   -4.6825    0.2593 C   0  0  0  0  0  0
   -3.1231   -5.6541    1.2386 C   0  0  0  0  0  0
   -3.9259   -5.7683    2.4054 C   0  0  0  0  0  0
   -6.2723   -3.0464    1.6314 N   0  0  0  0  0  0
   -6.0905   -2.3618    0.4456 O   0  0  0  0  0  0
   -5.0080   -2.8416   -0.2665 N   0  0  0  0  0  0
   -2.5792   -4.5581   -0.9265 N   0  3  0  0  0  0
   -2.3198   -3.4186   -1.3536 O   0  0  0  0  0  0
   -2.1612   -5.6074   -1.4519 O   0  5  0  0  0  0
   -7.2776   -3.8619   17.6853 H   0  0  0  0  0  0
   -3.6969   -4.4732   15.3934 H   0  0  0  0  0  0
   -8.6433   -4.3457   15.7206 H   0  0  0  0  0  0
   -3.9996   -5.7475   13.2326 H   0  0  0  0  0  0
   -4.3544   -4.1078   12.6711 H   0  0  0  0  0  0
   -5.9194   -6.6676   12.1370 H   0  0  0  0  0  0
   -5.1398   -5.5900   10.9810 H   0  0  0  0  0  0
   -8.0297   -6.0780   13.2413 H   0  0  0  0  0  0
   -6.7175   -3.7534   11.7184 H   0  0  0  0  0  0
  -10.8874   -3.9889   11.7635 H   0  0  0  0  0  0
  -10.3104   -5.6448   11.8431 H   0  0  0  0  0  0
   -9.0334   -3.1986   13.1603 H   0  0  0  0  0  0
   -9.8063   -4.5755   13.9199 H   0  0  0  0  0  0
   -8.1574   -6.2826   10.8243 H   0  0  0  0  0  0
   -6.6396   -6.0796    9.0537 H   0  0  0  0  0  0
   -6.6465   -4.3137    9.0929 H   0  0  0  0  0  0
   -8.4360   -4.2506    7.6579 H   0  0  0  0  0  0
  -10.1664   -5.9842    9.4600 H   0  0  0  0  0  0
   -8.3064   -2.6436    9.4337 H   0  0  0  0  0  0
   -8.3542   -2.4137   11.1737 H   0  0  0  0  0  0
   -9.8399   -2.3251   10.2408 H   0  0  0  0  0  0
  -11.0221   -4.6338    7.8355 H   0  0  0  0  0  0
   -3.7329   -3.9199   17.5594 H   0  0  0  0  0  0
   -9.6204   -6.3444    6.8924 H   0  0  0  0  0  0
   -8.6452   -7.2800    8.0141 H   0  0  0  0  0  0
   -7.7288   -7.5143    5.7502 H   0  0  0  0  0  0
   -6.4515   -4.8204    6.4852 H   0  0  0  0  0  0
   -5.7502   -7.0534    4.4652 H   0  0  0  0  0  0
   -4.6059   -5.9682    5.2850 H   0  0  0  0  0  0
   -6.6129   -4.4247    3.9174 H   0  0  0  0  0  0
   -2.2841   -6.3390    1.1170 H   0  0  0  0  0  0
   -3.6433   -6.5503    3.1123 H   0  0  0  0  0  0
  1  2  2  0  0  0
  1  4  1  0  0  0
  1 38  1  0  0  0
  2  3  1  0  0  0
  2 20  1  0  0  0
  3  6  2  0  0  0
  3 39  1  0  0  0
  4  5  2  0  0  0
  4 40  1  0  0  0
  5  6  1  0  0  0
  5  9  1  0  0  0
  6  7  1  0  0  0
  7  8  1  0  0  0
  7 41  1  0  0  0
  7 42  1  0  0  0
  8 10  1  0  0  0
  8 43  1  0  0  0
  8 44  1  0  0  0
  9 10  1  0  0  0
  9 12  1  0  0  0
  9 45  1  0  0  0
 10 14  1  0  0  0
 10 46  1  0  0  0
 11 12  1  0  0  0
 11 13  1  0  0  0
 11 47  1  0  0  0
 11 48  1  0  0  0
 12 49  1  0  0  0
 12 50  1  0  0  0
 13 14  1  0  0  0
 13 17  1  0  0  0
 13 18  1  0  0  0
 14 15  1  0  0  0
 14 51  1  0  0  0
 15 16  1  0  0  0
 15 52  1  0  0  0
 15 53  1  0  0  0
 16 17  1  0  0  0
 16 21  1  0  0  0
 16 54  1  0  0  0
 17 19  1  0  0  0
 17 55  1  0  0  0
 18 56  1  0  0  0
 18 57  1  0  0  0
 18 58  1  0  0  0
 19 59  1  0  0  0
 20 60  1  0  0  0
 21 22  1  0  0  0
 21 61  1  0  0  0
 21 62  1  0  0  0
 22 23  2  0  0  0
 22 63  1  0  0  0
 23 24  1  0  0  0
 23 64  1  0  0  0
 24 25  1  0  0  0
 24 65  1  0  0  0
 24 66  1  0  0  0
 25 26  1  0  0  0
 25 67  1  0  0  0
 26 27  1  0  0  0
 26 31  2  0  0  0
 27 28  1  0  0  0
 27 32  2  0  0  0
 28 29  1  0  0  0
 28 34  2  0  0  0
 29 30  2  0  0  0
 29 35  1  0  0  0
 30 31  1  0  0  0
 30 68  1  0  0  0
 31 69  1  0  0  0
 32 33  1  0  0  0
 33 34  1  0  0  0
 35 36  2  0  0  0
 35 37  1  0  0  0
M  CHG  2  35   1  37  -1
M  END
>  <Name>
lit-22

>  <Family>
A.1

>  <RBA>
0.300000

>  <RBA_avg>
0.300000

>  <Method>
RUC

>  <set>
0

$$$$
lit-23
  Cerius2 12180216403D 1   1.00000                          
 Structure written by MMmdl.
 71 76  0  0  0  0  0  0  0  0999 V2000
   -6.7898   -4.1015   16.7443 C   0  0  0  0  0  0
   -5.4075   -4.1408   16.6598 C   0  0  0  0  0  0
   -4.7831   -4.4486   15.4579 C   0  0  0  0  0  0
   -7.5607   -4.3655   15.6093 C   0  0  0  0  0  0
   -6.9605   -4.6588   14.3713 C   0  0  0  0  0  0
   -5.5503   -4.7247   14.3107 C   0  0  0  0  0  0
   -4.8113   -5.0329   13.0286 C   0  0  0  0  0  0
   -5.6942   -5.6050   11.9236 C   0  0  0  0  0  0
   -7.8060   -4.9939   13.1427 C   0  0  0  0  0  0
   -6.9923   -4.8012   11.8268 C   0  0  0  0  0  0
   -9.9764   -4.5901   11.7910 C   0  0  0  0  0  0
   -9.1762   -4.2681   13.0681 C   0  0  0  0  0  0
   -9.1396   -4.3788   10.5221 C   0  0  0  0  0  0
   -7.8633   -5.2305   10.6453 C   0  0  0  0  0  0
   -7.2734   -5.2130    9.2355 C   0  0  0  0  0  0
   -8.5048   -5.1436    8.2927 C   0  0  0  0  0  0
   -9.7285   -5.0095    9.2440 C   0  0  0  0  0  0
   -8.8907   -2.8620   10.3216 C   0  0  0  0  0  0
  -10.7594   -4.2171    8.6705 O   0  0  0  0  0  0
   -4.6870   -3.8744   17.7860 O   0  0  0  0  0  0
   -8.6467   -6.3633    7.3658 C   0  0  0  0  0  0
   -7.8236   -6.2877    6.0729 C   0  0  0  0  0  0
   -6.3091   -6.3099    6.2743 C   0  0  0  0  0  0
   -5.5722   -6.3863    4.9346 C   0  0  0  0  0  0
   -4.1367   -6.4030    5.1600 N   0  0  0  0  0  0
   -3.1886   -6.4667    4.1606 C   0  0  0  0  0  0
   -1.7855   -6.4836    4.4276 C   0  0  0  0  0  0
   -0.7677   -6.5527    3.3773 C   0  0  0  0  0  0
   -1.1464   -6.6090    2.0263 C   0  0  0  0  0  0
   -2.5211   -6.5829    1.7427 C   0  0  0  0  0  0
   -3.4931   -6.5175    2.7770 C   0  0  0  0  0  0
   -1.1579   -6.4397    5.6146 N   0  0  0  0  0  0
    0.1941   -6.4704    5.3327 O   0  0  0  0  0  0
    0.4363   -6.5321    3.9738 N   0  0  0  0  0  0
   -0.1531   -6.6719    0.9875 N   0  3  0  0  0  0
    0.8606   -7.3689    1.1737 O   0  0  0  0  0  0
   -0.3761   -6.0390   -0.0618 O   0  5  0  0  0  0
   -7.2779   -3.8711   17.6885 H   0  0  0  0  0  0
   -3.6964   -4.4800   15.3968 H   0  0  0  0  0  0
   -8.6427   -4.3430   15.7205 H   0  0  0  0  0  0
   -3.9992   -5.7420   13.2303 H   0  0  0  0  0  0
   -4.3538   -4.1006   12.6734 H   0  0  0  0  0  0
   -5.9191   -6.6589   12.1329 H   0  0  0  0  0  0
   -5.1389   -5.5793   10.9796 H   0  0  0  0  0  0
   -8.0315   -6.0674   13.2393 H   0  0  0  0  0  0
   -6.7181   -3.7442   11.7146 H   0  0  0  0  0  0
  -10.8856   -3.9775   11.7618 H   0  0  0  0  0  0
  -10.3112   -5.6342   11.8481 H   0  0  0  0  0  0
   -9.0271   -3.1850   13.1535 H   0  0  0  0  0  0
   -9.8035   -4.5564   13.9196 H   0  0  0  0  0  0
   -8.1581   -6.2768   10.8330 H   0  0  0  0  0  0
   -6.6551   -6.0995    9.0658 H   0  0  0  0  0  0
   -6.6378   -4.3325    9.0859 H   0  0  0  0  0  0
   -8.4343   -4.2446    7.6664 H   0  0  0  0  0  0
  -10.1524   -5.9971    9.4688 H   0  0  0  0  0  0
   -8.3006   -2.6475    9.4256 H   0  0  0  0  0  0
   -8.3632   -2.4053   11.1632 H   0  0  0  0  0  0
   -9.8415   -2.3265   10.2173 H   0  0  0  0  0  0
  -11.0264   -4.6654    7.8413 H   0  0  0  0  0  0
   -3.7331   -3.9420   17.5666 H   0  0  0  0  0  0
   -9.6978   -6.4551    7.0630 H   0  0  0  0  0  0
   -8.4036   -7.2846    7.9093 H   0  0  0  0  0  0
   -8.1057   -5.3859    5.5156 H   0  0  0  0  0  0
   -8.1095   -7.1416    5.4455 H   0  0  0  0  0  0
   -6.0288   -7.1692    6.8955 H   0  0  0  0  0  0
   -5.9868   -5.4068    6.8046 H   0  0  0  0  0  0
   -5.8433   -5.5197    4.3202 H   0  0  0  0  0  0
   -5.8753   -7.2955    4.4021 H   0  0  0  0  0  0
   -3.7998   -6.3698    6.1235 H   0  0  0  0  0  0
   -2.8653   -6.6200    0.7092 H   0  0  0  0  0  0
   -4.5376   -6.5065    2.4603 H   0  0  0  0  0  0
  1  2  2  0  0  0
  1  4  1  0  0  0
  1 38  1  0  0  0
  2  3  1  0  0  0
  2 20  1  0  0  0
  3  6  2  0  0  0
  3 39  1  0  0  0
  4  5  2  0  0  0
  4 40  1  0  0  0
  5  6  1  0  0  0
  5  9  1  0  0  0
  6  7  1  0  0  0
  7  8  1  0  0  0
  7 41  1  0  0  0
  7 42  1  0  0  0
  8 10  1  0  0  0
  8 43  1  0  0  0
  8 44  1  0  0  0
  9 10  1  0  0  0
  9 12  1  0  0  0
  9 45  1  0  0  0
 10 14  1  0  0  0
 10 46  1  0  0  0
 11 12  1  0  0  0
 11 13  1  0  0  0
 11 47  1  0  0  0
 11 48  1  0  0  0
 12 49  1  0  0  0
 12 50  1  0  0  0
 13 14  1  0  0  0
 13 17  1  0  0  0
 13 18  1  0  0  0
 14 15  1  0  0  0
 14 51  1  0  0  0
 15 16  1  0  0  0
 15 52  1  0  0  0
 15 53  1  0  0  0
 16 17  1  0  0  0
 16 21  1  0  0  0
 16 54  1  0  0  0
 17 19  1  0  0  0
 17 55  1  0  0  0
 18 56  1  0  0  0
 18 57  1  0  0  0
 18 58  1  0  0  0
 19 59  1  0  0  0
 20 60  1  0  0  0
 21 22  1  0  0  0
 21 61  1  0  0  0
 21 62  1  0  0  0
 22 23  1  0  0  0
 22 63  1  0  0  0
 22 64  1  0  0  0
 23 24  1  0  0  0
 23 65  1  0  0  0
 23 66  1  0  0  0
 24 25  1  0  0  0
 24 67  1  0  0  0
 24 68  1  0  0  0
 25 26  1  0  0  0
 25 69  1  0  0  0
 26 27  1  0  0  0
 26 31  2  0  0  0
 27 28  1  0  0  0
 27 32  2  0  0  0
 28 29  1  0  0  0
 28 34  2  0  0  0
 29 30  2  0  0  0
 29 35  1  0  0  0
 30 31  1  0  0  0
 30 70  1  0  0  0
 31 71  1  0  0  0
 32 33  1  0  0  0
 33 34  1  0  0  0
 35 36  2  0  0  0
 35 37  1  0  0  0
M  CHG  2  35   1  37  -1
M  END
>  <Name>
lit-23

>  <Family>
A.1

>  <RBA>
0.200000

>  <RBA_avg>
0.200000

>  <Method>
RUC

>  <set>
2

$$$$
lit-24
  Cerius2 12180216403D 1   1.00000                          
 Structure written by MMmdl.
 72 76  0  0  0  0  0  0  0  0999 V2000
   -6.7949   -4.0704   16.7243 C   0  0  0  0  0  0
   -5.4145   -4.1086   16.6412 C   0  0  0  0  0  0
   -4.7867   -4.4433   15.4468 C   0  0  0  0  0  0
   -7.5635   -4.3577   15.5955 C   0  0  0  0  0  0
   -6.9618   -4.6767   14.3648 C   0  0  0  0  0  0
   -5.5514   -4.7427   14.3050 C   0  0  0  0  0  0
   -4.8121   -5.0717   13.0298 C   0  0  0  0  0  0
   -5.6985   -5.6384   11.9243 C   0  0  0  0  0  0
   -7.8079   -5.0295   13.1440 C   0  0  0  0  0  0
   -6.9946   -4.8301   11.8314 C   0  0  0  0  0  0
   -9.9815   -4.6264   11.7908 C   0  0  0  0  0  0
   -9.1885   -4.3217   13.0757 C   0  0  0  0  0  0
   -9.1367   -4.3870   10.5341 C   0  0  0  0  0  0
   -7.8648   -5.2454   10.6468 C   0  0  0  0  0  0
   -7.2678   -5.2057    9.2425 C   0  0  0  0  0  0
   -8.4901   -5.0788    8.2945 C   0  0  0  0  0  0
   -9.7190   -4.9815    9.2373 C   0  0  0  0  0  0
   -8.8842   -2.8656   10.3707 C   0  0  0  0  0  0
  -10.7412   -4.1691    8.6917 O   0  0  0  0  0  0
   -4.6954   -3.8099   17.7607 O   0  0  0  0  0  0
   -8.6323   -6.2400    7.2962 C   0  0  0  0  0  0
   -7.5850   -6.3732    6.2176 C   0  0  0  0  0  0
   -6.4750   -5.6322    6.0676 C   0  0  0  0  0  0
   -5.4635   -5.8009    4.9765 C   0  0  0  0  0  0
   -5.3016   -4.5024    4.3568 N   0  0  0  0  0  0
   -4.1640   -3.9725    3.7651 C   0  0  0  0  0  0
   -4.2117   -2.5020    3.3431 C   0  0  0  0  0  0
   -3.1916   -2.0723    2.2759 C   0  0  0  0  0  0
   -1.9169   -2.8948    2.2719 C   0  0  0  0  0  0
   -1.8815   -4.0888    2.8851 C   0  0  0  0  0  0
   -3.0467   -4.6771    3.5018 C   0  0  0  0  0  0
   -0.7836   -2.3633    1.7055 N   0  0  0  0  0  0
   -0.9272   -2.1271    0.4885 N   0  3  0  0  0  0
   -1.0721   -1.9099   -0.6215 N   0  5  0  0  0  0
   -4.0015   -1.6588    4.5906 N   0  3  0  0  0  0
   -5.0034   -1.0814    5.0411 O   0  0  0  0  0  0
   -2.8611   -1.5770    5.0695 O   0  5  0  0  0  0
   -7.2777   -3.8125   17.6614 H   0  0  0  0  0  0
   -3.7024   -4.4833   15.3947 H   0  0  0  0  0  0
   -8.6436   -4.3279   15.7036 H   0  0  0  0  0  0
   -4.0103   -5.7897   13.2396 H   0  0  0  0  0  0
   -4.3405   -4.1483   12.6687 H   0  0  0  0  0  0
   -5.9269   -6.6915   12.1321 H   0  0  0  0  0  0
   -5.1441   -5.6132   10.9797 H   0  0  0  0  0  0
   -8.0200   -6.1057   13.2434 H   0  0  0  0  0  0
   -6.7156   -3.7736   11.7268 H   0  0  0  0  0  0
  -10.8930   -4.0172   11.7672 H   0  0  0  0  0  0
  -10.3116   -5.6729   11.8275 H   0  0  0  0  0  0
   -9.0550   -3.2387   13.1829 H   0  0  0  0  0  0
   -9.8138   -4.6348   13.9198 H   0  0  0  0  0  0
   -8.1617   -6.2936   10.8189 H   0  0  0  0  0  0
   -6.6707   -6.1024    9.0472 H   0  0  0  0  0  0
   -6.6104   -4.3365    9.1235 H   0  0  0  0  0  0
   -8.4056   -4.1481    7.7171 H   0  0  0  0  0  0
  -10.1428   -5.9760    9.4283 H   0  0  0  0  0  0
   -8.2848   -2.6310    9.4862 H   0  0  0  0  0  0
   -8.3646   -2.4278   11.2269 H   0  0  0  0  0  0
   -9.8336   -2.3271   10.2705 H   0  0  0  0  0  0
  -11.0385   -4.5764    7.8612 H   0  0  0  0  0  0
   -3.7625   -3.7351   17.4979 H   0  0  0  0  0  0
   -9.5998   -6.1417    6.7874 H   0  0  0  0  0  0
   -8.6689   -7.1887    7.8467 H   0  0  0  0  0  0
   -7.7817   -7.1657    5.4954 H   0  0  0  0  0  0
   -6.2416   -4.8404    6.7742 H   0  0  0  0  0  0
   -5.7774   -6.5370    4.2295 H   0  0  0  0  0  0
   -4.5287   -6.1434    5.4329 H   0  0  0  0  0  0
   -6.1256   -3.9035    4.3911 H   0  0  0  0  0  0
   -5.2161   -2.2474    2.9793 H   0  0  0  0  0  0
   -2.9522   -1.0055    2.3733 H   0  0  0  0  0  0
   -3.6587   -2.1957    1.2888 H   0  0  0  0  0  0
   -0.9594   -4.6625    2.9237 H   0  0  0  0  0  0
   -2.9640   -5.7273    3.7648 H   0  0  0  0  0  0
  1  2  2  0  0  0
  1  4  1  0  0  0
  1 38  1  0  0  0
  2  3  1  0  0  0
  2 20  1  0  0  0
  3  6  2  0  0  0
  3 39  1  0  0  0
  4  5  2  0  0  0
  4 40  1  0  0  0
  5  6  1  0  0  0
  5  9  1  0  0  0
  6  7  1  0  0  0
  7  8  1  0  0  0
  7 41  1  0  0  0
  7 42  1  0  0  0
  8 10  1  0  0  0
  8 43  1  0  0  0
  8 44  1  0  0  0
  9 10  1  0  0  0
  9 12  1  0  0  0
  9 45  1  0  0  0
 10 14  1  0  0  0
 10 46  1  0  0  0
 11 12  1  0  0  0
 11 13  1  0  0  0
 11 47  1  0  0  0
 11 48  1  0  0  0
 12 49  1  0  0  0
 12 50  1  0  0  0
 13 14  1  0  0  0
 13 17  1  0  0  0
 13 18  1  0  0  0
 14 15  1  0  0  0
 14 51  1  0  0  0
 15 16  1  0  0  0
 15 52  1  0  0  0
 15 53  1  0  0  0
 16 17  1  0  0  0
 16 21  1  0  0  0
 16 54  1  0  0  0
 17 19  1  0  0  0
 17 55  1  0  0  0
 18 56  1  0  0  0
 18 57  1  0  0  0
 18 58  1  0  0  0
 19 59  1  0  0  0
 20 60  1  0  0  0
 21 22  1  0  0  0
 21 61  1  0  0  0
 21 62  1  0  0  0
 22 23  2  0  0  0
 22 63  1  0  0  0
 23 24  1  0  0  0
 23 64  1  0  0  0
 24 25  1  0  0  0
 24 65  1  0  0  0
 24 66  1  0  0  0
 25 26  1  0  0  0
 25 67  1  0  0  0
 26 27  1  0  0  0
 26 31  2  0  0  0
 27 28  1  0  0  0
 27 35  1  0  0  0
 27 68  1  0  0  0
 28 29  1  0  0  0
 28 69  1  0  0  0
 28 70  1  0  0  0
 29 30  2  0  0  0
 29 32  1  0  0  0
 30 31  1  0  0  0
 30 71  1  0  0  0
 31 72  1  0  0  0
 32 33  2  0  0  0
 33 34  2  0  0  0
 35 36  2  0  0  0
 35 37  1  0  0  0
M  CHG  4  33   1  34  -1  35   1  37  -1
M  END
>  <Name>
lit-24

>  <Family>
A.1

>  <RBA>
0.200000

>  <RBA_avg>
0.200000

>  <Method>
RUC

>  <set>
2

$$$$
lit-25
  Cerius2 12180216403D 1   1.00000                          
 Structure written by MMmdl.
 67 72  0  0  0  0  0  0  0  0999 V2000
   -6.7898   -4.1090   16.7462 C   0  0  0  0  0  0
   -5.4075   -4.1442   16.6612 C   0  0  0  0  0  0
   -4.7827   -4.4464   15.4581 C   0  0  0  0  0  0
   -7.5604   -4.3712   15.6107 C   0  0  0  0  0  0
   -6.9600   -4.6585   14.3714 C   0  0  0  0  0  0
   -5.5495   -4.7212   14.3103 C   0  0  0  0  0  0
   -4.8102   -5.0251   13.0276 C   0  0  0  0  0  0
   -5.6924   -5.5998   11.9236 C   0  0  0  0  0  0
   -7.8055   -4.9911   13.1424 C   0  0  0  0  0  0
   -6.9921   -4.7983   11.8267 C   0  0  0  0  0  0
   -9.9757   -4.5869   11.7918 C   0  0  0  0  0  0
   -9.1735   -4.2615   13.0670 C   0  0  0  0  0  0
   -9.1409   -4.3795   10.5207 C   0  0  0  0  0  0
   -7.8622   -5.2299   10.6456 C   0  0  0  0  0  0
   -7.2722   -5.2059    9.2372 C   0  0  0  0  0  0
   -8.5114   -5.1707    8.3010 C   0  0  0  0  0  0
   -9.7352   -5.0114    9.2439 C   0  0  0  0  0  0
   -8.8942   -2.8629   10.3155 C   0  0  0  0  0  0
  -10.7527   -4.2066    8.6632 O   0  0  0  0  0  0
   -4.6870   -3.8796   17.7879 O   0  0  0  0  0  0
   -8.6409   -6.4260    7.4278 C   0  0  0  0  0  0
   -7.5676   -6.5057    6.4218 C   0  0  0  0  0  0
   -6.6851   -6.5738    5.6085 C   0  0  0  0  0  0
   -5.5974   -6.6562    4.6208 C   0  0  0  0  0  0
   -4.8445   -7.8768    4.8342 N   0  0  0  0  0  0
   -3.7415   -8.2613    4.1042 C   0  0  0  0  0  0
   -3.0358   -9.4770    4.3578 C   0  0  0  0  0  0
   -1.8616   -9.9006    3.5926 C   0  0  0  0  0  0
   -1.3726   -9.1025    2.5460 C   0  0  0  0  0  0
   -2.0473   -7.8985    2.2873 C   0  0  0  0  0  0
   -3.1865   -7.5064    3.0406 C   0  0  0  0  0  0
   -3.2869  -10.4125    5.2887 N   0  0  0  0  0  0
   -2.3146  -11.3806    5.1287 O   0  0  0  0  0  0
   -1.4417  -11.0703    4.1039 N   0  0  0  0  0  0
   -0.2159   -9.5073    1.7922 N   0  3  0  0  0  0
   -0.0794  -10.7116    1.5107 O   0  0  0  0  0  0
    0.5806   -8.6180    1.4371 O   0  5  0  0  0  0
   -7.2782   -3.8829   17.6914 H   0  0  0  0  0  0
   -3.6960   -4.4747   15.3963 H   0  0  0  0  0  0
   -8.6424   -4.3526   15.7225 H   0  0  0  0  0  0
   -3.9952   -5.7311   13.2277 H   0  0  0  0  0  0
   -4.3567   -4.0907   12.6729 H   0  0  0  0  0  0
   -5.9151   -6.6540   12.1333 H   0  0  0  0  0  0
   -5.1372   -5.5730   10.9794 H   0  0  0  0  0  0
   -8.0331   -6.0642   13.2379 H   0  0  0  0  0  0
   -6.7193   -3.7411   11.7140 H   0  0  0  0  0  0
  -10.8848   -3.9742   11.7623 H   0  0  0  0  0  0
  -10.3104   -5.6307   11.8525 H   0  0  0  0  0  0
   -9.0209   -3.1786   13.1475 H   0  0  0  0  0  0
   -9.8011   -4.5441   13.9201 H   0  0  0  0  0  0
   -8.1550   -6.2770   10.8319 H   0  0  0  0  0  0
   -6.6284   -6.0740    9.0618 H   0  0  0  0  0  0
   -6.6613   -4.3089    9.0822 H   0  0  0  0  0  0
   -8.4351   -4.2962    7.6402 H   0  0  0  0  0  0
  -10.1762   -5.9896    9.4761 H   0  0  0  0  0  0
   -8.3171   -2.6502    9.4104 H   0  0  0  0  0  0
   -8.3553   -2.4053   11.1491 H   0  0  0  0  0  0
   -9.8461   -2.3270   10.2234 H   0  0  0  0  0  0
  -11.0504   -4.6704    7.8531 H   0  0  0  0  0  0
   -3.7331   -3.9456   17.5682 H   0  0  0  0  0  0
   -9.6078   -6.4140    6.9105 H   0  0  0  0  0  0
   -8.6268   -7.3266    8.0533 H   0  0  0  0  0  0
   -4.9429   -5.7842    4.7305 H   0  0  0  0  0  0
   -6.0199   -6.6444    3.6098 H   0  0  0  0  0  0
   -5.1602   -8.4967    5.5794 H   0  0  0  0  0  0
   -1.7037   -7.2424    1.4876 H   0  0  0  0  0  0
   -3.6461   -6.5564    2.7627 H   0  0  0  0  0  0
  1  2  2  0  0  0
  1  4  1  0  0  0
  1 38  1  0  0  0
  2  3  1  0  0  0
  2 20  1  0  0  0
  3  6  2  0  0  0
  3 39  1  0  0  0
  4  5  2  0  0  0
  4 40  1  0  0  0
  5  6  1  0  0  0
  5  9  1  0  0  0
  6  7  1  0  0  0
  7  8  1  0  0  0
  7 41  1  0  0  0
  7 42  1  0  0  0
  8 10  1  0  0  0
  8 43  1  0  0  0
  8 44  1  0  0  0
  9 10  1  0  0  0
  9 12  1  0  0  0
  9 45  1  0  0  0
 10 14  1  0  0  0
 10 46  1  0  0  0
 11 12  1  0  0  0
 11 13  1  0  0  0
 11 47  1  0  0  0
 11 48  1  0  0  0
 12 49  1  0  0  0
 12 50  1  0  0  0
 13 14  1  0  0  0
 13 17  1  0  0  0
 13 18  1  0  0  0
 14 15  1  0  0  0
 14 51  1  0  0  0
 15 16  1  0  0  0
 15 52  1  0  0  0
 15 53  1  0  0  0
 16 17  1  0  0  0
 16 21  1  0  0  0
 16 54  1  0  0  0
 17 19  1  0  0  0
 17 55  1  0  0  0
 18 56  1  0  0  0
 18 57  1  0  0  0
 18 58  1  0  0  0
 19 59  1  0  0  0
 20 60  1  0  0  0
 21 22  1  0  0  0
 21 61  1  0  0  0
 21 62  1  0  0  0
 22 23  3  0  0  0
 23 24  1  0  0  0
 24 25  1  0  0  0
 24 63  1  0  0  0
 24 64  1  0  0  0
 25 26  1  0  0  0
 25 65  1  0  0  0
 26 27  1  0  0  0
 26 31  2  0  0  0
 27 28  1  0  0  0
 27 32  2  0  0  0
 28 29  1  0  0  0
 28 34  2  0  0  0
 29 30  2  0  0  0
 29 35  1  0  0  0
 30 31  1  0  0  0
 30 66  1  0  0  0
 31 67  1  0  0  0
 32 33  1  0  0  0
 33 34  1  0  0  0
 35 36  2  0  0  0
 35 37  1  0  0  0
M  CHG  2  35   1  37  -1
M  END
>  <Name>
lit-25

>  <Family>
A.1

>  <RBA>
0.100000

>  <RBA_avg>
0.100000

>  <Method>
RUC

>  <set>
0

$$$$
lit-26
  Cerius2 12180216403D 1   1.00000                          
 Structure written by MMmdl.
 46 49  0  0  0  0  0  0  0  0999 V2000
   -6.7802   -4.0952   16.7468 C   0  0  0  0  0  0
   -5.3982   -4.1273   16.6562 C   0  0  0  0  0  0
   -4.7777   -4.4366   15.4527 C   0  0  0  0  0  0
   -7.5548   -4.3673   15.6162 C   0  0  0  0  0  0
   -6.9589   -4.6616   14.3762 C   0  0  0  0  0  0
   -5.5486   -4.7210   14.3099 C   0  0  0  0  0  0
   -4.8136   -5.0314   13.0264 C   0  0  0  0  0  0
   -5.6991   -5.6131   11.9286 C   0  0  0  0  0  0
   -7.8086   -5.0037   13.1522 C   0  0  0  0  0  0
   -7.0013   -4.8146   11.8326 C   0  0  0  0  0  0
   -9.9881   -4.6223   11.8141 C   0  0  0  0  0  0
   -9.1782   -4.2781   13.0799 C   0  0  0  0  0  0
   -9.1679   -4.4213   10.5266 C   0  0  0  0  0  0
   -7.8702   -5.2525   10.6504 C   0  0  0  0  0  0
   -7.2757   -5.1987    9.2450 C   0  0  0  0  0  0
   -8.4962   -5.1436    8.3026 C   0  0  0  0  0  0
   -9.7527   -5.0053    9.2035 C   0  0  0  0  0  0
   -8.9157   -2.8941   10.3479 C   0  0  0  0  0  0
  -10.6956   -4.1196    8.6060 O   0  0  0  0  0  0
   -4.6739   -3.8528   17.7780 O   0  0  0  0  0  0
  -10.4134   -6.3196    9.3665 C   0  0  0  0  0  0
  -10.9524   -7.3873    9.4846 C   0  0  0  0  0  0
   -7.2654   -3.8640   17.6924 H   0  0  0  0  0  0
   -3.6911   -4.4628   15.3869 H   0  0  0  0  0  0
   -8.6363   -4.3505   15.7328 H   0  0  0  0  0  0
   -3.9972   -5.7356   13.2277 H   0  0  0  0  0  0
   -4.3622   -4.0986   12.6646 H   0  0  0  0  0  0
   -5.9190   -6.6666   12.1449 H   0  0  0  0  0  0
   -5.1477   -5.5907   10.9822 H   0  0  0  0  0  0
   -8.0324   -6.0771   13.2538 H   0  0  0  0  0  0
   -6.7291   -3.7578   11.7158 H   0  0  0  0  0  0
  -10.9026   -4.0176   11.7864 H   0  0  0  0  0  0
  -10.3113   -5.6656   11.9093 H   0  0  0  0  0  0
   -9.0310   -3.1941   13.1524 H   0  0  0  0  0  0
   -9.7990   -4.5564   13.9395 H   0  0  0  0  0  0
   -8.1368   -6.3057   10.8329 H   0  0  0  0  0  0
   -6.6544   -6.0754    9.0342 H   0  0  0  0  0  0
   -6.6497   -4.3100    9.1069 H   0  0  0  0  0  0
   -8.5340   -6.0412    7.6738 H   0  0  0  0  0  0
   -8.3974   -4.2907    7.6200 H   0  0  0  0  0  0
   -8.3506   -2.6651    9.4390 H   0  0  0  0  0  0
   -8.3632   -2.4513   11.1802 H   0  0  0  0  0  0
   -9.8670   -2.3531   10.2809 H   0  0  0  0  0  0
  -10.9252   -4.5147    7.7403 H   0  0  0  0  0  0
   -3.7207   -3.9162   17.5545 H   0  0  0  0  0  0
  -11.4317   -8.3351    9.5900 H   0  0  0  0  0  0
  1  2  2  0  0  0
  1  4  1  0  0  0
  1 23  1  0  0  0
  2  3  1  0  0  0
  2 20  1  0  0  0
  3  6  2  0  0  0
  3 24  1  0  0  0
  4  5  2  0  0  0
  4 25  1  0  0  0
  5  6  1  0  0  0
  5  9  1  0  0  0
  6  7  1  0  0  0
  7  8  1  0  0  0
  7 26  1  0  0  0
  7 27  1  0  0  0
  8 10  1  0  0  0
  8 28  1  0  0  0
  8 29  1  0  0  0
  9 10  1  0  0  0
  9 12  1  0  0  0
  9 30  1  0  0  0
 10 14  1  0  0  0
 10 31  1  0  0  0
 11 12  1  0  0  0
 11 13  1  0  0  0
 11 32  1  0  0  0
 11 33  1  0  0  0
 12 34  1  0  0  0
 12 35  1  0  0  0
 13 14  1  0  0  0
 13 17  1  0  0  0
 13 18  1  0  0  0
 14 15  1  0  0  0
 14 36  1  0  0  0
 15 16  1  0  0  0
 15 37  1  0  0  0
 15 38  1  0  0  0
 16 17  1  0  0  0
 16 39  1  0  0  0
 16 40  1  0  0  0
 17 19  1  0  0  0
 17 21  1  0  0  0
 18 41  1  0  0  0
 18 42  1  0  0  0
 18 43  1  0  0  0
 19 44  1  0  0  0
 20 45  1  0  0  0
 21 22  3  0  0  0
 22 46  1  0  0  0
M  END
>  <Name>
lit-26

>  <Family>
A.1

>  <RBA>
112,105,112,100

>  <RBA_avg>
107.000000

>  <Method>
MUC,RUC,LUC,MMEC

>  <set>
0

$$$$
lit-27
  Cerius2 12180216403D 1   1.00000                          
 Structure written by MMmdl.
 55 58  0  0  0  0  0  0  0  0999 V2000
   -6.7697   -4.3459   16.8167 C   0  0  0  0  0  0
   -5.3884   -4.3058   16.7173 C   0  0  0  0  0  0
   -4.7657   -4.4362   15.4823 C   0  0  0  0  0  0
   -7.5406   -4.4998   15.6624 C   0  0  0  0  0  0
   -6.9430   -4.5938   14.3913 C   0  0  0  0  0  0
   -5.5342   -4.6062   14.3160 C   0  0  0  0  0  0
   -4.8073   -4.7711   13.0039 C   0  0  0  0  0  0
   -5.6716   -5.4142   11.9247 C   0  0  0  0  0  0
   -7.8034   -4.7908   13.1427 C   0  0  0  0  0  0
   -6.9976   -4.6594   11.8113 C   0  0  0  0  0  0
   -9.9640   -4.3645   11.8016 C   0  0  0  0  0  0
   -9.1459   -3.9748   13.0740 C   0  0  0  0  0  0
   -9.1668   -4.3733   10.4756 C   0  0  0  0  0  0
   -7.8777   -5.2002   10.6795 C   0  0  0  0  0  0
   -7.3109   -5.3264    9.2694 C   0  0  0  0  0  0
   -8.5597   -5.4442    8.3672 C   0  0  0  0  0  0
   -9.7946   -5.1483    9.2676 C   0  0  0  0  0  0
   -8.9054   -2.9079   10.0209 C   0  0  0  0  0  0
  -10.7426   -4.3492    8.5646 O   0  0  0  0  0  0
   -4.6660   -4.1481   17.8628 O   0  0  0  0  0  0
  -10.4673   -6.4131    9.6407 C   0  0  0  0  0  0
  -11.0166   -7.4427    9.9279 C   0  0  0  0  0  0
   -8.9400   -2.4571   13.3073 C   0  0  0  0  0  0
  -10.2240   -1.6266   13.2295 C   0  0  0  0  0  0
   -9.9753   -0.1825   13.6405 C   0  0  0  0  0  0
   -7.2561   -4.2616   17.7858 H   0  0  0  0  0  0
   -3.6793   -4.4193   15.4117 H   0  0  0  0  0  0
   -8.6222   -4.5451   15.7753 H   0  0  0  0  0  0
   -3.9143   -5.3913   13.1481 H   0  0  0  0  0  0
   -4.4720   -3.7813   12.6696 H   0  0  0  0  0  0
   -5.8549   -6.4693   12.1654 H   0  0  0  0  0  0
   -5.1247   -5.3902   10.9755 H   0  0  0  0  0  0
   -8.1070   -5.8482   13.2171 H   0  0  0  0  0  0
   -6.7512   -3.6075   11.6290 H   0  0  0  0  0  0
  -10.8666   -3.7530   11.7028 H   0  0  0  0  0  0
  -10.3361   -5.3783   11.9980 H   0  0  0  0  0  0
   -9.7732   -4.3083   13.9131 H   0  0  0  0  0  0
   -8.1563   -6.2238   10.9776 H   0  0  0  0  0  0
   -6.6652   -6.2043    9.1645 H   0  0  0  0  0  0
   -6.7209   -4.4456    8.9928 H   0  0  0  0  0  0
   -8.6083   -6.4436    7.9181 H   0  0  0  0  0  0
   -8.4856   -4.7329    7.5358 H   0  0  0  0  0  0
   -8.5153   -2.8470    8.9995 H   0  0  0  0  0  0
   -8.1805   -2.3837   10.6395 H   0  0  0  0  0  0
   -9.8351   -2.3280   10.0324 H   0  0  0  0  0  0
  -10.9986   -4.8671    7.7745 H   0  0  0  0  0  0
   -3.7131   -4.1407   17.6293 H   0  0  0  0  0  0
  -11.5049   -8.3568   10.1834 H   0  0  0  0  0  0
   -8.1900   -2.0441   12.6303 H   0  0  0  0  0  0
   -8.5219   -2.3116   14.3105 H   0  0  0  0  0  0
  -10.9883   -2.0593   13.8850 H   0  0  0  0  0  0
  -10.6236   -1.6275   12.2113 H   0  0  0  0  0  0
  -10.9022    0.3956   13.5720 H   0  0  0  0  0  0
   -9.2323    0.2877   12.9885 H   0  0  0  0  0  0
   -9.6146   -0.1239   14.6723 H   0  0  0  0  0  0
  1  2  2  0  0  0
  1  4  1  0  0  0
  1 26  1  0  0  0
  2  3  1  0  0  0
  2 20  1  0  0  0
  3  6  2  0  0  0
  3 27  1  0  0  0
  4  5  2  0  0  0
  4 28  1  0  0  0
  5  6  1  0  0  0
  5  9  1  0  0  0
  6  7  1  0  0  0
  7  8  1  0  0  0
  7 29  1  0  0  0
  7 30  1  0  0  0
  8 10  1  0  0  0
  8 31  1  0  0  0
  8 32  1  0  0  0
  9 10  1  0  0  0
  9 12  1  0  0  0
  9 33  1  0  0  0
 10 14  1  0  0  0
 10 34  1  0  0  0
 11 12  1  0  0  0
 11 13  1  0  0  0
 11 35  1  0  0  0
 11 36  1  0  0  0
 12 23  1  0  0  0
 12 37  1  0  0  0
 13 14  1  0  0  0
 13 17  1  0  0  0
 13 18  1  0  0  0
 14 15  1  0  0  0
 14 38  1  0  0  0
 15 16  1  0  0  0
 15 39  1  0  0  0
 15 40  1  0  0  0
 16 17  1  0  0  0
 16 41  1  0  0  0
 16 42  1  0  0  0
 17 19  1  0  0  0
 17 21  1  0  0  0
 18 43  1  0  0  0
 18 44  1  0  0  0
 18 45  1  0  0  0
 19 46  1  0  0  0
 20 47  1  0  0  0
 21 22  3  0  0  0
 22 48  1  0  0  0
 23 24  1  0  0  0
 23 49  1  0  0  0
 23 50  1  0  0  0
 24 25  1  0  0  0
 24 51  1  0  0  0
 24 52  1  0  0  0
 25 53  1  0  0  0
 25 54  1  0  0  0
 25 55  1  0  0  0
M  END
>  <Name>
lit-27

>  <Family>
A.1

>  <RBA>
95.000000

>  <RBA_avg>
95.000000

>  <Method>
MUC

>  <set>
0

$$$$
lit-28
  Cerius2 12180216403D 1   1.00000                          
 Structure written by MMmdl.
 53 56  0  0  0  0  0  0  0  0999 V2000
   -6.7699   -4.3482   16.8170 C   0  0  0  0  0  0
   -5.3885   -4.3078   16.7179 C   0  0  0  0  0  0
   -4.7656   -4.4368   15.4827 C   0  0  0  0  0  0
   -7.5406   -4.5008   15.6625 C   0  0  0  0  0  0
   -6.9427   -4.5939   14.3914 C   0  0  0  0  0  0
   -5.5339   -4.6058   14.3162 C   0  0  0  0  0  0
   -4.8070   -4.7686   13.0040 C   0  0  0  0  0  0
   -5.6712   -5.4112   11.9244 C   0  0  0  0  0  0
   -7.8031   -4.7889   13.1426 C   0  0  0  0  0  0
   -6.9974   -4.6570   11.8113 C   0  0  0  0  0  0
   -9.9638   -4.3593   11.8006 C   0  0  0  0  0  0
   -9.1453   -3.9734   13.0761 C   0  0  0  0  0  0
   -9.1664   -4.3724   10.4747 C   0  0  0  0  0  0
   -7.8775   -5.1988   10.6797 C   0  0  0  0  0  0
   -7.3113   -5.3259    9.2694 C   0  0  0  0  0  0
   -8.5608   -5.4485    8.3685 C   0  0  0  0  0  0
   -9.7953   -5.1504    9.2691 C   0  0  0  0  0  0
   -8.9045   -2.9083   10.0155 C   0  0  0  0  0  0
  -10.7439   -4.3527    8.5650 O   0  0  0  0  0  0
   -4.6664   -4.1512   17.8636 O   0  0  0  0  0  0
  -10.4676   -6.4143    9.6455 C   0  0  0  0  0  0
  -11.0162   -7.4436    9.9359 C   0  0  0  0  0  0
   -8.9391   -2.4554   13.3089 C   0  0  0  0  0  0
  -10.2087   -1.6474   13.2727 C   0  0  0  0  0  0
  -10.7859   -1.1089   14.3546 C   0  0  0  0  0  0
   -7.2563   -4.2648   17.7862 H   0  0  0  0  0  0
   -3.6793   -4.4196   15.4123 H   0  0  0  0  0  0
   -8.6224   -4.5458   15.7756 H   0  0  0  0  0  0
   -3.9135   -5.3884   13.1473 H   0  0  0  0  0  0
   -4.4725   -3.7783   12.6706 H   0  0  0  0  0  0
   -5.8540   -6.4666   12.1643 H   0  0  0  0  0  0
   -5.1243   -5.3864   10.9751 H   0  0  0  0  0  0
   -8.1067   -5.8464   13.2160 H   0  0  0  0  0  0
   -6.7517   -3.6049   11.6301 H   0  0  0  0  0  0
  -10.8615   -3.7396   11.6998 H   0  0  0  0  0  0
  -10.3432   -5.3702   11.9968 H   0  0  0  0  0  0
   -9.7725   -4.3114   13.9140 H   0  0  0  0  0  0
   -8.1559   -6.2223   10.9786 H   0  0  0  0  0  0
   -6.6631   -6.2020    9.1651 H   0  0  0  0  0  0
   -6.7244   -4.4435    8.9909 H   0  0  0  0  0  0
   -8.6087   -6.4502    7.9241 H   0  0  0  0  0  0
   -8.4881   -4.7410    7.5339 H   0  0  0  0  0  0
   -8.5390   -2.8489    8.9846 H   0  0  0  0  0  0
   -8.1587   -2.3917   10.6157 H   0  0  0  0  0  0
   -9.8286   -2.3205   10.0509 H   0  0  0  0  0  0
  -10.9998   -4.8722    7.7758 H   0  0  0  0  0  0
   -3.7135   -4.1434   17.6304 H   0  0  0  0  0  0
  -11.5038   -8.3571   10.1941 H   0  0  0  0  0  0
   -8.2318   -2.0270   12.5971 H   0  0  0  0  0  0
   -8.4672   -2.3018   14.2866 H   0  0  0  0  0  0
  -10.6636   -1.4785   12.2979 H   0  0  0  0  0  0
  -11.6980   -0.5239   14.2673 H   0  0  0  0  0  0
  -10.3710   -1.2361   15.3510 H   0  0  0  0  0  0
  1  2  2  0  0  0
  1  4  1  0  0  0
  1 26  1  0  0  0
  2  3  1  0  0  0
  2 20  1  0  0  0
  3  6  2  0  0  0
  3 27  1  0  0  0
  4  5  2  0  0  0
  4 28  1  0  0  0
  5  6  1  0  0  0
  5  9  1  0  0  0
  6  7  1  0  0  0
  7  8  1  0  0  0
  7 29  1  0  0  0
  7 30  1  0  0  0
  8 10  1  0  0  0
  8 31  1  0  0  0
  8 32  1  0  0  0
  9 10  1  0  0  0
  9 12  1  0  0  0
  9 33  1  0  0  0
 10 14  1  0  0  0
 10 34  1  0  0  0
 11 12  1  0  0  0
 11 13  1  0  0  0
 11 35  1  0  0  0
 11 36  1  0  0  0
 12 23  1  0  0  0
 12 37  1  0  0  0
 13 14  1  0  0  0
 13 17  1  0  0  0
 13 18  1  0  0  0
 14 15  1  0  0  0
 14 38  1  0  0  0
 15 16  1  0  0  0
 15 39  1  0  0  0
 15 40  1  0  0  0
 16 17  1  0  0  0
 16 41  1  0  0  0
 16 42  1  0  0  0
 17 19  1  0  0  0
 17 21  1  0  0  0
 18 43  1  0  0  0
 18 44  1  0  0  0
 18 45  1  0  0  0
 19 46  1  0  0  0
 20 47  1  0  0  0
 21 22  3  0  0  0
 22 48  1  0  0  0
 23 24  1  0  0  0
 23 49  1  0  0  0
 23 50  1  0  0  0
 24 25  2  0  0  0
 24 51  1  0  0  0
 25 52  1  0  0  0
 25 53  1  0  0  0
M  END
>  <Name>
lit-28

>  <Family>
A.1

>  <RBA>
93.000000

>  <RBA_avg>
93.000000

>  <Method>
MUC

>  <set>
0

$$$$
lit-29
  Cerius2 12180216403D 1   1.00000                          
 Structure written by MMmdl.
 55 58  0  0  0  0  0  0  0  0999 V2000
   -6.7882   -4.5015   16.8203 C   0  0  0  0  0  0
   -5.4056   -4.4485   16.7391 C   0  0  0  0  0  0
   -4.7685   -4.4674   15.5039 C   0  0  0  0  0  0
   -7.5464   -4.5499   15.6489 C   0  0  0  0  0  0
   -6.9333   -4.5216   14.3822 C   0  0  0  0  0  0
   -5.5248   -4.5345   14.3203 C   0  0  0  0  0  0
   -4.7962   -4.6043   13.0020 C   0  0  0  0  0  0
   -5.6382   -5.2723   11.9198 C   0  0  0  0  0  0
   -7.7829   -4.5992   13.1195 C   0  0  0  0  0  0
   -6.9746   -4.5411   11.7834 C   0  0  0  0  0  0
   -9.9315   -4.2254   11.8021 C   0  0  0  0  0  0
   -9.0807   -3.7058   13.0220 C   0  0  0  0  0  0
   -9.1655   -4.3628   10.4581 C   0  0  0  0  0  0
   -7.8655   -5.1635   10.7004 C   0  0  0  0  0  0
   -7.3295   -5.4023    9.2942 C   0  0  0  0  0  0
   -8.6030   -5.6307    8.4462 C   0  0  0  0  0  0
   -9.8190   -5.2536    9.3465 C   0  0  0  0  0  0
   -8.9161   -2.9531    9.8453 C   0  0  0  0  0  0
  -10.7900   -4.5288    8.5957 O   0  0  0  0  0  0
   -4.6957   -4.3938   17.9020 O   0  0  0  0  0  0
  -10.4751   -6.4782    9.8576 C   0  0  0  0  0  0
  -11.0107   -7.4769   10.2578 C   0  0  0  0  0  0
   -8.8744   -2.1495   13.0492 C   0  0  0  0  0  0
   -8.2064   -1.6232   14.3257 C   0  0  0  0  0  0
  -10.2033   -1.3907   12.8940 C   0  0  0  0  0  0
   -7.2845   -4.5072   17.7879 H   0  0  0  0  0  0
   -3.6817   -4.4472   15.4472 H   0  0  0  0  0  0
   -8.6298   -4.6059   15.7400 H   0  0  0  0  0  0
   -3.8663   -5.1740   13.1178 H   0  0  0  0  0  0
   -4.5258   -3.5859   12.6974 H   0  0  0  0  0  0
   -5.8054   -6.3287   12.1673 H   0  0  0  0  0  0
   -5.0857   -5.2452   10.9737 H   0  0  0  0  0  0
   -8.1617   -5.6335   13.1902 H   0  0  0  0  0  0
   -6.7417   -3.4993   11.5386 H   0  0  0  0  0  0
  -10.8437   -3.6372   11.6639 H   0  0  0  0  0  0
  -10.2925   -5.2168   12.1055 H   0  0  0  0  0  0
   -9.6971   -3.9295   13.9041 H   0  0  0  0  0  0
   -8.1324   -6.1646   11.0762 H   0  0  0  0  0  0
   -6.6647   -6.2710    9.2490 H   0  0  0  0  0  0
   -6.7706   -4.5361    8.9233 H   0  0  0  0  0  0
   -8.6495   -6.6742    8.1119 H   0  0  0  0  0  0
   -8.5621   -5.0144    7.5402 H   0  0  0  0  0  0
   -8.6247   -2.9968    8.7901 H   0  0  0  0  0  0
   -8.1158   -2.4024   10.3351 H   0  0  0  0  0  0
   -9.8263   -2.3455    9.8837 H   0  0  0  0  0  0
  -11.0620   -5.1205    7.8649 H   0  0  0  0  0  0
   -3.7407   -4.3620   17.6801 H   0  0  0  0  0  0
  -11.4866   -8.3634   10.6136 H   0  0  0  0  0  0
   -8.2204   -1.8431   12.2332 H   0  0  0  0  0  0
   -8.2041   -0.5269   14.3417 H   0  0  0  0  0  0
   -7.1577   -1.9211   14.3827 H   0  0  0  0  0  0
   -8.7335   -1.9614   15.2229 H   0  0  0  0  0  0
  -10.0567   -0.3112   13.0137 H   0  0  0  0  0  0
  -10.9319   -1.7147   13.6449 H   0  0  0  0  0  0
  -10.6431   -1.5297   11.9042 H   0  0  0  0  0  0
  1  2  2  0  0  0
  1  4  1  0  0  0
  1 26  1  0  0  0
  2  3  1  0  0  0
  2 20  1  0  0  0
  3  6  2  0  0  0
  3 27  1  0  0  0
  4  5  2  0  0  0
  4 28  1  0  0  0
  5  6  1  0  0  0
  5  9  1  0  0  0
  6  7  1  0  0  0
  7  8  1  0  0  0
  7 29  1  0  0  0
  7 30  1  0  0  0
  8 10  1  0  0  0
  8 31  1  0  0  0
  8 32  1  0  0  0
  9 10  1  0  0  0
  9 12  1  0  0  0
  9 33  1  0  0  0
 10 14  1  0  0  0
 10 34  1  0  0  0
 11 12  1  0  0  0
 11 13  1  0  0  0
 11 35  1  0  0  0
 11 36  1  0  0  0
 12 23  1  0  0  0
 12 37  1  0  0  0
 13 14  1  0  0  0
 13 17  1  0  0  0
 13 18  1  0  0  0
 14 15  1  0  0  0
 14 38  1  0  0  0
 15 16  1  0  0  0
 15 39  1  0  0  0
 15 40  1  0  0  0
 16 17  1  0  0  0
 16 41  1  0  0  0
 16 42  1  0  0  0
 17 19  1  0  0  0
 17 21  1  0  0  0
 18 43  1  0  0  0
 18 44  1  0  0  0
 18 45  1  0  0  0
 19 46  1  0  0  0
 20 47  1  0  0  0
 21 22  3  0  0  0
 22 48  1  0  0  0
 23 24  1  0  0  0
 23 25  1  0  0  0
 23 49  1  0  0  0
 24 50  1  0  0  0
 24 51  1  0  0  0
 24 52  1  0  0  0
 25 53  1  0  0  0
 25 54  1  0  0  0
 25 55  1  0  0  0
M  END
>  <Name>
lit-29

>  <Family>
A.1

>  <RBA>
83.000000

>  <RBA_avg>
83.000000

>  <Method>
MUC

>  <set>
0

$$$$
lit-30
  Cerius2 12180216403D 1   1.00000                          
 Structure written by MMmdl.
 59 63  0  0  0  0  0  0  0  0999 V2000
   -6.7692   -4.3588   16.8179 C   0  0  0  0  0  0
   -5.3881   -4.3105   16.7178 C   0  0  0  0  0  0
   -4.7656   -4.4315   15.4816 C   0  0  0  0  0  0
   -7.5401   -4.5113   15.6635 C   0  0  0  0  0  0
   -6.9427   -4.5960   14.3915 C   0  0  0  0  0  0
   -5.5340   -4.6004   14.3151 C   0  0  0  0  0  0
   -4.8076   -4.7558   13.0017 C   0  0  0  0  0  0
   -5.6697   -5.4013   11.9222 C   0  0  0  0  0  0
   -7.8030   -4.7898   13.1425 C   0  0  0  0  0  0
   -6.9997   -4.6532   11.8117 C   0  0  0  0  0  0
   -9.9664   -4.3390   11.7981 C   0  0  0  0  0  0
   -9.1481   -3.9801   13.0825 C   0  0  0  0  0  0
   -9.1653   -4.3682   10.4737 C   0  0  0  0  0  0
   -7.8806   -5.1993   10.6837 C   0  0  0  0  0  0
   -7.3137   -5.3387    9.2748 C   0  0  0  0  0  0
   -8.5626   -5.4586    8.3732 C   0  0  0  0  0  0
   -9.7965   -5.1502    9.2712 C   0  0  0  0  0  0
   -8.8951   -2.9091   10.0050 C   0  0  0  0  0  0
  -10.7409   -4.3537    8.5606 O   0  0  0  0  0  0
   -4.6658   -4.1545   17.8635 O   0  0  0  0  0  0
  -10.4738   -6.4099    9.6537 C   0  0  0  0  0  0
  -11.0263   -7.4359    9.9484 C   0  0  0  0  0  0
   -8.9527   -2.4613   13.3319 C   0  0  0  0  0  0
  -10.2305   -1.6517   13.3965 C   0  0  0  0  0  0
  -11.1996   -1.9174   14.3749 C   0  0  0  0  0  0
  -12.3718   -1.1614   14.4376 C   0  0  0  0  0  0
  -12.5850   -0.1270   13.5292 C   0  0  0  0  0  0
  -11.6239    0.1557   12.5611 C   0  0  0  0  0  0
  -10.4509   -0.5992   12.4975 C   0  0  0  0  0  0
   -7.2552   -4.2819   17.7878 H   0  0  0  0  0  0
   -3.6795   -4.4084   15.4105 H   0  0  0  0  0  0
   -8.6214   -4.5633   15.7775 H   0  0  0  0  0  0
   -3.9104   -5.3707   13.1426 H   0  0  0  0  0  0
   -4.4794   -3.7628   12.6702 H   0  0  0  0  0  0
   -5.8473   -6.4579   12.1610 H   0  0  0  0  0  0
   -5.1240   -5.3724   10.9726 H   0  0  0  0  0  0
   -8.1033   -5.8485   13.2135 H   0  0  0  0  0  0
   -6.7596   -3.5996   11.6310 H   0  0  0  0  0  0
  -10.8452   -3.6923   11.6962 H   0  0  0  0  0  0
  -10.3740   -5.3400   11.9879 H   0  0  0  0  0  0
   -9.7714   -4.3443   13.9110 H   0  0  0  0  0  0
   -8.1639   -6.2197   10.9884 H   0  0  0  0  0  0
   -6.6714   -6.2199    9.1770 H   0  0  0  0  0  0
   -6.7200   -4.4625    8.9915 H   0  0  0  0  0  0
   -8.6154   -6.4615    7.9324 H   0  0  0  0  0  0
   -8.4854   -4.7546    7.5360 H   0  0  0  0  0  0
   -8.5035   -2.8593    8.9836 H   0  0  0  0  0  0
   -8.1680   -2.3832   10.6201 H   0  0  0  0  0  0
   -9.8225   -2.3256   10.0092 H   0  0  0  0  0  0
  -10.9994   -4.8780    7.7755 H   0  0  0  0  0  0
   -3.7132   -4.1414   17.6294 H   0  0  0  0  0  0
  -11.5173   -8.3465   10.2105 H   0  0  0  0  0  0
   -8.2676   -2.0257   12.6024 H   0  0  0  0  0  0
   -8.4529   -2.3026   14.2951 H   0  0  0  0  0  0
  -11.0472   -2.7147   15.1010 H   0  0  0  0  0  0
  -13.1184   -1.3793   15.1994 H   0  0  0  0  0  0
  -13.4988    0.4623   13.5787 H   0  0  0  0  0  0
  -11.7862    0.9676   11.8542 H   0  0  0  0  0  0
   -9.7097   -0.3574   11.7370 H   0  0  0  0  0  0
  1  2  2  0  0  0
  1  4  1  0  0  0
  1 30  1  0  0  0
  2  3  1  0  0  0
  2 20  1  0  0  0
  3  6  2  0  0  0
  3 31  1  0  0  0
  4  5  2  0  0  0
  4 32  1  0  0  0
  5  6  1  0  0  0
  5  9  1  0  0  0
  6  7  1  0  0  0
  7  8  1  0  0  0
  7 33  1  0  0  0
  7 34  1  0  0  0
  8 10  1  0  0  0
  8 35  1  0  0  0
  8 36  1  0  0  0
  9 10  1  0  0  0
  9 12  1  0  0  0
  9 37  1  0  0  0
 10 14  1  0  0  0
 10 38  1  0  0  0
 11 12  1  0  0  0
 11 13  1  0  0  0
 11 39  1  0  0  0
 11 40  1  0  0  0
 12 23  1  0  0  0
 12 41  1  0  0  0
 13 14  1  0  0  0
 13 17  1  0  0  0
 13 18  1  0  0  0
 14 15  1  0  0  0
 14 42  1  0  0  0
 15 16  1  0  0  0
 15 43  1  0  0  0
 15 44  1  0  0  0
 16 17  1  0  0  0
 16 45  1  0  0  0
 16 46  1  0  0  0
 17 19  1  0  0  0
 17 21  1  0  0  0
 18 47  1  0  0  0
 18 48  1  0  0  0
 18 49  1  0  0  0
 19 50  1  0  0  0
 20 51  1  0  0  0
 21 22  3  0  0  0
 22 52  1  0  0  0
 23 24  1  0  0  0
 23 53  1  0  0  0
 23 54  1  0  0  0
 24 25  2  0  0  0
 24 29  1  0  0  0
 25 26  1  0  0  0
 25 55  1  0  0  0
 26 27  2  0  0  0
 26 56  1  0  0  0
 27 28  1  0  0  0
 27 57  1  0  0  0
 28 29  2  0  0  0
 28 58  1  0  0  0
 29 59  1  0  0  0
M  END
>  <Name>
lit-30

>  <Family>
A.1

>  <RBA>
78.000000

>  <RBA_avg>
78.000000

>  <Method>
MUC

>  <set>
0

$$$$
lit-31
  Cerius2 12180216403D 1   1.00000                          
 Structure written by MMmdl.
 53 57  0  0  0  0  0  0  0  0999 V2000
   -6.7316   -3.8621   16.6747 C   0  0  0  0  0  0
   -5.3580   -3.9966   16.5881 C   0  0  0  0  0  0
   -4.7761   -4.4709   15.4224 C   0  0  0  0  0  0
   -7.5356   -4.2131   15.5846 C   0  0  0  0  0  0
   -6.9882   -4.7029   14.3865 C   0  0  0  0  0  0
   -5.5785   -4.8273   14.3193 C   0  0  0  0  0  0
   -4.8548   -5.2604   13.0659 C   0  0  0  0  0  0
   -5.7601   -5.7489   11.9447 C   0  0  0  0  0  0
   -7.8597   -5.1577   13.1952 C   0  0  0  0  0  0
   -7.0437   -4.9098   11.8797 C   0  0  0  0  0  0
  -10.0360   -4.8445   11.7470 C   0  0  0  0  0  0
   -9.3396   -4.6043   13.1216 C   0  0  0  0  0  0
   -9.1689   -4.4523   10.5452 C   0  0  0  0  0  0
   -7.8654   -5.2633   10.6408 C   0  0  0  0  0  0
   -7.2130   -5.0583    9.2716 C   0  0  0  0  0  0
   -8.3850   -4.8882    8.2861 C   0  0  0  0  0  0
   -9.6801   -4.8871    9.1355 C   0  0  0  0  0  0
   -8.9561   -2.9113   10.5694 C   0  0  0  0  0  0
  -10.6192   -3.9559    8.6054 O   0  0  0  0  0  0
   -4.6054   -3.6452   17.6681 O   0  0  0  0  0  0
  -10.3104   -6.2261    9.1055 C   0  0  0  0  0  0
  -10.8243   -7.3119    9.0669 C   0  0  0  0  0  0
  -10.2729   -5.2087   14.1771 C   0  0  0  0  0  0
  -11.4853   -4.2208   14.9004 S   0  0  0  0  0  0
  -12.0646   -5.5113   15.8572 C   0  0  0  0  0  0
  -11.3753   -6.6784   15.6218 C   0  0  0  0  0  0
  -10.3506   -6.5081   14.6461 C   0  0  0  0  0  0
   -7.1921   -3.4870   17.5861 H   0  0  0  0  0  0
   -3.6933   -4.5611   15.3486 H   0  0  0  0  0  0
   -8.6033   -4.0851   15.7163 H   0  0  0  0  0  0
   -4.1319   -6.0488   13.3083 H   0  0  0  0  0  0
   -4.2856   -4.3962   12.6990 H   0  0  0  0  0  0
   -6.0131   -6.8046   12.1083 H   0  0  0  0  0  0
   -5.2025   -5.7058   11.0026 H   0  0  0  0  0  0
   -7.9394   -6.2486   13.3088 H   0  0  0  0  0  0
   -6.7481   -3.8537   11.8243 H   0  0  0  0  0  0
  -10.9883   -4.2982   11.7093 H   0  0  0  0  0  0
  -10.3025   -5.9076   11.6854 H   0  0  0  0  0  0
   -9.2888   -3.5206   13.2932 H   0  0  0  0  0  0
   -8.1103   -6.3345   10.7161 H   0  0  0  0  0  0
   -6.5865   -5.9120    8.9926 H   0  0  0  0  0  0
   -6.5778   -4.1652    9.2586 H   0  0  0  0  0  0
   -8.3775   -5.6897    7.5377 H   0  0  0  0  0  0
   -8.2695   -3.9480    7.7332 H   0  0  0  0  0  0
   -8.3467   -2.5607    9.7305 H   0  0  0  0  0  0
   -8.4654   -2.5613   11.4811 H   0  0  0  0  0  0
   -9.9182   -2.3890   10.5125 H   0  0  0  0  0  0
  -10.8008   -4.2479    7.6888 H   0  0  0  0  0  0
   -3.6610   -3.7974   17.4503 H   0  0  0  0  0  0
  -11.2812   -8.2756    9.0334 H   0  0  0  0  0  0
  -12.8890   -5.3579   16.5422 H   0  0  0  0  0  0
  -11.5990   -7.6141   16.1222 H   0  0  0  0  0  0
   -9.7033   -7.3111   14.3109 H   0  0  0  0  0  0
  1  2  2  0  0  0
  1  4  1  0  0  0
  1 28  1  0  0  0
  2  3  1  0  0  0
  2 20  1  0  0  0
  3  6  2  0  0  0
  3 29  1  0  0  0
  4  5  2  0  0  0
  4 30  1  0  0  0
  5  6  1  0  0  0
  5  9  1  0  0  0
  6  7  1  0  0  0
  7  8  1  0  0  0
  7 31  1  0  0  0
  7 32  1  0  0  0
  8 10  1  0  0  0
  8 33  1  0  0  0
  8 34  1  0  0  0
  9 10  1  0  0  0
  9 12  1  0  0  0
  9 35  1  0  0  0
 10 14  1  0  0  0
 10 36  1  0  0  0
 11 12  1  0  0  0
 11 13  1  0  0  0
 11 37  1  0  0  0
 11 38  1  0  0  0
 12 23  1  0  0  0
 12 39  1  0  0  0
 13 14  1  0  0  0
 13 17  1  0  0  0
 13 18  1  0  0  0
 14 15  1  0  0  0
 14 40  1  0  0  0
 15 16  1  0  0  0
 15 41  1  0  0  0
 15 42  1  0  0  0
 16 17  1  0  0  0
 16 43  1  0  0  0
 16 44  1  0  0  0
 17 19  1  0  0  0
 17 21  1  0  0  0
 18 45  1  0  0  0
 18 46  1  0  0  0
 18 47  1  0  0  0
 19 48  1  0  0  0
 20 49  1  0  0  0
 21 22  3  0  0  0
 22 50  1  0  0  0
 23 24  1  0  0  0
 23 27  2  0  0  0
 24 25  1  0  0  0
 25 26  2  0  0  0
 25 51  1  0  0  0
 26 27  1  0  0  0
 26 52  1  0  0  0
 27 53  1  0  0  0
M  END
>  <Name>
lit-31

>  <Family>
A.1

>  <RBA>
76.000000

>  <RBA_avg>
76.000000

>  <Method>
MUC

>  <set>
2

$$$$
lit-32
  Cerius2 12180216403D 1   1.00000                          
 Structure written by MMmdl.
 60 64  0  0  0  0  0  0  0  0999 V2000
   -6.7425   -3.8994   16.7004 C   0  0  0  0  0  0
   -5.3671   -4.0110   16.6045 C   0  0  0  0  0  0
   -4.7844   -4.4567   15.4289 C   0  0  0  0  0  0
   -7.5433   -4.2428   15.6044 C   0  0  0  0  0  0
   -6.9931   -4.6983   14.3934 C   0  0  0  0  0  0
   -5.5827   -4.8061   14.3217 C   0  0  0  0  0  0
   -4.8555   -5.2176   13.0640 C   0  0  0  0  0  0
   -5.7581   -5.7269   11.9504 C   0  0  0  0  0  0
   -7.8640   -5.1398   13.1967 C   0  0  0  0  0  0
   -7.0463   -4.8965   11.8806 C   0  0  0  0  0  0
  -10.0384   -4.8130   11.7472 C   0  0  0  0  0  0
   -9.3361   -4.5606   13.1149 C   0  0  0  0  0  0
   -9.1691   -4.4474   10.5373 C   0  0  0  0  0  0
   -7.8686   -5.2627   10.6453 C   0  0  0  0  0  0
   -7.2157   -5.0802    9.2734 C   0  0  0  0  0  0
   -8.3878   -4.9253    8.2854 C   0  0  0  0  0  0
   -9.6828   -4.9042    9.1352 C   0  0  0  0  0  0
   -8.9495   -2.9069   10.5326 C   0  0  0  0  0  0
  -10.6181   -3.9784    8.5888 O   0  0  0  0  0  0
   -4.5519   -3.6860   17.6468 O   0  0  0  0  0  0
  -10.3184   -6.2410    9.1278 C   0  0  0  0  0  0
  -10.8362   -7.3255    9.1069 C   0  0  0  0  0  0
  -10.3227   -5.0750   14.1722 C   0  0  0  0  0  0
  -10.4010   -6.4262   14.5381 C   0  0  0  0  0  0
  -11.3311   -6.8621   15.4910 C   0  0  0  0  0  0
  -12.2078   -5.9565   16.0857 C   0  0  0  0  0  0
  -12.1513   -4.6130   15.7130 C   0  0  0  0  0  0
  -11.2249   -4.1755   14.7626 C   0  0  0  0  0  0
  -13.1570   -6.2537   17.0243 O   0  0  0  0  0  0
  -13.2392   -7.6148   17.4440 C   0  0  0  0  0  0
   -7.2174   -3.5512   17.6149 H   0  0  0  0  0  0
   -3.6997   -4.5279   15.3632 H   0  0  0  0  0  0
   -8.6131   -4.1388   15.7428 H   0  0  0  0  0  0
   -4.1128   -5.9894   13.2997 H   0  0  0  0  0  0
   -4.3096   -4.3393   12.6953 H   0  0  0  0  0  0
   -6.0033   -6.7825   12.1258 H   0  0  0  0  0  0
   -5.2023   -5.6889   11.0069 H   0  0  0  0  0  0
   -7.9542   -6.2292   13.3060 H   0  0  0  0  0  0
   -6.7567   -3.8393   11.8193 H   0  0  0  0  0  0
  -10.9846   -4.2565   11.7022 H   0  0  0  0  0  0
  -10.3158   -5.8738   11.6982 H   0  0  0  0  0  0
   -9.2479   -3.4752   13.2578 H   0  0  0  0  0  0
   -8.1183   -6.3317   10.7355 H   0  0  0  0  0  0
   -6.5899   -5.9387    9.0079 H   0  0  0  0  0  0
   -6.5801   -4.1879    9.2463 H   0  0  0  0  0  0
   -8.3831   -5.7411    7.5526 H   0  0  0  0  0  0
   -8.2696   -3.9962    7.7143 H   0  0  0  0  0  0
   -8.3419   -2.5739    9.6854 H   0  0  0  0  0  0
   -8.4538   -2.5420   11.4357 H   0  0  0  0  0  0
   -9.9097   -2.3816   10.4695 H   0  0  0  0  0  0
  -10.8018   -4.2864    7.6779 H   0  0  0  0  0  0
   -3.6227   -3.8367   17.3703 H   0  0  0  0  0  0
  -11.2966   -8.2881    9.0893 H   0  0  0  0  0  0
   -9.7488   -7.1687   14.0821 H   0  0  0  0  0  0
  -11.3430   -7.9205   15.7377 H   0  0  0  0  0  0
  -12.8342   -3.8935   16.1616 H   0  0  0  0  0  0
  -11.2109   -3.1207   14.4894 H   0  0  0  0  0  0
  -14.0304   -7.6833   18.1967 H   0  0  0  0  0  0
  -12.3039   -7.9397   17.9118 H   0  0  0  0  0  0
  -13.5147   -8.2675   16.6092 H   0  0  0  0  0  0
  1  2  2  0  0  0
  1  4  1  0  0  0
  1 31  1  0  0  0
  2  3  1  0  0  0
  2 20  1  0  0  0
  3  6  2  0  0  0
  3 32  1  0  0  0
  4  5  2  0  0  0
  4 33  1  0  0  0
  5  6  1  0  0  0
  5  9  1  0  0  0
  6  7  1  0  0  0
  7  8  1  0  0  0
  7 34  1  0  0  0
  7 35  1  0  0  0
  8 10  1  0  0  0
  8 36  1  0  0  0
  8 37  1  0  0  0
  9 10  1  0  0  0
  9 12  1  0  0  0
  9 38  1  0  0  0
 10 14  1  0  0  0
 10 39  1  0  0  0
 11 12  1  0  0  0
 11 13  1  0  0  0
 11 40  1  0  0  0
 11 41  1  0  0  0
 12 23  1  0  0  0
 12 42  1  0  0  0
 13 14  1  0  0  0
 13 17  1  0  0  0
 13 18  1  0  0  0
 14 15  1  0  0  0
 14 43  1  0  0  0
 15 16  1  0  0  0
 15 44  1  0  0  0
 15 45  1  0  0  0
 16 17  1  0  0  0
 16 46  1  0  0  0
 16 47  1  0  0  0
 17 19  1  0  0  0
 17 21  1  0  0  0
 18 48  1  0  0  0
 18 49  1  0  0  0
 18 50  1  0  0  0
 19 51  1  0  0  0
 20 52  1  0  0  0
 21 22  3  0  0  0
 22 53  1  0  0  0
 23 24  2  0  0  0
 23 28  1  0  0  0
 24 25  1  0  0  0
 24 54  1  0  0  0
 25 26  2  0  0  0
 25 55  1  0  0  0
 26 27  1  0  0  0
 26 29  1  0  0  0
 27 28  2  0  0  0
 27 56  1  0  0  0
 28 57  1  0  0  0
 29 30  1  0  0  0
 30 58  1  0  0  0
 30 59  1  0  0  0
 30 60  1  0  0  0
M  END
>  <Name>
lit-32

>  <Family>
A.1

>  <RBA>
62.000000

>  <RBA_avg>
62.000000

>  <Method>
MUC

>  <set>
1

$$$$
lit-33
  Cerius2 12180216403D 1   1.00000                          
 Structure written by MMmdl.
 60 64  0  0  0  0  0  0  0  0999 V2000
   -6.7210   -3.9700   16.7286 C   0  0  0  0  0  0
   -5.3453   -4.0323   16.6101 C   0  0  0  0  0  0
   -4.7674   -4.4290   15.4144 C   0  0  0  0  0  0
   -7.5300   -4.3046   15.6366 C   0  0  0  0  0  0
   -6.9886   -4.6969   14.4007 C   0  0  0  0  0  0
   -5.5759   -4.7724   14.3110 C   0  0  0  0  0  0
   -4.8557   -5.1555   13.0401 C   0  0  0  0  0  0
   -5.7621   -5.7073   11.9518 C   0  0  0  0  0  0
   -7.8709   -5.1210   13.2038 C   0  0  0  0  0  0
   -7.0565   -4.8888   11.8809 C   0  0  0  0  0  0
  -10.0466   -4.7559   11.7439 C   0  0  0  0  0  0
   -9.3331   -4.5097   13.1095 C   0  0  0  0  0  0
   -9.1704   -4.4361   10.5262 C   0  0  0  0  0  0
   -7.8833   -5.2700   10.6529 C   0  0  0  0  0  0
   -7.2287   -5.1284    9.2767 C   0  0  0  0  0  0
   -8.3985   -4.9761    8.2856 C   0  0  0  0  0  0
   -9.6923   -4.9175    9.1351 C   0  0  0  0  0  0
   -8.9262   -2.8994   10.4841 C   0  0  0  0  0  0
  -10.6151   -3.9914    8.5683 O   0  0  0  0  0  0
   -4.5875   -3.6978   17.6917 O   0  0  0  0  0  0
  -10.3463   -6.2453    9.1577 C   0  0  0  0  0  0
  -10.8788   -7.3228    9.1623 C   0  0  0  0  0  0
  -10.3528   -4.9309   14.1851 C   0  0  0  0  0  0
  -10.6363   -6.2704   14.5284 C   0  0  0  0  0  0
  -11.5908   -6.5434   15.5175 C   0  0  0  0  0  0
  -12.2807   -5.5083   16.1522 C   0  0  0  0  0  0
  -12.0329   -4.1884   15.7994 C   0  0  0  0  0  0
  -11.0840   -3.9022   14.8203 C   0  0  0  0  0  0
   -9.9639   -7.2400   13.8350 O   0  0  0  0  0  0
  -10.2240   -8.6009   14.1683 C   0  0  0  0  0  0
   -7.1801   -3.6672   17.6672 H   0  0  0  0  0  0
   -3.6836   -4.4754   15.3195 H   0  0  0  0  0  0
   -8.5980   -4.2512   15.8034 H   0  0  0  0  0  0
   -4.0786   -5.8971   13.2620 H   0  0  0  0  0  0
   -4.3530   -4.2572   12.6586 H   0  0  0  0  0  0
   -5.9943   -6.7606   12.1561 H   0  0  0  0  0  0
   -5.2168   -5.6849   11.0020 H   0  0  0  0  0  0
   -7.9692   -6.2066   13.3139 H   0  0  0  0  0  0
   -6.7733   -3.8306   11.8088 H   0  0  0  0  0  0
  -10.9730   -4.1671   11.6948 H   0  0  0  0  0  0
  -10.3632   -5.8043   11.7033 H   0  0  0  0  0  0
   -9.1959   -3.4249   13.2144 H   0  0  0  0  0  0
   -8.1496   -6.3327   10.7670 H   0  0  0  0  0  0
   -6.6175   -6.0028    9.0299 H   0  0  0  0  0  0
   -6.5784   -4.2474    9.2295 H   0  0  0  0  0  0
   -8.4065   -5.8069    7.5698 H   0  0  0  0  0  0
   -8.2664   -4.0611    7.6952 H   0  0  0  0  0  0
   -8.3073   -2.5975    9.6333 H   0  0  0  0  0  0
   -8.4323   -2.5187   11.3813 H   0  0  0  0  0  0
   -9.8774   -2.3608   10.4002 H   0  0  0  0  0  0
  -10.8041   -4.3173    7.6649 H   0  0  0  0  0  0
   -3.6418   -3.7935   17.4489 H   0  0  0  0  0  0
  -11.3525   -8.2791    9.1672 H   0  0  0  0  0  0
  -11.8341   -7.5596   15.8169 H   0  0  0  0  0  0
  -13.0212   -5.7378   16.9166 H   0  0  0  0  0  0
  -12.5776   -3.3806   16.2846 H   0  0  0  0  0  0
  -10.9079   -2.8588   14.5579 H   0  0  0  0  0  0
   -9.5930   -9.2252   13.5284 H   0  0  0  0  0  0
  -11.2671   -8.8633   13.9648 H   0  0  0  0  0  0
   -9.9539   -8.8105   15.2083 H   0  0  0  0  0  0
  1  2  2  0  0  0
  1  4  1  0  0  0
  1 31  1  0  0  0
  2  3  1  0  0  0
  2 20  1  0  0  0
  3  6  2  0  0  0
  3 32  1  0  0  0
  4  5  2  0  0  0
  4 33  1  0  0  0
  5  6  1  0  0  0
  5  9  1  0  0  0
  6  7  1  0  0  0
  7  8  1  0  0  0
  7 34  1  0  0  0
  7 35  1  0  0  0
  8 10  1  0  0  0
  8 36  1  0  0  0
  8 37  1  0  0  0
  9 10  1  0  0  0
  9 12  1  0  0  0
  9 38  1  0  0  0
 10 14  1  0  0  0
 10 39  1  0  0  0
 11 12  1  0  0  0
 11 13  1  0  0  0
 11 40  1  0  0  0
 11 41  1  0  0  0
 12 23  1  0  0  0
 12 42  1  0  0  0
 13 14  1  0  0  0
 13 17  1  0  0  0
 13 18  1  0  0  0
 14 15  1  0  0  0
 14 43  1  0  0  0
 15 16  1  0  0  0
 15 44  1  0  0  0
 15 45  1  0  0  0
 16 17  1  0  0  0
 16 46  1  0  0  0
 16 47  1  0  0  0
 17 19  1  0  0  0
 17 21  1  0  0  0
 18 48  1  0  0  0
 18 49  1  0  0  0
 18 50  1  0  0  0
 19 51  1  0  0  0
 20 52  1  0  0  0
 21 22  3  0  0  0
 22 53  1  0  0  0
 23 24  2  0  0  0
 23 28  1  0  0  0
 24 25  1  0  0  0
 24 29  1  0  0  0
 25 26  2  0  0  0
 25 54  1  0  0  0
 26 27  1  0  0  0
 26 55  1  0  0  0
 27 28  2  0  0  0
 27 56  1  0  0  0
 28 57  1  0  0  0
 29 30  1  0  0  0
 30 58  1  0  0  0
 30 59  1  0  0  0
 30 60  1  0  0  0
M  END
>  <Name>
lit-33

>  <Family>
A.1

>  <RBA>
15.000000

>  <RBA_avg>
15.000000

>  <Method>
MUC

>  <set>
0

$$$$
lit-34
  Cerius2 12180216403D 1   1.00000                          
 Structure written by MMmdl.
 47 50  0  0  0  0  0  0  0  0999 V2000
   -6.7796   -4.0923   16.7454 C   0  0  0  0  0  0
   -5.3976   -4.1229   16.6542 C   0  0  0  0  0  0
   -4.7772   -4.4332   15.4509 C   0  0  0  0  0  0
   -7.5544   -4.3674   15.6157 C   0  0  0  0  0  0
   -6.9586   -4.6632   14.3761 C   0  0  0  0  0  0
   -5.5483   -4.7204   14.3090 C   0  0  0  0  0  0
   -4.8135   -5.0306   13.0251 C   0  0  0  0  0  0
   -5.6988   -5.6110   11.9263 C   0  0  0  0  0  0
   -7.8077   -5.0094   13.1529 C   0  0  0  0  0  0
   -7.0028   -4.8148   11.8328 C   0  0  0  0  0  0
   -9.9876   -4.6414   11.8146 C   0  0  0  0  0  0
   -9.1826   -4.2940   13.0823 C   0  0  0  0  0  0
   -9.1716   -4.4221   10.5295 C   0  0  0  0  0  0
   -7.8728   -5.2514   10.6504 C   0  0  0  0  0  0
   -7.2803   -5.1918    9.2464 C   0  0  0  0  0  0
   -8.5023   -5.1752    8.3087 C   0  0  0  0  0  0
   -9.7595   -5.0005    9.2035 C   0  0  0  0  0  0
  -10.6662   -4.0780    8.5928 O   0  0  0  0  0  0
   -4.6731   -3.8456   17.7753 O   0  0  0  0  0  0
  -10.5140   -6.3285    9.3450 C   0  0  0  0  0  0
   -8.9204   -2.8948   10.3600 C   0  0  0  0  0  0
   -7.2647   -3.8599   17.6908 H   0  0  0  0  0  0
   -3.6907   -4.4580   15.3845 H   0  0  0  0  0  0
   -8.6359   -4.3513   15.7324 H   0  0  0  0  0  0
   -3.9974   -5.7353   13.2261 H   0  0  0  0  0  0
   -4.3616   -4.0978   12.6640 H   0  0  0  0  0  0
   -5.9165   -6.6655   12.1399 H   0  0  0  0  0  0
   -5.1478   -5.5851   10.9796 H   0  0  0  0  0  0
   -8.0243   -6.0843   13.2542 H   0  0  0  0  0  0
   -6.7320   -3.7575   11.7186 H   0  0  0  0  0  0
  -10.9105   -4.0497   11.7900 H   0  0  0  0  0  0
  -10.2939   -5.6907   11.9014 H   0  0  0  0  0  0
   -9.0442   -3.2091   13.1578 H   0  0  0  0  0  0
   -9.8015   -4.5803   13.9407 H   0  0  0  0  0  0
   -8.1344   -6.3050   10.8315 H   0  0  0  0  0  0
   -6.6357   -6.0521    9.0388 H   0  0  0  0  0  0
   -6.6785   -4.2874    9.1029 H   0  0  0  0  0  0
   -8.5474   -6.1045    7.7294 H   0  0  0  0  0  0
   -8.4055   -4.3590    7.5829 H   0  0  0  0  0  0
  -10.8831   -4.4364    7.7069 H   0  0  0  0  0  0
   -3.7200   -3.9082   17.5514 H   0  0  0  0  0  0
  -10.8366   -6.6924    8.3619 H   0  0  0  0  0  0
  -11.4320   -6.1962    9.9282 H   0  0  0  0  0  0
   -9.9122   -7.1142    9.8093 H   0  0  0  0  0  0
   -8.3663   -2.6611    9.4453 H   0  0  0  0  0  0
   -8.3587   -2.4575   11.1889 H   0  0  0  0  0  0
   -9.8720   -2.3527   10.3082 H   0  0  0  0  0  0
  1  2  2  0  0  0
  1  4  1  0  0  0
  1 22  1  0  0  0
  2  3  1  0  0  0
  2 19  1  0  0  0
  3  6  2  0  0  0
  3 23  1  0  0  0
  4  5  2  0  0  0
  4 24  1  0  0  0
  5  6  1  0  0  0
  5  9  1  0  0  0
  6  7  1  0  0  0
  7  8  1  0  0  0
  7 25  1  0  0  0
  7 26  1  0  0  0
  8 10  1  0  0  0
  8 27  1  0  0  0
  8 28  1  0  0  0
  9 10  1  0  0  0
  9 12  1  0  0  0
  9 29  1  0  0  0
 10 14  1  0  0  0
 10 30  1  0  0  0
 11 12  1  0  0  0
 11 13  1  0  0  0
 11 31  1  0  0  0
 11 32  1  0  0  0
 12 33  1  0  0  0
 12 34  1  0  0  0
 13 14  1  0  0  0
 13 17  1  0  0  0
 13 21  1  0  0  0
 14 15  1  0  0  0
 14 35  1  0  0  0
 15 16  1  0  0  0
 15 36  1  0  0  0
 15 37  1  0  0  0
 16 17  1  0  0  0
 16 38  1  0  0  0
 16 39  1  0  0  0
 17 18  1  0  0  0
 17 20  1  0  0  0
 18 40  1  0  0  0
 19 41  1  0  0  0
 20 42  1  0  0  0
 20 43  1  0  0  0
 20 44  1  0  0  0
 21 45  1  0  0  0
 21 46  1  0  0  0
 21 47  1  0  0  0
M  END
>  <Name>
lit-34

>  <Family>
A.1

>  <RBA>
72,58

>  <RBA_avg>
65.000000

>  <Method>
RUC,LUC

>  <set>
1

$$$$
lit-35
  Cerius2 12180216403D 1   1.00000                          
 Structure written by MMmdl.
 49 52  0  0  0  0  0  0  0  0999 V2000
   -6.7727   -4.0873   16.7469 C   0  0  0  0  0  0
   -5.3910   -4.1177   16.6521 C   0  0  0  0  0  0
   -4.7736   -4.4302   15.4478 C   0  0  0  0  0  0
   -7.5504   -4.3651   15.6199 C   0  0  0  0  0  0
   -6.9577   -4.6635   14.3795 C   0  0  0  0  0  0
   -5.5476   -4.7201   14.3086 C   0  0  0  0  0  0
   -4.8167   -5.0326   13.0233 C   0  0  0  0  0  0
   -5.7051   -5.6159   11.9283 C   0  0  0  0  0  0
   -7.8096   -5.0136   13.1596 C   0  0  0  0  0  0
   -7.0105   -4.8210   11.8369 C   0  0  0  0  0  0
   -9.9887   -4.6593   11.8255 C   0  0  0  0  0  0
   -9.1834   -4.2988   13.0894 C   0  0  0  0  0  0
   -9.1873   -4.4349   10.5317 C   0  0  0  0  0  0
   -7.8824   -5.2576   10.6537 C   0  0  0  0  0  0
   -7.2805   -5.1841    9.2568 C   0  0  0  0  0  0
   -8.4928   -5.1673    8.3114 C   0  0  0  0  0  0
   -9.7738   -5.0051    9.1905 C   0  0  0  0  0  0
  -10.6274   -4.0433    8.5479 O   0  0  0  0  0  0
   -4.6636   -3.8380   17.7708 O   0  0  0  0  0  0
  -10.5194   -6.3674    9.2661 C   0  0  0  0  0  0
   -8.9400   -2.9045   10.3716 C   0  0  0  0  0  0
  -11.8701   -6.2837    9.8586 C   0  0  0  0  0  0
  -12.9730   -6.2328   10.3322 C   0  0  0  0  0  0
   -7.2553   -3.8531   17.6931 H   0  0  0  0  0  0
   -3.6873   -4.4547   15.3786 H   0  0  0  0  0  0
   -8.6316   -4.3493   15.7394 H   0  0  0  0  0  0
   -3.9995   -5.7362   13.2231 H   0  0  0  0  0  0
   -4.3666   -4.1002   12.6588 H   0  0  0  0  0  0
   -5.9213   -6.6702   12.1445 H   0  0  0  0  0  0
   -5.1563   -5.5914   10.9805 H   0  0  0  0  0  0
   -8.0253   -6.0884   13.2638 H   0  0  0  0  0  0
   -6.7402   -3.7636   11.7210 H   0  0  0  0  0  0
  -10.9194   -4.0801   11.8079 H   0  0  0  0  0  0
  -10.2703   -5.7136   11.9228 H   0  0  0  0  0  0
   -9.0472   -3.2133   13.1589 H   0  0  0  0  0  0
   -9.8001   -4.5816   13.9505 H   0  0  0  0  0  0
   -8.1397   -6.3132   10.8281 H   0  0  0  0  0  0
   -6.6294   -6.0392    9.0476 H   0  0  0  0  0  0
   -6.6824   -4.2756    9.1240 H   0  0  0  0  0  0
   -8.5201   -6.0910    7.7221 H   0  0  0  0  0  0
   -8.3909   -4.3462    7.5914 H   0  0  0  0  0  0
  -10.9087   -4.4360    7.6958 H   0  0  0  0  0  0
   -3.7110   -3.9006   17.5444 H   0  0  0  0  0  0
   -9.9253   -7.1159    9.8003 H   0  0  0  0  0  0
  -10.6539   -6.7511    8.2454 H   0  0  0  0  0  0
   -8.3927   -2.6627    9.4549 H   0  0  0  0  0  0
   -8.3727   -2.4710   11.1985 H   0  0  0  0  0  0
   -9.8937   -2.3649   10.3309 H   0  0  0  0  0  0
  -13.9528   -6.1863   10.7532 H   0  0  0  0  0  0
  1  2  2  0  0  0
  1  4  1  0  0  0
  1 24  1  0  0  0
  2  3  1  0  0  0
  2 19  1  0  0  0
  3  6  2  0  0  0
  3 25  1  0  0  0
  4  5  2  0  0  0
  4 26  1  0  0  0
  5  6  1  0  0  0
  5  9  1  0  0  0
  6  7  1  0  0  0
  7  8  1  0  0  0
  7 27  1  0  0  0
  7 28  1  0  0  0
  8 10  1  0  0  0
  8 29  1  0  0  0
  8 30  1  0  0  0
  9 10  1  0  0  0
  9 12  1  0  0  0
  9 31  1  0  0  0
 10 14  1  0  0  0
 10 32  1  0  0  0
 11 12  1  0  0  0
 11 13  1  0  0  0
 11 33  1  0  0  0
 11 34  1  0  0  0
 12 35  1  0  0  0
 12 36  1  0  0  0
 13 14  1  0  0  0
 13 17  1  0  0  0
 13 21  1  0  0  0
 14 15  1  0  0  0
 14 37  1  0  0  0
 15 16  1  0  0  0
 15 38  1  0  0  0
 15 39  1  0  0  0
 16 17  1  0  0  0
 16 40  1  0  0  0
 16 41  1  0  0  0
 17 18  1  0  0  0
 17 20  1  0  0  0
 18 42  1  0  0  0
 19 43  1  0  0  0
 20 22  1  0  0  0
 20 44  1  0  0  0
 20 45  1  0  0  0
 21 46  1  0  0  0
 21 47  1  0  0  0
 21 48  1  0  0  0
 22 23  3  0  0  0
 23 49  1  0  0  0
M  END
>  <Name>
lit-35

>  <Family>
A.1

>  <RBA>
49.000000

>  <RBA_avg>
49.000000

>  <Method>
RUC

>  <set>
1

$$$$
lit-36
  Cerius2 12180216403D 1   1.00000                          
 Structure written by MMmdl.
 49 52  0  0  0  0  0  0  0  0999 V2000
   -6.7802   -4.0954   16.7468 C   0  0  0  0  0  0
   -5.3982   -4.1274   16.6562 C   0  0  0  0  0  0
   -4.7777   -4.4365   15.4527 C   0  0  0  0  0  0
   -7.5548   -4.3674   15.6163 C   0  0  0  0  0  0
   -6.9589   -4.6615   14.3762 C   0  0  0  0  0  0
   -5.5485   -4.7209   14.3099 C   0  0  0  0  0  0
   -4.8136   -5.0312   13.0264 C   0  0  0  0  0  0
   -5.6991   -5.6130   11.9286 C   0  0  0  0  0  0
   -7.8085   -5.0037   13.1522 C   0  0  0  0  0  0
   -7.0014   -4.8145   11.8325 C   0  0  0  0  0  0
   -9.9880   -4.6223   11.8141 C   0  0  0  0  0  0
   -9.1782   -4.2782   13.0801 C   0  0  0  0  0  0
   -9.1678   -4.4210   10.5266 C   0  0  0  0  0  0
   -7.8702   -5.2525   10.6504 C   0  0  0  0  0  0
   -7.2758   -5.1988    9.2450 C   0  0  0  0  0  0
   -8.4964   -5.1442    8.3028 C   0  0  0  0  0  0
   -9.7527   -5.0050    9.2036 C   0  0  0  0  0  0
  -10.6955   -4.1196    8.6057 O   0  0  0  0  0  0
   -4.6740   -3.8529   17.7781 O   0  0  0  0  0  0
  -10.4141   -6.3189    9.3671 C   0  0  0  0  0  0
   -8.9156   -2.8939   10.3480 C   0  0  0  0  0  0
  -10.9537   -7.3864    9.4873 C   0  0  0  0  0  0
  -11.6100   -8.6869    9.6371 C   0  0  0  0  0  0
   -7.2655   -3.8642   17.6925 H   0  0  0  0  0  0
   -3.6912   -4.4626   15.3868 H   0  0  0  0  0  0
   -8.6364   -4.3506   15.7327 H   0  0  0  0  0  0
   -3.9971   -5.7354   13.2275 H   0  0  0  0  0  0
   -4.3623   -4.0983   12.6645 H   0  0  0  0  0  0
   -5.9188   -6.6665   12.1447 H   0  0  0  0  0  0
   -5.1477   -5.5905   10.9821 H   0  0  0  0  0  0
   -8.0323   -6.0771   13.2538 H   0  0  0  0  0  0
   -6.7292   -3.7577   11.7157 H   0  0  0  0  0  0
  -10.9025   -4.0176   11.7863 H   0  0  0  0  0  0
  -10.3112   -5.6656   11.9091 H   0  0  0  0  0  0
   -9.0312   -3.1942   13.1526 H   0  0  0  0  0  0
   -9.7990   -4.5568   13.9395 H   0  0  0  0  0  0
   -8.1370   -6.3058   10.8329 H   0  0  0  0  0  0
   -6.6542   -6.0753    9.0344 H   0  0  0  0  0  0
   -6.6501   -4.3099    9.1066 H   0  0  0  0  0  0
   -8.5346   -6.0426    7.6749 H   0  0  0  0  0  0
   -8.3976   -4.2921    7.6192 H   0  0  0  0  0  0
  -10.9292   -4.5181    7.7425 H   0  0  0  0  0  0
   -3.7207   -3.9155   17.5544 H   0  0  0  0  0  0
   -8.3501   -2.6652    9.4393 H   0  0  0  0  0  0
   -8.3631   -2.4512   11.1804 H   0  0  0  0  0  0
   -9.8667   -2.3530   10.2807 H   0  0  0  0  0  0
  -11.7488   -9.1667    8.6637 H   0  0  0  0  0  0
  -12.5929   -8.5745   10.1042 H   0  0  0  0  0  0
  -11.0103   -9.3545   10.2629 H   0  0  0  0  0  0
  1  2  2  0  0  0
  1  4  1  0  0  0
  1 24  1  0  0  0
  2  3  1  0  0  0
  2 19  1  0  0  0
  3  6  2  0  0  0
  3 25  1  0  0  0
  4  5  2  0  0  0
  4 26  1  0  0  0
  5  6  1  0  0  0
  5  9  1  0  0  0
  6  7  1  0  0  0
  7  8  1  0  0  0
  7 27  1  0  0  0
  7 28  1  0  0  0
  8 10  1  0  0  0
  8 29  1  0  0  0
  8 30  1  0  0  0
  9 10  1  0  0  0
  9 12  1  0  0  0
  9 31  1  0  0  0
 10 14  1  0  0  0
 10 32  1  0  0  0
 11 12  1  0  0  0
 11 13  1  0  0  0
 11 33  1  0  0  0
 11 34  1  0  0  0
 12 35  1  0  0  0
 12 36  1  0  0  0
 13 14  1  0  0  0
 13 17  1  0  0  0
 13 21  1  0  0  0
 14 15  1  0  0  0
 14 37  1  0  0  0
 15 16  1  0  0  0
 15 38  1  0  0  0
 15 39  1  0  0  0
 16 17  1  0  0  0
 16 40  1  0  0  0
 16 41  1  0  0  0
 17 18  1  0  0  0
 17 20  1  0  0  0
 18 42  1  0  0  0
 19 43  1  0  0  0
 20 22  3  0  0  0
 21 44  1  0  0  0
 21 45  1  0  0  0
 21 46  1  0  0  0
 22 23  1  0  0  0
 23 47  1  0  0  0
 23 48  1  0  0  0
 23 49  1  0  0  0
M  END
>  <Name>
lit-36

>  <Family>
A.1

>  <RBA>
32,47

>  <RBA_avg>
40.000000

>  <Method>
RUC,LUC

>  <set>
0

$$$$
lit-37
  Cerius2 12180216403D 1   1.00000                          
 Structure written by MMmdl.
 46 49  0  0  0  0  0  0  0  0999 V2000
   -6.7804   -4.0954   16.7468 C   0  0  0  0  0  0
   -5.3984   -4.1279   16.6565 C   0  0  0  0  0  0
   -4.7778   -4.4368   15.4529 C   0  0  0  0  0  0
   -7.5548   -4.3671   15.6161 C   0  0  0  0  0  0
   -6.9589   -4.6612   14.3762 C   0  0  0  0  0  0
   -5.5486   -4.7207   14.3100 C   0  0  0  0  0  0
   -4.8135   -5.0308   13.0264 C   0  0  0  0  0  0
   -5.6989   -5.6129   11.9287 C   0  0  0  0  0  0
   -7.8084   -5.0030   13.1520 C   0  0  0  0  0  0
   -7.0010   -4.8142   11.8324 C   0  0  0  0  0  0
   -9.9878   -4.6217   11.8139 C   0  0  0  0  0  0
   -9.1778   -4.2772   13.0796 C   0  0  0  0  0  0
   -9.1675   -4.4211   10.5262 C   0  0  0  0  0  0
   -7.8699   -5.2525   10.6503 C   0  0  0  0  0  0
   -7.2757   -5.1994    9.2447 C   0  0  0  0  0  0
   -8.4963   -5.1433    8.3024 C   0  0  0  0  0  0
   -9.7527   -5.0058    9.2033 C   0  0  0  0  0  0
  -10.6971   -4.1209    8.6080 O   0  0  0  0  0  0
   -4.6742   -3.8539   17.7785 O   0  0  0  0  0  0
  -10.4096   -6.3182    9.3688 C   0  0  0  0  0  0
   -8.9153   -2.8941   10.3469 C   0  0  0  0  0  0
  -10.9405   -7.3877    9.4966 C   0  0  0  0  0  0
  -11.8197   -9.1754    9.7192 I   0  0  0  0  0  0
   -7.2657   -3.8644   17.6924 H   0  0  0  0  0  0
   -3.6913   -4.4634   15.3873 H   0  0  0  0  0  0
   -8.6364   -4.3502   15.7325 H   0  0  0  0  0  0
   -3.9968   -5.7347   13.2276 H   0  0  0  0  0  0
   -4.3625   -4.0978   12.6646 H   0  0  0  0  0  0
   -5.9189   -6.6663   12.1453 H   0  0  0  0  0  0
   -5.1475   -5.5908   10.9823 H   0  0  0  0  0  0
   -8.0325   -6.0763   13.2537 H   0  0  0  0  0  0
   -6.7288   -3.7575   11.7153 H   0  0  0  0  0  0
  -10.9022   -4.0170   11.7858 H   0  0  0  0  0  0
  -10.3110   -5.6649   11.9098 H   0  0  0  0  0  0
   -9.0305   -3.1931   13.1516 H   0  0  0  0  0  0
   -9.7987   -4.5551   13.9393 H   0  0  0  0  0  0
   -8.1365   -6.3056   10.8333 H   0  0  0  0  0  0
   -6.6554   -6.0768    9.0341 H   0  0  0  0  0  0
   -6.6489   -4.3113    9.1063 H   0  0  0  0  0  0
   -8.5343   -6.0404    7.6727 H   0  0  0  0  0  0
   -8.3974   -4.2898    7.6206 H   0  0  0  0  0  0
  -10.9032   -4.4951    7.7271 H   0  0  0  0  0  0
   -3.7211   -3.9176   17.5551 H   0  0  0  0  0  0
   -8.3500   -2.6656    9.4381 H   0  0  0  0  0  0
   -8.3630   -2.4510   11.1791 H   0  0  0  0  0  0
   -9.8666   -2.3531   10.2795 H   0  0  0  0  0  0
  1  2  2  0  0  0
  1  4  1  0  0  0
  1 24  1  0  0  0
  2  3  1  0  0  0
  2 19  1  0  0  0
  3  6  2  0  0  0
  3 25  1  0  0  0
  4  5  2  0  0  0
  4 26  1  0  0  0
  5  6  1  0  0  0
  5  9  1  0  0  0
  6  7  1  0  0  0
  7  8  1  0  0  0
  7 27  1  0  0  0
  7 28  1  0  0  0
  8 10  1  0  0  0
  8 29  1  0  0  0
  8 30  1  0  0  0
  9 10  1  0  0  0
  9 12  1  0  0  0
  9 31  1  0  0  0
 10 14  1  0  0  0
 10 32  1  0  0  0
 11 12  1  0  0  0
 11 13  1  0  0  0
 11 33  1  0  0  0
 11 34  1  0  0  0
 12 35  1  0  0  0
 12 36  1  0  0  0
 13 14  1  0  0  0
 13 17  1  0  0  0
 13 21  1  0  0  0
 14 15  1  0  0  0
 14 37  1  0  0  0
 15 16  1  0  0  0
 15 38  1  0  0  0
 15 39  1  0  0  0
 16 17  1  0  0  0
 16 40  1  0  0  0
 16 41  1  0  0  0
 17 18  1  0  0  0
 17 20  1  0  0  0
 18 42  1  0  0  0
 19 43  1  0  0  0
 20 22  3  0  0  0
 21 44  1  0  0  0
 21 45  1  0  0  0
 21 46  1  0  0  0
 22 23  1  0  0  0
M  END
>  <Name>
lit-37

>  <Family>
A.1

>  <RBA>
31.000000

>  <RBA_avg>
31.000000

>  <Method>
RUC

>  <set>
2

$$$$
lit-38
  Cerius2 12180216403D 1   1.00000                          
 Structure written by MMmdl.
 49 52  0  0  0  0  0  0  0  0999 V2000
   -6.7728   -4.0882   16.7472 C   0  0  0  0  0  0
   -5.3910   -4.1181   16.6523 C   0  0  0  0  0  0
   -4.7737   -4.4301   15.4478 C   0  0  0  0  0  0
   -7.5505   -4.3658   15.6202 C   0  0  0  0  0  0
   -6.9579   -4.6635   14.3796 C   0  0  0  0  0  0
   -5.5478   -4.7199   14.3086 C   0  0  0  0  0  0
   -4.8169   -5.0320   13.0232 C   0  0  0  0  0  0
   -5.7052   -5.6157   11.9284 C   0  0  0  0  0  0
   -7.8097   -5.0129   13.1595 C   0  0  0  0  0  0
   -7.0105   -4.8207   11.8368 C   0  0  0  0  0  0
   -9.9885   -4.6578   11.8253 C   0  0  0  0  0  0
   -9.1829   -4.2973   13.0892 C   0  0  0  0  0  0
   -9.1869   -4.4347   10.5313 C   0  0  0  0  0  0
   -7.8824   -5.2576   10.6536 C   0  0  0  0  0  0
   -7.2803   -5.1850    9.2567 C   0  0  0  0  0  0
   -8.4923   -5.1668    8.3109 C   0  0  0  0  0  0
   -9.7727   -5.0052    9.1901 C   0  0  0  0  0  0
  -10.6299   -4.0454    8.5498 O   0  0  0  0  0  0
   -4.6636   -3.8387   17.7710 O   0  0  0  0  0  0
  -10.5193   -6.3665    9.2656 C   0  0  0  0  0  0
   -8.9395   -2.9045   10.3704 C   0  0  0  0  0  0
  -11.8648   -6.2760    9.8645 C   0  0  0  0  0  0
  -12.9610   -6.2093   10.3497 C   0  0  0  0  0  0
  -14.7858   -6.0929   11.1716 I   0  0  0  0  0  0
   -7.2554   -3.8545   17.6936 H   0  0  0  0  0  0
   -3.6874   -4.4543   15.3785 H   0  0  0  0  0  0
   -8.6317   -4.3504   15.7398 H   0  0  0  0  0  0
   -3.9995   -5.7355   13.2231 H   0  0  0  0  0  0
   -4.3671   -4.0995   12.6588 H   0  0  0  0  0  0
   -5.9213   -6.6699   12.1447 H   0  0  0  0  0  0
   -5.1564   -5.5913   10.9805 H   0  0  0  0  0  0
   -8.0260   -6.0876   13.2637 H   0  0  0  0  0  0
   -6.7403   -3.7634   11.7208 H   0  0  0  0  0  0
  -10.9189   -4.0782   11.8079 H   0  0  0  0  0  0
  -10.2701   -5.7121   11.9238 H   0  0  0  0  0  0
   -9.0461   -3.2118   13.1581 H   0  0  0  0  0  0
   -9.7999   -4.5792   13.9504 H   0  0  0  0  0  0
   -8.1401   -6.3131   10.8286 H   0  0  0  0  0  0
   -6.6303   -6.0411    9.0478 H   0  0  0  0  0  0
   -6.6809   -4.2773    9.1238 H   0  0  0  0  0  0
   -8.5200   -6.0899    7.7205 H   0  0  0  0  0  0
   -8.3901   -4.3448    7.5919 H   0  0  0  0  0  0
  -10.8833   -4.4224    7.6820 H   0  0  0  0  0  0
   -3.7111   -3.9013   17.5447 H   0  0  0  0  0  0
   -9.9247   -7.1167    9.7967 H   0  0  0  0  0  0
  -10.6591   -6.7482    8.2451 H   0  0  0  0  0  0
   -8.3919   -2.6632    9.4538 H   0  0  0  0  0  0
   -8.3722   -2.4706   11.1972 H   0  0  0  0  0  0
   -9.8930   -2.3647   10.3293 H   0  0  0  0  0  0
  1  2  2  0  0  0
  1  4  1  0  0  0
  1 25  1  0  0  0
  2  3  1  0  0  0
  2 19  1  0  0  0
  3  6  2  0  0  0
  3 26  1  0  0  0
  4  5  2  0  0  0
  4 27  1  0  0  0
  5  6  1  0  0  0
  5  9  1  0  0  0
  6  7  1  0  0  0
  7  8  1  0  0  0
  7 28  1  0  0  0
  7 29  1  0  0  0
  8 10  1  0  0  0
  8 30  1  0  0  0
  8 31  1  0  0  0
  9 10  1  0  0  0
  9 12  1  0  0  0
  9 32  1  0  0  0
 10 14  1  0  0  0
 10 33  1  0  0  0
 11 12  1  0  0  0
 11 13  1  0  0  0
 11 34  1  0  0  0
 11 35  1  0  0  0
 12 36  1  0  0  0
 12 37  1  0  0  0
 13 14  1  0  0  0
 13 17  1  0  0  0
 13 21  1  0  0  0
 14 15  1  0  0  0
 14 38  1  0  0  0
 15 16  1  0  0  0
 15 39  1  0  0  0
 15 40  1  0  0  0
 16 17  1  0  0  0
 16 41  1  0  0  0
 16 42  1  0  0  0
 17 18  1  0  0  0
 17 20  1  0  0  0
 18 43  1  0  0  0
 19 44  1  0  0  0
 20 22  1  0  0  0
 20 45  1  0  0  0
 20 46  1  0  0  0
 21 47  1  0  0  0
 21 48  1  0  0  0
 21 49  1  0  0  0
 22 23  3  0  0  0
 23 24  1  0  0  0
M  END
>  <Name>
lit-38

>  <Family>
A.1

>  <RBA>
28.000000

>  <RBA_avg>
28.000000

>  <Method>
RUC

>  <set>
1

$$$$
lit-39
  Cerius2 12180216403D 1   1.00000                          
 Structure written by MMmdl.
 51 54  0  0  0  0  0  0  0  0999 V2000
   -6.7727   -4.0826   16.7454 C   0  0  0  0  0  0
   -5.3910   -4.1147   16.6507 C   0  0  0  0  0  0
   -4.7740   -4.4311   15.4471 C   0  0  0  0  0  0
   -7.5508   -4.3621   15.6191 C   0  0  0  0  0  0
   -6.9585   -4.6639   14.3793 C   0  0  0  0  0  0
   -5.5484   -4.7226   14.3087 C   0  0  0  0  0  0
   -4.8179   -5.0391   13.0241 C   0  0  0  0  0  0
   -5.7071   -5.6219   11.9295 C   0  0  0  0  0  0
   -7.8105   -5.0149   13.1598 C   0  0  0  0  0  0
   -7.0110   -4.8246   11.8371 C   0  0  0  0  0  0
   -9.9873   -4.6646   11.8247 C   0  0  0  0  0  0
   -9.1841   -4.2996   13.0885 C   0  0  0  0  0  0
   -9.1875   -4.4376   10.5318 C   0  0  0  0  0  0
   -7.8822   -5.2596   10.6526 C   0  0  0  0  0  0
   -7.2779   -5.1814    9.2565 C   0  0  0  0  0  0
   -8.4879   -5.1534    8.3088 C   0  0  0  0  0  0
   -9.7695   -5.0030    9.1886 C   0  0  0  0  0  0
  -10.6325   -4.0442    8.5554 O   0  0  0  0  0  0
   -4.6633   -3.8329   17.7685 O   0  0  0  0  0  0
  -10.5179   -6.3696    9.2401 C   0  0  0  0  0  0
   -8.9408   -2.9062   10.3756 C   0  0  0  0  0  0
  -11.8890   -6.3461    9.8703 C   0  0  0  0  0  0
  -12.6369   -7.4363   10.0872 C   0  0  0  0  0  0
   -7.2551   -3.8456   17.6911 H   0  0  0  0  0  0
   -3.6878   -4.4570   15.3780 H   0  0  0  0  0  0
   -8.6320   -4.3447   15.7384 H   0  0  0  0  0  0
   -4.0025   -5.7445   13.2255 H   0  0  0  0  0  0
   -4.3653   -4.1084   12.6583 H   0  0  0  0  0  0
   -5.9253   -6.6755   12.1467 H   0  0  0  0  0  0
   -5.1580   -5.5995   10.9818 H   0  0  0  0  0  0
   -8.0267   -6.0895   13.2654 H   0  0  0  0  0  0
   -6.7387   -3.7678   11.7211 H   0  0  0  0  0  0
  -10.9240   -4.0954   11.8061 H   0  0  0  0  0  0
  -10.2551   -5.7210   11.9244 H   0  0  0  0  0  0
   -9.0489   -3.2140   13.1566 H   0  0  0  0  0  0
   -9.8010   -4.5818   13.9498 H   0  0  0  0  0  0
   -8.1401   -6.3157   10.8239 H   0  0  0  0  0  0
   -6.6306   -6.0387    9.0444 H   0  0  0  0  0  0
   -6.6750   -4.2752    9.1296 H   0  0  0  0  0  0
   -8.5142   -6.0696    7.7077 H   0  0  0  0  0  0
   -8.3859   -4.3231    7.5997 H   0  0  0  0  0  0
  -10.8704   -4.4117    7.6791 H   0  0  0  0  0  0
   -3.7107   -3.8965   17.5422 H   0  0  0  0  0  0
   -9.8908   -7.1342    9.7124 H   0  0  0  0  0  0
  -10.6833   -6.7028    8.2058 H   0  0  0  0  0  0
   -8.3949   -2.6614    9.4589 H   0  0  0  0  0  0
   -8.3717   -2.4745   11.2023 H   0  0  0  0  0  0
   -9.8946   -2.3667   10.3382 H   0  0  0  0  0  0
  -12.2916   -5.3699   10.1385 H   0  0  0  0  0  0
  -13.6239   -7.3552   10.5353 H   0  0  0  0  0  0
  -12.2897   -8.4329    9.8271 H   0  0  0  0  0  0
  1  2  2  0  0  0
  1  4  1  0  0  0
  1 24  1  0  0  0
  2  3  1  0  0  0
  2 19  1  0  0  0
  3  6  2  0  0  0
  3 25  1  0  0  0
  4  5  2  0  0  0
  4 26  1  0  0  0
  5  6  1  0  0  0
  5  9  1  0  0  0
  6  7  1  0  0  0
  7  8  1  0  0  0
  7 27  1  0  0  0
  7 28  1  0  0  0
  8 10  1  0  0  0
  8 29  1  0  0  0
  8 30  1  0  0  0
  9 10  1  0  0  0
  9 12  1  0  0  0
  9 31  1  0  0  0
 10 14  1  0  0  0
 10 32  1  0  0  0
 11 12  1  0  0  0
 11 13  1  0  0  0
 11 33  1  0  0  0
 11 34  1  0  0  0
 12 35  1  0  0  0
 12 36  1  0  0  0
 13 14  1  0  0  0
 13 17  1  0  0  0
 13 21  1  0  0  0
 14 15  1  0  0  0
 14 37  1  0  0  0
 15 16  1  0  0  0
 15 38  1  0  0  0
 15 39  1  0  0  0
 16 17  1  0  0  0
 16 40  1  0  0  0
 16 41  1  0  0  0
 17 18  1  0  0  0
 17 20  1  0  0  0
 18 42  1  0  0  0
 19 43  1  0  0  0
 20 22  1  0  0  0
 20 44  1  0  0  0
 20 45  1  0  0  0
 21 46  1  0  0  0
 21 47  1  0  0  0
 21 48  1  0  0  0
 22 23  2  0  0  0
 22 49  1  0  0  0
 23 50  1  0  0  0
 23 51  1  0  0  0
M  END
>  <Name>
lit-39

>  <Family>
A.1

>  <RBA>
18.000000

>  <RBA_avg>
18.000000

>  <Method>
RUC

>  <set>
1

$$$$
lit-40
  Cerius2 12180216403D 1   1.00000                          
 Structure written by MMmdl.
 54 58  0  0  0  0  0  0  0  0999 V2000
   -6.7742   -4.0885   16.7479 C   0  0  0  0  0  0
   -5.3924   -4.1209   16.6546 C   0  0  0  0  0  0
   -4.7742   -4.4327   15.4505 C   0  0  0  0  0  0
   -7.5511   -4.3636   15.6197 C   0  0  0  0  0  0
   -6.9576   -4.6613   14.3795 C   0  0  0  0  0  0
   -5.5474   -4.7201   14.3101 C   0  0  0  0  0  0
   -4.8152   -5.0326   13.0254 C   0  0  0  0  0  0
   -5.7030   -5.6148   11.9295 C   0  0  0  0  0  0
   -7.8089   -5.0087   13.1582 C   0  0  0  0  0  0
   -7.0064   -4.8172   11.8362 C   0  0  0  0  0  0
   -9.9913   -4.6409   11.8223 C   0  0  0  0  0  0
   -9.1836   -4.2934   13.0894 C   0  0  0  0  0  0
   -9.1793   -4.4283   10.5299 C   0  0  0  0  0  0
   -7.8790   -5.2564   10.6558 C   0  0  0  0  0  0
   -7.2794   -5.2165    9.2520 C   0  0  0  0  0  0
   -8.4875   -5.1223    8.2978 C   0  0  0  0  0  0
   -9.7669   -5.0088    9.1863 C   0  0  0  0  0  0
  -10.6743   -4.0901    8.5564 O   0  0  0  0  0  0
   -4.6658   -3.8439   17.7743 O   0  0  0  0  0  0
  -10.5473   -6.3241    9.3394 C   0  0  0  0  0  0
   -8.9175   -2.8992   10.3763 C   0  0  0  0  0  0
  -10.0488   -7.5683    8.9139 C   0  0  0  0  0  0
  -10.7863   -8.7451    9.0853 C   0  0  0  0  0  0
  -12.0395   -8.7065    9.6883 C   0  0  0  0  0  0
  -12.5565   -7.4914   10.1229 C   0  0  0  0  0  0
  -11.8188   -6.3168    9.9511 C   0  0  0  0  0  0
   -7.2576   -3.8549   17.6939 H   0  0  0  0  0  0
   -3.6879   -4.4588   15.3824 H   0  0  0  0  0  0
   -8.6324   -4.3463   15.7381 H   0  0  0  0  0  0
   -3.9990   -5.7371   13.2259 H   0  0  0  0  0  0
   -4.3639   -4.1005   12.6618 H   0  0  0  0  0  0
   -5.9216   -6.6685   12.1461 H   0  0  0  0  0  0
   -5.1534   -5.5921   10.9819 H   0  0  0  0  0  0
   -8.0260   -6.0833   13.2617 H   0  0  0  0  0  0
   -6.7344   -3.7605   11.7188 H   0  0  0  0  0  0
  -10.9126   -4.0468   11.7999 H   0  0  0  0  0  0
  -10.2967   -5.6894   11.9185 H   0  0  0  0  0  0
   -9.0467   -3.2086   13.1679 H   0  0  0  0  0  0
   -9.8013   -4.5813   13.9481 H   0  0  0  0  0  0
   -8.1436   -6.3057   10.8513 H   0  0  0  0  0  0
   -6.6836   -6.1116    9.0444 H   0  0  0  0  0  0
   -6.6251   -4.3473    9.1196 H   0  0  0  0  0  0
   -8.5176   -5.9681    7.6031 H   0  0  0  0  0  0
   -8.3615   -4.2371    7.6616 H   0  0  0  0  0  0
  -10.1544   -3.3347    8.2210 H   0  0  0  0  0  0
   -3.7132   -3.9081   17.5491 H   0  0  0  0  0  0
   -8.3316   -2.6617    9.4830 H   0  0  0  0  0  0
   -8.3786   -2.4671   11.2228 H   0  0  0  0  0  0
   -9.8654   -2.3536   10.3016 H   0  0  0  0  0  0
   -9.0694   -7.6548    8.4471 H   0  0  0  0  0  0
  -10.3756   -9.6953    8.7473 H   0  0  0  0  0  0
  -12.6108   -9.6232    9.8212 H   0  0  0  0  0  0
  -13.5349   -7.4536   10.5988 H   0  0  0  0  0  0
  -12.2467   -5.3796   10.3082 H   0  0  0  0  0  0
  1  2  2  0  0  0
  1  4  1  0  0  0
  1 27  1  0  0  0
  2  3  1  0  0  0
  2 19  1  0  0  0
  3  6  2  0  0  0
  3 28  1  0  0  0
  4  5  2  0  0  0
  4 29  1  0  0  0
  5  6  1  0  0  0
  5  9  1  0  0  0
  6  7  1  0  0  0
  7  8  1  0  0  0
  7 30  1  0  0  0
  7 31  1  0  0  0
  8 10  1  0  0  0
  8 32  1  0  0  0
  8 33  1  0  0  0
  9 10  1  0  0  0
  9 12  1  0  0  0
  9 34  1  0  0  0
 10 14  1  0  0  0
 10 35  1  0  0  0
 11 12  1  0  0  0
 11 13  1  0  0  0
 11 36  1  0  0  0
 11 37  1  0  0  0
 12 38  1  0  0  0
 12 39  1  0  0  0
 13 14  1  0  0  0
 13 17  1  0  0  0
 13 21  1  0  0  0
 14 15  1  0  0  0
 14 40  1  0  0  0
 15 16  1  0  0  0
 15 41  1  0  0  0
 15 42  1  0  0  0
 16 17  1  0  0  0
 16 43  1  0  0  0
 16 44  1  0  0  0
 17 18  1  0  0  0
 17 20  1  0  0  0
 18 45  1  0  0  0
 19 46  1  0  0  0
 20 22  2  0  0  0
 20 26  1  0  0  0
 21 47  1  0  0  0
 21 48  1  0  0  0
 21 49  1  0  0  0
 22 23  1  0  0  0
 22 50  1  0  0  0
 23 24  2  0  0  0
 23 51  1  0  0  0
 24 25  1  0  0  0
 24 52  1  0  0  0
 25 26  2  0  0  0
 25 53  1  0  0  0
 26 54  1  0  0  0
M  END
>  <Name>
lit-40

>  <Family>
A.1

>  <RBA>
12,30

>  <RBA_avg>
21.000000

>  <Method>
RUC,LUC

>  <set>
2

$$$$
lit-41
  Cerius2 12180216403D 1   1.00000                          
 Structure written by MMmdl.
 54 58  0  0  0  0  0  0  0  0999 V2000
   -6.7723   -4.1013   16.7508 C   0  0  0  0  0  0
   -5.3905   -4.1215   16.6542 C   0  0  0  0  0  0
   -4.7725   -4.4228   15.4474 C   0  0  0  0  0  0
   -7.5494   -4.3776   15.6230 C   0  0  0  0  0  0
   -6.9563   -4.6644   14.3800 C   0  0  0  0  0  0
   -5.5460   -4.7115   14.3074 C   0  0  0  0  0  0
   -4.8147   -5.0129   13.0198 C   0  0  0  0  0  0
   -5.7006   -5.6007   11.9254 C   0  0  0  0  0  0
   -7.8078   -5.0121   13.1591 C   0  0  0  0  0  0
   -7.0111   -4.8135   11.8363 C   0  0  0  0  0  0
   -9.9919   -4.6532   11.8287 C   0  0  0  0  0  0
   -9.1805   -4.2969   13.0908 C   0  0  0  0  0  0
   -9.1950   -4.4456   10.5303 C   0  0  0  0  0  0
   -7.8836   -5.2574   10.6557 C   0  0  0  0  0  0
   -7.2870   -5.1812    9.2596 C   0  0  0  0  0  0
   -8.5023   -5.2268    8.3207 C   0  0  0  0  0  0
   -9.7916   -5.0057    9.1821 C   0  0  0  0  0  0
  -10.5945   -3.9994    8.5378 O   0  0  0  0  0  0
   -4.6638   -3.8433   17.7736 O   0  0  0  0  0  0
  -10.6372   -6.3181    9.2021 C   0  0  0  0  0  0
   -8.9434   -2.9122   10.3691 C   0  0  0  0  0  0
  -12.0670   -6.1844    9.6961 C   0  0  0  0  0  0
  -12.4087   -7.6047   10.0793 C   0  0  0  0  0  0
  -11.0719   -8.1603   10.4646 C   0  0  0  0  0  0
  -10.0654   -7.3749    9.9774 O   0  0  0  0  0  0
  -10.8756   -9.1881   11.0995 O   0  0  0  0  0  0
   -7.2554   -3.8762   17.6990 H   0  0  0  0  0  0
   -3.6862   -4.4397   15.3768 H   0  0  0  0  0  0
   -8.6306   -4.3704   15.7441 H   0  0  0  0  0  0
   -3.9909   -5.7100   13.2156 H   0  0  0  0  0  0
   -4.3737   -4.0754   12.6574 H   0  0  0  0  0  0
   -5.9099   -6.6565   12.1407 H   0  0  0  0  0  0
   -5.1529   -5.5715   10.9771 H   0  0  0  0  0  0
   -8.0227   -6.0872   13.2603 H   0  0  0  0  0  0
   -6.7463   -3.7551   11.7202 H   0  0  0  0  0  0
  -10.9110   -4.0558   11.8152 H   0  0  0  0  0  0
  -10.2942   -5.7000   11.9317 H   0  0  0  0  0  0
   -9.0424   -3.2115   13.1601 H   0  0  0  0  0  0
   -9.7963   -4.5777   13.9532 H   0  0  0  0  0  0
   -8.1246   -6.3133   10.8362 H   0  0  0  0  0  0
   -6.6035   -6.0127    9.0586 H   0  0  0  0  0  0
   -6.7245   -4.2525    9.1123 H   0  0  0  0  0  0
   -8.5250   -6.1937    7.8049 H   0  0  0  0  0  0
   -8.3981   -4.4618    7.5421 H   0  0  0  0  0  0
  -10.7437   -4.2919    7.6144 H   0  0  0  0  0  0
   -3.7111   -3.8979   17.5457 H   0  0  0  0  0  0
  -10.6951   -6.6867    8.1671 H   0  0  0  0  0  0
   -8.4047   -2.6722    9.4468 H   0  0  0  0  0  0
   -8.3676   -2.4800   11.1908 H   0  0  0  0  0  0
   -9.8953   -2.3686   10.3390 H   0  0  0  0  0  0
  -12.7421   -5.7810    8.9351 H   0  0  0  0  0  0
  -12.1461   -5.5405   10.5747 H   0  0  0  0  0  0
  -12.7992   -8.1713    9.2293 H   0  0  0  0  0  0
  -13.1062   -7.6371   10.9193 H   0  0  0  0  0  0
  1  2  2  0  0  0
  1  4  1  0  0  0
  1 27  1  0  0  0
  2  3  1  0  0  0
  2 19  1  0  0  0
  3  6  2  0  0  0
  3 28  1  0  0  0
  4  5  2  0  0  0
  4 29  1  0  0  0
  5  6  1  0  0  0
  5  9  1  0  0  0
  6  7  1  0  0  0
  7  8  1  0  0  0
  7 30  1  0  0  0
  7 31  1  0  0  0
  8 10  1  0  0  0
  8 32  1  0  0  0
  8 33  1  0  0  0
  9 10  1  0  0  0
  9 12  1  0  0  0
  9 34  1  0  0  0
 10 14  1  0  0  0
 10 35  1  0  0  0
 11 12  1  0  0  0
 11 13  1  0  0  0
 11 36  1  0  0  0
 11 37  1  0  0  0
 12 38  1  0  0  0
 12 39  1  0  0  0
 13 14  1  0  0  0
 13 17  1  0  0  0
 13 21  1  0  0  0
 14 15  1  0  0  0
 14 40  1  0  0  0
 15 16  1  0  0  0
 15 41  1  0  0  0
 15 42  1  0  0  0
 16 17  1  0  0  0
 16 43  1  0  0  0
 16 44  1  0  0  0
 17 18  1  0  0  0
 17 20  1  0  0  0
 18 45  1  0  0  0
 19 46  1  0  0  0
 20 22  1  0  0  0
 20 25  1  0  0  0
 20 47  1  0  0  0
 21 48  1  0  0  0
 21 49  1  0  0  0
 21 50  1  0  0  0
 22 23  1  0  0  0
 22 51  1  0  0  0
 22 52  1  0  0  0
 23 24  1  0  0  0
 23 53  1  0  0  0
 23 54  1  0  0  0
 24 25  1  0  0  0
 24 26  2  0  0  0
M  END
>  <Name>
lit-41

>  <Family>
A.1

>  <RBA>
8.300000

>  <RBA_avg>
8.300000

>  <Method>
RUC

>  <set>
2

$$$$
lit-42
  Cerius2 12180216403D 1   1.00000                          
 Structure written by MMmdl.
 49 53  0  0  0  0  0  0  0  0999 V2000
   -6.7735   -4.0838   16.7468 C   0  0  0  0  0  0
   -5.3920   -4.1206   16.6528 C   0  0  0  0  0  0
   -4.7755   -4.4373   15.4493 C   0  0  0  0  0  0
   -7.5519   -4.3582   15.6193 C   0  0  0  0  0  0
   -6.9601   -4.6591   14.3788 C   0  0  0  0  0  0
   -5.5503   -4.7243   14.3098 C   0  0  0  0  0  0
   -4.8200   -5.0450   13.0263 C   0  0  0  0  0  0
   -5.7111   -5.6339   11.9372 C   0  0  0  0  0  0
   -7.8148   -5.0018   13.1580 C   0  0  0  0  0  0
   -7.0101   -4.8295   11.8358 C   0  0  0  0  0  0
   -9.9925   -4.6243   11.8269 C   0  0  0  0  0  0
   -9.1734   -4.2587   13.0819 C   0  0  0  0  0  0
   -9.1857   -4.4602   10.5258 C   0  0  0  0  0  0
   -7.8771   -5.2706   10.6504 C   0  0  0  0  0  0
   -7.2643   -5.1891    9.2533 C   0  0  0  0  0  0
   -8.4613   -5.0593    8.2934 C   0  0  0  0  0  0
   -9.7514   -5.0271    9.1751 C   0  0  0  0  0  0
  -10.6930   -4.1110    8.6049 O   0  0  0  0  0  0
   -4.6639   -3.8435   17.7716 O   0  0  0  0  0  0
  -10.4016   -6.3990    9.1297 C   0  0  0  0  0  0
   -8.9331   -2.9227   10.3544 C   0  0  0  0  0  0
  -11.6928   -6.6859    9.8553 C   0  0  0  0  0  0
  -10.4314   -7.2098   10.3038 O   0  0  0  0  0  0
   -7.2558   -3.8472   17.6926 H   0  0  0  0  0  0
   -3.6893   -4.4678   15.3808 H   0  0  0  0  0  0
   -8.6330   -4.3379   15.7385 H   0  0  0  0  0  0
   -4.0042   -5.7492   13.2298 H   0  0  0  0  0  0
   -4.3686   -4.1158   12.6559 H   0  0  0  0  0  0
   -5.9360   -6.6839   12.1650 H   0  0  0  0  0  0
   -5.1613   -5.6245   10.9895 H   0  0  0  0  0  0
   -8.0504   -6.0718   13.2672 H   0  0  0  0  0  0
   -6.7318   -3.7752   11.7110 H   0  0  0  0  0  0
  -10.9051   -4.0174   11.7935 H   0  0  0  0  0  0
  -10.3143   -5.6556   11.9758 H   0  0  0  0  0  0
   -9.0152   -3.1756   13.1370 H   0  0  0  0  0  0
   -9.7935   -4.5144   13.9491 H   0  0  0  0  0  0
   -8.1260   -6.3281   10.8211 H   0  0  0  0  0  0
   -6.6722   -6.0818    9.0254 H   0  0  0  0  0  0
   -6.6031   -4.3213    9.1511 H   0  0  0  0  0  0
   -8.4585   -5.8855    7.5736 H   0  0  0  0  0  0
   -8.3641   -4.1437    7.6971 H   0  0  0  0  0  0
  -10.8216   -4.3829    7.6733 H   0  0  0  0  0  0
   -3.7116   -3.9109   17.5457 H   0  0  0  0  0  0
  -10.2893   -6.8942    8.1720 H   0  0  0  0  0  0
   -8.3673   -2.6801    9.4502 H   0  0  0  0  0  0
   -8.3788   -2.4827   11.1867 H   0  0  0  0  0  0
   -9.8852   -2.3823   10.2926 H   0  0  0  0  0  0
  -12.3906   -7.3832    9.4091 H   0  0  0  0  0  0
  -12.1561   -5.8943   10.4303 H   0  0  0  0  0  0
  1  2  2  0  0  0
  1  4  1  0  0  0
  1 24  1  0  0  0
  2  3  1  0  0  0
  2 19  1  0  0  0
  3  6  2  0  0  0
  3 25  1  0  0  0
  4  5  2  0  0  0
  4 26  1  0  0  0
  5  6  1  0  0  0
  5  9  1  0  0  0
  6  7  1  0  0  0
  7  8  1  0  0  0
  7 27  1  0  0  0
  7 28  1  0  0  0
  8 10  1  0  0  0
  8 29  1  0  0  0
  8 30  1  0  0  0
  9 10  1  0  0  0
  9 12  1  0  0  0
  9 31  1  0  0  0
 10 14  1  0  0  0
 10 32  1  0  0  0
 11 12  1  0  0  0
 11 13  1  0  0  0
 11 33  1  0  0  0
 11 34  1  0  0  0
 12 35  1  0  0  0
 12 36  1  0  0  0
 13 14  1  0  0  0
 13 17  1  0  0  0
 13 21  1  0  0  0
 14 15  1  0  0  0
 14 37  1  0  0  0
 15 16  1  0  0  0
 15 38  1  0  0  0
 15 39  1  0  0  0
 16 17  1  0  0  0
 16 40  1  0  0  0
 16 41  1  0  0  0
 17 18  1  0  0  0
 17 20  1  0  0  0
 18 42  1  0  0  0
 19 43  1  0  0  0
 20 22  1  0  0  0
 20 23  1  0  0  0
 20 44  1  0  0  0
 21 45  1  0  0  0
 21 46  1  0  0  0
 21 47  1  0  0  0
 22 23  1  0  0  0
 22 48  1  0  0  0
 22 49  1  0  0  0
M  END
>  <Name>
lit-42

>  <Family>
A.1

>  <RBA>
7.900000

>  <RBA_avg>
7.900000

>  <Method>
RUC

>  <set>
1

$$$$
lit-43
  Cerius2 12180216403D 1   1.00000                          
 Structure written by MMmdl.
 58 62  0  0  0  0  0  0  0  0999 V2000
   -6.7803   -4.0956   16.7469 C   0  0  0  0  0  0
   -5.3983   -4.1277   16.6565 C   0  0  0  0  0  0
   -4.7776   -4.4365   15.4529 C   0  0  0  0  0  0
   -7.5548   -4.3671   15.6162 C   0  0  0  0  0  0
   -6.9588   -4.6610   14.3762 C   0  0  0  0  0  0
   -5.5484   -4.7205   14.3100 C   0  0  0  0  0  0
   -4.8135   -5.0307   13.0264 C   0  0  0  0  0  0
   -5.6989   -5.6130   11.9288 C   0  0  0  0  0  0
   -7.8084   -5.0031   13.1521 C   0  0  0  0  0  0
   -7.0012   -4.8144   11.8324 C   0  0  0  0  0  0
   -9.9879   -4.6225   11.8139 C   0  0  0  0  0  0
   -9.1781   -4.2777   13.0797 C   0  0  0  0  0  0
   -9.1678   -4.4214   10.5263 C   0  0  0  0  0  0
   -7.8702   -5.2527   10.6503 C   0  0  0  0  0  0
   -7.2759   -5.1996    9.2448 C   0  0  0  0  0  0
   -8.4963   -5.1436    8.3025 C   0  0  0  0  0  0
   -9.7529   -5.0056    9.2032 C   0  0  0  0  0  0
  -10.6961   -4.1193    8.6071 O   0  0  0  0  0  0
   -4.6740   -3.8536   17.7785 O   0  0  0  0  0  0
  -10.4115   -6.3176    9.3674 C   0  0  0  0  0  0
   -8.9155   -2.8944   10.3474 C   0  0  0  0  0  0
  -10.9458   -7.3860    9.4913 C   0  0  0  0  0  0
  -11.5546   -8.6069    9.6355 C   0  0  0  0  0  0
  -12.0875   -9.6756    9.7617 C   0  0  0  0  0  0
  -12.7223  -10.9487    9.9115 C   0  0  0  0  0  0
  -13.8857  -11.0656   10.6762 C   0  0  0  0  0  0
  -14.5048  -12.3091   10.8219 C   0  0  0  0  0  0
  -13.9623  -13.4357   10.2042 C   0  0  0  0  0  0
  -12.8010  -13.3211    9.4402 C   0  0  0  0  0  0
  -12.1806  -12.0785    9.2934 C   0  0  0  0  0  0
   -7.2656   -3.8648   17.6927 H   0  0  0  0  0  0
   -3.6912   -4.4628   15.3871 H   0  0  0  0  0  0
   -8.6364   -4.3501   15.7325 H   0  0  0  0  0  0
   -3.9968   -5.7346   13.2275 H   0  0  0  0  0  0
   -4.3625   -4.0979   12.6645 H   0  0  0  0  0  0
   -5.9189   -6.6664   12.1456 H   0  0  0  0  0  0
   -5.1476   -5.5910   10.9823 H   0  0  0  0  0  0
   -8.0323   -6.0764   13.2539 H   0  0  0  0  0  0
   -6.7289   -3.7577   11.7151 H   0  0  0  0  0  0
  -10.9025   -4.0179   11.7859 H   0  0  0  0  0  0
  -10.3110   -5.6657   11.9095 H   0  0  0  0  0  0
   -9.0311   -3.1936   13.1519 H   0  0  0  0  0  0
   -9.7989   -4.5559   13.9393 H   0  0  0  0  0  0
   -8.1367   -6.3059   10.8332 H   0  0  0  0  0  0
   -6.6555   -6.0769    9.0342 H   0  0  0  0  0  0
   -6.6491   -4.3114    9.1065 H   0  0  0  0  0  0
   -8.5344   -6.0408    7.6730 H   0  0  0  0  0  0
   -8.3973   -4.2903    7.6204 H   0  0  0  0  0  0
  -10.9058   -4.4968    7.7285 H   0  0  0  0  0  0
   -3.7208   -3.9166   17.5549 H   0  0  0  0  0  0
   -8.3504   -2.6656    9.4386 H   0  0  0  0  0  0
   -8.3630   -2.4515   11.1798 H   0  0  0  0  0  0
   -9.8668   -2.3534   10.2803 H   0  0  0  0  0  0
  -14.3188  -10.1935   11.1632 H   0  0  0  0  0  0
  -15.4113  -12.3985   11.4182 H   0  0  0  0  0  0
  -14.4454  -14.4048   10.3183 H   0  0  0  0  0  0
  -12.3776  -14.2005    8.9581 H   0  0  0  0  0  0
  -11.2745  -12.0019    8.6945 H   0  0  0  0  0  0
  1  2  2  0  0  0
  1  4  1  0  0  0
  1 31  1  0  0  0
  2  3  1  0  0  0
  2 19  1  0  0  0
  3  6  2  0  0  0
  3 32  1  0  0  0
  4  5  2  0  0  0
  4 33  1  0  0  0
  5  6  1  0  0  0
  5  9  1  0  0  0
  6  7  1  0  0  0
  7  8  1  0  0  0
  7 34  1  0  0  0
  7 35  1  0  0  0
  8 10  1  0  0  0
  8 36  1  0  0  0
  8 37  1  0  0  0
  9 10  1  0  0  0
  9 12  1  0  0  0
  9 38  1  0  0  0
 10 14  1  0  0  0
 10 39  1  0  0  0
 11 12  1  0  0  0
 11 13  1  0  0  0
 11 40  1  0  0  0
 11 41  1  0  0  0
 12 42  1  0  0  0
 12 43  1  0  0  0
 13 14  1  0  0  0
 13 17  1  0  0  0
 13 21  1  0  0  0
 14 15  1  0  0  0
 14 44  1  0  0  0
 15 16  1  0  0  0
 15 45  1  0  0  0
 15 46  1  0  0  0
 16 17  1  0  0  0
 16 47  1  0  0  0
 16 48  1  0  0  0
 17 18  1  0  0  0
 17 20  1  0  0  0
 18 49  1  0  0  0
 19 50  1  0  0  0
 20 22  3  0  0  0
 21 51  1  0  0  0
 21 52  1  0  0  0
 21 53  1  0  0  0
 22 23  1  0  0  0
 23 24  3  0  0  0
 24 25  1  0  0  0
 25 26  2  0  0  0
 25 30  1  0  0  0
 26 27  1  0  0  0
 26 54  1  0  0  0
 27 28  2  0  0  0
 27 55  1  0  0  0
 28 29  1  0  0  0
 28 56  1  0  0  0
 29 30  2  0  0  0
 29 57  1  0  0  0
 30 58  1  0  0  0
M  END
>  <Name>
lit-43

>  <Family>
A.1

>  <RBA>
7.100000

>  <RBA_avg>
7.100000

>  <Method>
RUC

>  <set>
0

$$$$
lit-44
  Cerius2 12180216403D 1   1.00000                          
 Structure written by MMmdl.
 50 53  0  0  0  0  0  0  0  0999 V2000
   -6.7800   -4.0950   16.7469 C   0  0  0  0  0  0
   -5.3980   -4.1278   16.6564 C   0  0  0  0  0  0
   -4.7776   -4.4369   15.4528 C   0  0  0  0  0  0
   -7.5547   -4.3665   15.6162 C   0  0  0  0  0  0
   -6.9589   -4.6609   14.3763 C   0  0  0  0  0  0
   -5.5486   -4.7206   14.3100 C   0  0  0  0  0  0
   -4.8137   -5.0309   13.0263 C   0  0  0  0  0  0
   -5.6991   -5.6128   11.9286 C   0  0  0  0  0  0
   -7.8086   -5.0031   13.1522 C   0  0  0  0  0  0
   -7.0014   -4.8143   11.8325 C   0  0  0  0  0  0
   -9.9881   -4.6227   11.8140 C   0  0  0  0  0  0
   -9.1783   -4.2779   13.0799 C   0  0  0  0  0  0
   -9.1680   -4.4214   10.5265 C   0  0  0  0  0  0
   -7.8703   -5.2525   10.6503 C   0  0  0  0  0  0
   -7.2757   -5.1984    9.2449 C   0  0  0  0  0  0
   -8.4963   -5.1446    8.3027 C   0  0  0  0  0  0
   -9.7529   -5.0055    9.2034 C   0  0  0  0  0  0
  -10.6952   -4.1196    8.6056 O   0  0  0  0  0  0
   -4.6737   -3.8543   17.7784 O   0  0  0  0  0  0
  -10.4148   -6.3184    9.3661 C   0  0  0  0  0  0
   -8.9161   -2.8943   10.3478 C   0  0  0  0  0  0
  -10.9571   -7.3851    9.4868 C   0  0  0  0  0  0
  -11.6175   -8.6837    9.6341 C   0  0  0  0  0  0
  -11.8824   -8.9111   11.0165 O   0  0  0  0  0  0
   -7.2652   -3.8639   17.6926 H   0  0  0  0  0  0
   -3.6911   -4.4636   15.3870 H   0  0  0  0  0  0
   -8.6362   -4.3492   15.7327 H   0  0  0  0  0  0
   -3.9971   -5.7349   13.2274 H   0  0  0  0  0  0
   -4.3625   -4.0980   12.6646 H   0  0  0  0  0  0
   -5.9190   -6.6663   12.1451 H   0  0  0  0  0  0
   -5.1478   -5.5906   10.9822 H   0  0  0  0  0  0
   -8.0323   -6.0766   13.2540 H   0  0  0  0  0  0
   -6.7292   -3.7576   11.7154 H   0  0  0  0  0  0
  -10.9029   -4.0186   11.7864 H   0  0  0  0  0  0
  -10.3107   -5.6662   11.9094 H   0  0  0  0  0  0
   -9.0314   -3.1938   13.1520 H   0  0  0  0  0  0
   -9.7989   -4.5563   13.9396 H   0  0  0  0  0  0
   -8.1369   -6.3058   10.8327 H   0  0  0  0  0  0
   -6.6536   -6.0746    9.0343 H   0  0  0  0  0  0
   -6.6506   -4.3091    9.1067 H   0  0  0  0  0  0
   -8.5341   -6.0434    7.6753 H   0  0  0  0  0  0
   -8.3976   -4.2928    7.6188 H   0  0  0  0  0  0
  -10.9233   -4.5135    7.7388 H   0  0  0  0  0  0
   -3.7205   -3.9184   17.5550 H   0  0  0  0  0  0
   -8.3517   -2.6653    9.4385 H   0  0  0  0  0  0
   -8.3630   -2.4514   11.1798 H   0  0  0  0  0  0
   -9.8676   -2.3533   10.2813 H   0  0  0  0  0  0
  -10.9779   -9.4908    9.2646 H   0  0  0  0  0  0
  -12.5662   -8.7032    9.0897 H   0  0  0  0  0  0
  -12.3223   -9.7866   11.0432 H   0  0  0  0  0  0
  1  2  2  0  0  0
  1  4  1  0  0  0
  1 25  1  0  0  0
  2  3  1  0  0  0
  2 19  1  0  0  0
  3  6  2  0  0  0
  3 26  1  0  0  0
  4  5  2  0  0  0
  4 27  1  0  0  0
  5  6  1  0  0  0
  5  9  1  0  0  0
  6  7  1  0  0  0
  7  8  1  0  0  0
  7 28  1  0  0  0
  7 29  1  0  0  0
  8 10  1  0  0  0
  8 30  1  0  0  0
  8 31  1  0  0  0
  9 10  1  0  0  0
  9 12  1  0  0  0
  9 32  1  0  0  0
 10 14  1  0  0  0
 10 33  1  0  0  0
 11 12  1  0  0  0
 11 13  1  0  0  0
 11 34  1  0  0  0
 11 35  1  0  0  0
 12 36  1  0  0  0
 12 37  1  0  0  0
 13 14  1  0  0  0
 13 17  1  0  0  0
 13 21  1  0  0  0
 14 15  1  0  0  0
 14 38  1  0  0  0
 15 16  1  0  0  0
 15 39  1  0  0  0
 15 40  1  0  0  0
 16 17  1  0  0  0
 16 41  1  0  0  0
 16 42  1  0  0  0
 17 18  1  0  0  0
 17 20  1  0  0  0
 18 43  1  0  0  0
 19 44  1  0  0  0
 20 22  3  0  0  0
 21 45  1  0  0  0
 21 46  1  0  0  0
 21 47  1  0  0  0
 22 23  1  0  0  0
 23 24  1  0  0  0
 23 48  1  0  0  0
 23 49  1  0  0  0
 24 50  1  0  0  0
M  END
>  <Name>
lit-44

>  <Family>
A.1

>  <RBA>
6.500000

>  <RBA_avg>
6.500000

>  <Method>
RUC

>  <set>
1

$$$$
lit-45
  Cerius2 12180216403D 1   1.00000                          
 Structure written by MMmdl.
 56 60  0  0  0  0  0  0  0  0999 V2000
   -6.7802   -4.0977   16.7476 C   0  0  0  0  0  0
   -5.3982   -4.1289   16.6570 C   0  0  0  0  0  0
   -4.7775   -4.4360   15.4530 C   0  0  0  0  0  0
   -7.5547   -4.3685   15.6167 C   0  0  0  0  0  0
   -6.9588   -4.6607   14.3762 C   0  0  0  0  0  0
   -5.5484   -4.7194   14.3099 C   0  0  0  0  0  0
   -4.8135   -5.0282   13.0258 C   0  0  0  0  0  0
   -5.6987   -5.6114   11.9286 C   0  0  0  0  0  0
   -7.8085   -5.0021   13.1520 C   0  0  0  0  0  0
   -7.0013   -4.8135   11.8322 C   0  0  0  0  0  0
   -9.9879   -4.6201   11.8140 C   0  0  0  0  0  0
   -9.1776   -4.2755   13.0795 C   0  0  0  0  0  0
   -9.1676   -4.4206   10.5262 C   0  0  0  0  0  0
   -7.8703   -5.2525   10.6507 C   0  0  0  0  0  0
   -7.2763   -5.2012    9.2449 C   0  0  0  0  0  0
   -8.4971   -5.1463    8.3029 C   0  0  0  0  0  0
   -9.7532   -5.0062    9.2039 C   0  0  0  0  0  0
  -10.6962   -4.1213    8.6061 O   0  0  0  0  0  0
   -4.6740   -3.8559   17.7792 O   0  0  0  0  0  0
  -10.4111   -6.3185    9.3709 C   0  0  0  0  0  0
   -8.9149   -2.8940   10.3455 C   0  0  0  0  0  0
  -10.9424   -7.3887    9.5011 C   0  0  0  0  0  0
  -11.5696   -8.6636    9.6635 C   0  0  0  0  0  0
  -12.7037   -8.7881   10.4697 C   0  0  0  0  0  0
  -13.3147  -10.0337   10.6291 C   0  0  0  0  0  0
  -12.7930  -11.1549    9.9840 C   0  0  0  0  0  0
  -11.6606  -11.0325    9.1790 C   0  0  0  0  0  0
  -11.0483   -9.7876    9.0183 C   0  0  0  0  0  0
   -7.2654   -3.8685   17.6938 H   0  0  0  0  0  0
   -3.6910   -4.4615   15.3870 H   0  0  0  0  0  0
   -8.6362   -4.3527   15.7332 H   0  0  0  0  0  0
   -3.9957   -5.7310   13.2264 H   0  0  0  0  0  0
   -4.3640   -4.0945   12.6640 H   0  0  0  0  0  0
   -5.9179   -6.6649   12.1455 H   0  0  0  0  0  0
   -5.1475   -5.5892   10.9820 H   0  0  0  0  0  0
   -8.0331   -6.0753   13.2536 H   0  0  0  0  0  0
   -6.7295   -3.7569   11.7146 H   0  0  0  0  0  0
  -10.9020   -4.0148   11.7859 H   0  0  0  0  0  0
  -10.3120   -5.6630   11.9105 H   0  0  0  0  0  0
   -9.0295   -3.1915   13.1509 H   0  0  0  0  0  0
   -9.7985   -4.5526   13.9393 H   0  0  0  0  0  0
   -8.1375   -6.3055   10.8346 H   0  0  0  0  0  0
   -6.6560   -6.0788    9.0353 H   0  0  0  0  0  0
   -6.6496   -4.3132    9.1055 H   0  0  0  0  0  0
   -8.5357   -6.0449    7.6754 H   0  0  0  0  0  0
   -8.3979   -4.2945    7.6191 H   0  0  0  0  0  0
  -10.9207   -4.5122    7.7371 H   0  0  0  0  0  0
   -3.7208   -3.9188   17.5558 H   0  0  0  0  0  0
   -8.3494   -2.6665    9.4365 H   0  0  0  0  0  0
   -8.3624   -2.4503   11.1775 H   0  0  0  0  0  0
   -9.8659   -2.3527   10.2776 H   0  0  0  0  0  0
  -13.1192   -7.9197   10.9783 H   0  0  0  0  0  0
  -14.1985  -10.1292   11.2577 H   0  0  0  0  0  0
  -13.2698  -12.1257   10.1088 H   0  0  0  0  0  0
  -11.2532  -11.9077    8.6757 H   0  0  0  0  0  0
  -10.1646   -9.7040    8.3879 H   0  0  0  0  0  0
  1  2  2  0  0  0
  1  4  1  0  0  0
  1 29  1  0  0  0
  2  3  1  0  0  0
  2 19  1  0  0  0
  3  6  2  0  0  0
  3 30  1  0  0  0
  4  5  2  0  0  0
  4 31  1  0  0  0
  5  6  1  0  0  0
  5  9  1  0  0  0
  6  7  1  0  0  0
  7  8  1  0  0  0
  7 32  1  0  0  0
  7 33  1  0  0  0
  8 10  1  0  0  0
  8 34  1  0  0  0
  8 35  1  0  0  0
  9 10  1  0  0  0
  9 12  1  0  0  0
  9 36  1  0  0  0
 10 14  1  0  0  0
 10 37  1  0  0  0
 11 12  1  0  0  0
 11 13  1  0  0  0
 11 38  1  0  0  0
 11 39  1  0  0  0
 12 40  1  0  0  0
 12 41  1  0  0  0
 13 14  1  0  0  0
 13 17  1  0  0  0
 13 21  1  0  0  0
 14 15  1  0  0  0
 14 42  1  0  0  0
 15 16  1  0  0  0
 15 43  1  0  0  0
 15 44  1  0  0  0
 16 17  1  0  0  0
 16 45  1  0  0  0
 16 46  1  0  0  0
 17 18  1  0  0  0
 17 20  1  0  0  0
 18 47  1  0  0  0
 19 48  1  0  0  0
 20 22  3  0  0  0
 21 49  1  0  0  0
 21 50  1  0  0  0
 21 51  1  0  0  0
 22 23  1  0  0  0
 23 24  2  0  0  0
 23 28  1  0  0  0
 24 25  1  0  0  0
 24 52  1  0  0  0
 25 26  2  0  0  0
 25 53  1  0  0  0
 26 27  1  0  0  0
 26 54  1  0  0  0
 27 28  2  0  0  0
 27 55  1  0  0  0
 28 56  1  0  0  0
M  END
>  <Name>
lit-45

>  <Family>
A.1

>  <RBA>
5.800000

>  <RBA_avg>
5.800000

>  <Method>
RUC

>  <set>
1

$$$$
lit-46
  Cerius2 12180216403D 1   1.00000                          
 Structure written by MMmdl.
 53 56  0  0  0  0  0  0  0  0999 V2000
   -6.7734   -4.0929   16.7484 C   0  0  0  0  0  0
   -5.3916   -4.1219   16.6537 C   0  0  0  0  0  0
   -4.7738   -4.4308   15.4486 C   0  0  0  0  0  0
   -7.5508   -4.3686   15.6205 C   0  0  0  0  0  0
   -6.9576   -4.6630   14.3793 C   0  0  0  0  0  0
   -5.5475   -4.7185   14.3087 C   0  0  0  0  0  0
   -4.8163   -5.0279   13.0228 C   0  0  0  0  0  0
   -5.7040   -5.6115   11.9277 C   0  0  0  0  0  0
   -7.8092   -5.0103   13.1584 C   0  0  0  0  0  0
   -7.0098   -4.8170   11.8364 C   0  0  0  0  0  0
   -9.9877   -4.6483   11.8236 C   0  0  0  0  0  0
   -9.1806   -4.2921   13.0876 C   0  0  0  0  0  0
   -9.1865   -4.4310   10.5292 C   0  0  0  0  0  0
   -7.8821   -5.2549   10.6542 C   0  0  0  0  0  0
   -7.2800   -5.1872    9.2577 C   0  0  0  0  0  0
   -8.4926   -5.1733    8.3135 C   0  0  0  0  0  0
   -9.7735   -5.0065    9.1910 C   0  0  0  0  0  0
  -10.6363   -4.0580    8.5548 O   0  0  0  0  0  0
   -4.6646   -3.8446   17.7732 O   0  0  0  0  0  0
   -8.9372   -2.9018   10.3625 C   0  0  0  0  0  0
  -12.6167   -7.6323    9.9143 C   0  0  0  0  0  0
  -12.0094   -6.2548    9.6899 C   0  0  0  0  0  0
  -10.5307   -6.3587    9.2875 C   0  0  0  0  0  0
   -7.2563   -3.8617   17.6952 H   0  0  0  0  0  0
   -3.6874   -4.4542   15.3795 H   0  0  0  0  0  0
   -8.6319   -4.3542   15.7400 H   0  0  0  0  0  0
   -3.9978   -5.7304   13.2216 H   0  0  0  0  0  0
   -4.3677   -4.0943   12.6594 H   0  0  0  0  0  0
   -5.9198   -6.6659   12.1436 H   0  0  0  0  0  0
   -5.1552   -5.5865   10.9799 H   0  0  0  0  0  0
   -8.0271   -6.0848   13.2614 H   0  0  0  0  0  0
   -6.7403   -3.7596   11.7202 H   0  0  0  0  0  0
  -10.9121   -4.0592   11.8070 H   0  0  0  0  0  0
  -10.2807   -5.7001   11.9191 H   0  0  0  0  0  0
   -9.0408   -3.2070   13.1570 H   0  0  0  0  0  0
   -9.7986   -4.5725   13.9486 H   0  0  0  0  0  0
   -8.1397   -6.3100   10.8313 H   0  0  0  0  0  0
   -6.6298   -6.0438    9.0518 H   0  0  0  0  0  0
   -6.6810   -4.2798    9.1214 H   0  0  0  0  0  0
   -8.5178   -6.0975    7.7253 H   0  0  0  0  0  0
   -8.3906   -4.3537    7.5918 H   0  0  0  0  0  0
  -10.8420   -4.4132    7.6654 H   0  0  0  0  0  0
   -3.7120   -3.9067   17.5470 H   0  0  0  0  0  0
   -8.3876   -2.6647    9.4460 H   0  0  0  0  0  0
   -8.3713   -2.4655   11.1891 H   0  0  0  0  0  0
   -9.8899   -2.3611   10.3171 H   0  0  0  0  0  0
  -13.6742   -7.5410   10.1816 H   0  0  0  0  0  0
  -12.1053   -8.1579   10.7271 H   0  0  0  0  0  0
  -12.5468   -8.2446    9.0096 H   0  0  0  0  0  0
  -12.1377   -5.6628   10.5986 H   0  0  0  0  0  0
  -12.5758   -5.7495    8.8991 H   0  0  0  0  0  0
  -10.0049   -7.0528    9.9516 H   0  0  0  0  0  0
  -10.5239   -6.8316    8.2955 H   0  0  0  0  0  0
  1  2  2  0  0  0
  1  4  1  0  0  0
  1 24  1  0  0  0
  2  3  1  0  0  0
  2 19  1  0  0  0
  3  6  2  0  0  0
  3 25  1  0  0  0
  4  5  2  0  0  0
  4 26  1  0  0  0
  5  6  1  0  0  0
  5  9  1  0  0  0
  6  7  1  0  0  0
  7  8  1  0  0  0
  7 27  1  0  0  0
  7 28  1  0  0  0
  8 10  1  0  0  0
  8 29  1  0  0  0
  8 30  1  0  0  0
  9 10  1  0  0  0
  9 12  1  0  0  0
  9 31  1  0  0  0
 10 14  1  0  0  0
 10 32  1  0  0  0
 11 12  1  0  0  0
 11 13  1  0  0  0
 11 33  1  0  0  0
 11 34  1  0  0  0
 12 35  1  0  0  0
 12 36  1  0  0  0
 13 14  1  0  0  0
 13 17  1  0  0  0
 13 20  1  0  0  0
 14 15  1  0  0  0
 14 37  1  0  0  0
 15 16  1  0  0  0
 15 38  1  0  0  0
 15 39  1  0  0  0
 16 17  1  0  0  0
 16 40  1  0  0  0
 16 41  1  0  0  0
 17 18  1  0  0  0
 17 23  1  0  0  0
 18 42  1  0  0  0
 19 43  1  0  0  0
 20 44  1  0  0  0
 20 45  1  0  0  0
 20 46  1  0  0  0
 21 22  1  0  0  0
 21 47  1  0  0  0
 21 48  1  0  0  0
 21 49  1  0  0  0
 22 23  1  0  0  0
 22 50  1  0  0  0
 22 51  1  0  0  0
 23 52  1  0  0  0
 23 53  1  0  0  0
M  END
>  <Name>
lit-46

>  <Family>
A.1

>  <RBA>
4.900000

>  <RBA_avg>
4.900000

>  <Method>
RUC

>  <set>
0

$$$$
lit-47
  Cerius2 12180216403D 1   1.00000                          
 Structure written by MMmdl.
 56 59  0  0  0  0  0  0  0  0999 V2000
   -6.7734   -4.0953   16.7492 C   0  0  0  0  0  0
   -5.3916   -4.1233   16.6543 C   0  0  0  0  0  0
   -4.7738   -4.4307   15.4489 C   0  0  0  0  0  0
   -7.5507   -4.3699   15.6211 C   0  0  0  0  0  0
   -6.9575   -4.6626   14.3795 C   0  0  0  0  0  0
   -5.5473   -4.7175   14.3087 C   0  0  0  0  0  0
   -4.8162   -5.0254   13.0225 C   0  0  0  0  0  0
   -5.7037   -5.6096   11.9275 C   0  0  0  0  0  0
   -7.8090   -5.0089   13.1583 C   0  0  0  0  0  0
   -7.0098   -4.8159   11.8361 C   0  0  0  0  0  0
   -9.9875   -4.6457   11.8238 C   0  0  0  0  0  0
   -9.1798   -4.2894   13.0874 C   0  0  0  0  0  0
   -9.1865   -4.4304   10.5289 C   0  0  0  0  0  0
   -7.8823   -5.2545   10.6545 C   0  0  0  0  0  0
   -7.2805   -5.1887    9.2579 C   0  0  0  0  0  0
   -8.4933   -5.1761    8.3139 C   0  0  0  0  0  0
   -9.7740   -5.0076    9.1914 C   0  0  0  0  0  0
  -10.6366   -4.0600    8.5540 O   0  0  0  0  0  0
   -4.6646   -3.8468   17.7740 O   0  0  0  0  0  0
   -8.9369   -2.9015   10.3602 C   0  0  0  0  0  0
  -12.6280   -7.6410    9.8879 C   0  0  0  0  0  0
  -12.0111   -6.2541    9.6936 C   0  0  0  0  0  0
  -10.5314   -6.3596    9.2906 C   0  0  0  0  0  0
  -14.0960   -7.5490   10.2725 C   0  0  0  0  0  0
   -7.2565   -3.8655   17.6962 H   0  0  0  0  0  0
   -3.6874   -4.4537   15.3797 H   0  0  0  0  0  0
   -8.6319   -4.3564   15.7406 H   0  0  0  0  0  0
   -3.9968   -5.7270   13.2206 H   0  0  0  0  0  0
   -4.3690   -4.0910   12.6594 H   0  0  0  0  0  0
   -5.9189   -6.6641   12.1436 H   0  0  0  0  0  0
   -5.1548   -5.5843   10.9796 H   0  0  0  0  0  0
   -8.0278   -6.0832   13.2610 H   0  0  0  0  0  0
   -6.7408   -3.7583   11.7196 H   0  0  0  0  0  0
  -10.9112   -4.0554   11.8072 H   0  0  0  0  0  0
  -10.2818   -5.6971   11.9205 H   0  0  0  0  0  0
   -9.0388   -3.2044   13.1559 H   0  0  0  0  0  0
   -9.7980   -4.5685   13.9487 H   0  0  0  0  0  0
   -8.1401   -6.3094   10.8328 H   0  0  0  0  0  0
   -6.6304   -6.0456    9.0529 H   0  0  0  0  0  0
   -6.6815   -4.2815    9.1201 H   0  0  0  0  0  0
   -8.5188   -6.1012    7.7271 H   0  0  0  0  0  0
   -8.3914   -4.3577    7.5908 H   0  0  0  0  0  0
  -10.8431   -4.4167    7.6655 H   0  0  0  0  0  0
   -3.7120   -3.9080   17.5476 H   0  0  0  0  0  0
   -8.3869   -2.6658    9.4437 H   0  0  0  0  0  0
   -8.3715   -2.4644   11.1865 H   0  0  0  0  0  0
   -9.8896   -2.3609   10.3136 H   0  0  0  0  0  0
  -12.0855   -8.1827   10.6713 H   0  0  0  0  0  0
  -12.5338   -8.2238    8.9642 H   0  0  0  0  0  0
  -12.1312   -5.6760   10.6128 H   0  0  0  0  0  0
  -12.5674   -5.7230    8.9117 H   0  0  0  0  0  0
  -10.0054   -7.0520    9.9563 H   0  0  0  0  0  0
  -10.5252   -6.8347    8.2998 H   0  0  0  0  0  0
  -14.5161   -8.5506   10.4071 H   0  0  0  0  0  0
  -14.6741   -7.0399    9.4947 H   0  0  0  0  0  0
  -14.2221   -6.9988   11.2104 H   0  0  0  0  0  0
  1  2  2  0  0  0
  1  4  1  0  0  0
  1 25  1  0  0  0
  2  3  1  0  0  0
  2 19  1  0  0  0
  3  6  2  0  0  0
  3 26  1  0  0  0
  4  5  2  0  0  0
  4 27  1  0  0  0
  5  6  1  0  0  0
  5  9  1  0  0  0
  6  7  1  0  0  0
  7  8  1  0  0  0
  7 28  1  0  0  0
  7 29  1  0  0  0
  8 10  1  0  0  0
  8 30  1  0  0  0
  8 31  1  0  0  0
  9 10  1  0  0  0
  9 12  1  0  0  0
  9 32  1  0  0  0
 10 14  1  0  0  0
 10 33  1  0  0  0
 11 12  1  0  0  0
 11 13  1  0  0  0
 11 34  1  0  0  0
 11 35  1  0  0  0
 12 36  1  0  0  0
 12 37  1  0  0  0
 13 14  1  0  0  0
 13 17  1  0  0  0
 13 20  1  0  0  0
 14 15  1  0  0  0
 14 38  1  0  0  0
 15 16  1  0  0  0
 15 39  1  0  0  0
 15 40  1  0  0  0
 16 17  1  0  0  0
 16 41  1  0  0  0
 16 42  1  0  0  0
 17 18  1  0  0  0
 17 23  1  0  0  0
 18 43  1  0  0  0
 19 44  1  0  0  0
 20 45  1  0  0  0
 20 46  1  0  0  0
 20 47  1  0  0  0
 21 22  1  0  0  0
 21 24  1  0  0  0
 21 48  1  0  0  0
 21 49  1  0  0  0
 22 23  1  0  0  0
 22 50  1  0  0  0
 22 51  1  0  0  0
 23 52  1  0  0  0
 23 53  1  0  0  0
 24 54  1  0  0  0
 24 55  1  0  0  0
 24 56  1  0  0  0
M  END
>  <Name>
lit-47

>  <Family>
A.1

>  <RBA>
4.700000

>  <RBA_avg>
4.700000

>  <Method>
RUC

>  <set>
1

$$$$
lit-48
  Cerius2 12180216403D 1   1.00000                          
 Structure written by MMmdl.
 58 61  0  0  0  0  0  0  0  0999 V2000
   -6.7798   -4.0969   16.7475 C   0  0  0  0  0  0
   -5.3978   -4.1288   16.6567 C   0  0  0  0  0  0
   -4.7776   -4.4367   15.4528 C   0  0  0  0  0  0
   -7.5547   -4.3681   15.6169 C   0  0  0  0  0  0
   -6.9590   -4.6610   14.3765 C   0  0  0  0  0  0
   -5.5487   -4.7200   14.3098 C   0  0  0  0  0  0
   -4.8138   -5.0287   13.0259 C   0  0  0  0  0  0
   -5.6992   -5.6113   11.9285 C   0  0  0  0  0  0
   -7.8088   -5.0025   13.1523 C   0  0  0  0  0  0
   -7.0017   -4.8132   11.8327 C   0  0  0  0  0  0
   -9.9880   -4.6211   11.8144 C   0  0  0  0  0  0
   -9.1779   -4.2762   13.0800 C   0  0  0  0  0  0
   -9.1679   -4.4203   10.5263 C   0  0  0  0  0  0
   -7.8705   -5.2518   10.6508 C   0  0  0  0  0  0
   -7.2760   -5.1997    9.2453 C   0  0  0  0  0  0
   -8.4968   -5.1479    8.3032 C   0  0  0  0  0  0
   -9.7528   -5.0057    9.2037 C   0  0  0  0  0  0
  -10.6949   -4.1211    8.6040 O   0  0  0  0  0  0
   -4.6733   -3.8554   17.7786 O   0  0  0  0  0  0
  -10.4148   -6.3180    9.3729 C   0  0  0  0  0  0
   -8.9160   -2.8935   10.3461 C   0  0  0  0  0  0
  -10.9556   -7.3826    9.5126 C   0  0  0  0  0  0
  -11.6175   -8.6825    9.7012 C   0  0  0  0  0  0
  -11.8407   -8.9708   11.1858 C   0  0  0  0  0  0
  -12.5416  -10.3150   11.3936 C   0  0  0  0  0  0
  -12.7608  -10.5981   12.8790 C   0  0  0  0  0  0
  -13.7499  -12.4796   13.1496 I   0  0  0  0  0  0
   -7.2647   -3.8668   17.6935 H   0  0  0  0  0  0
   -3.6911   -4.4627   15.3866 H   0  0  0  0  0  0
   -8.6361   -4.3515   15.7337 H   0  0  0  0  0  0
   -3.9962   -5.7317   13.2262 H   0  0  0  0  0  0
   -4.3642   -4.0950   12.6642 H   0  0  0  0  0  0
   -5.9186   -6.6648   12.1452 H   0  0  0  0  0  0
   -5.1480   -5.5888   10.9820 H   0  0  0  0  0  0
   -8.0331   -6.0758   13.2537 H   0  0  0  0  0  0
   -6.7300   -3.7563   11.7157 H   0  0  0  0  0  0
  -10.9027   -4.0170   11.7862 H   0  0  0  0  0  0
  -10.3106   -5.6645   11.9107 H   0  0  0  0  0  0
   -9.0302   -3.1923   13.1516 H   0  0  0  0  0  0
   -9.7989   -4.5538   13.9397 H   0  0  0  0  0  0
   -8.1374   -6.3050   10.8342 H   0  0  0  0  0  0
   -6.6536   -6.0758    9.0359 H   0  0  0  0  0  0
   -6.6515   -4.3101    9.1059 H   0  0  0  0  0  0
   -8.5355   -6.0484    7.6782 H   0  0  0  0  0  0
   -8.3978   -4.2979    7.6170 H   0  0  0  0  0  0
  -10.9331   -4.5242    7.7442 H   0  0  0  0  0  0
   -3.7201   -3.9193   17.5551 H   0  0  0  0  0  0
   -8.3526   -2.6653    9.4359 H   0  0  0  0  0  0
   -8.3620   -2.4500   11.1771 H   0  0  0  0  0  0
   -9.8673   -2.3526   10.2801 H   0  0  0  0  0  0
  -11.0031   -9.4737    9.2563 H   0  0  0  0  0  0
  -12.5778   -8.6836    9.1726 H   0  0  0  0  0  0
  -12.4427   -8.1691   11.6330 H   0  0  0  0  0  0
  -10.8773   -8.9718   11.7120 H   0  0  0  0  0  0
  -11.9377  -11.1137   10.9447 H   0  0  0  0  0  0
  -13.5044  -10.3079   10.8672 H   0  0  0  0  0  0
  -13.3665   -9.8037   13.3290 H   0  0  0  0  0  0
  -11.8000  -10.6160   13.4053 H   0  0  0  0  0  0
  1  2  2  0  0  0
  1  4  1  0  0  0
  1 28  1  0  0  0
  2  3  1  0  0  0
  2 19  1  0  0  0
  3  6  2  0  0  0
  3 29  1  0  0  0
  4  5  2  0  0  0
  4 30  1  0  0  0
  5  6  1  0  0  0
  5  9  1  0  0  0
  6  7  1  0  0  0
  7  8  1  0  0  0
  7 31  1  0  0  0
  7 32  1  0  0  0
  8 10  1  0  0  0
  8 33  1  0  0  0
  8 34  1  0  0  0
  9 10  1  0  0  0
  9 12  1  0  0  0
  9 35  1  0  0  0
 10 14  1  0  0  0
 10 36  1  0  0  0
 11 12  1  0  0  0
 11 13  1  0  0  0
 11 37  1  0  0  0
 11 38  1  0  0  0
 12 39  1  0  0  0
 12 40  1  0  0  0
 13 14  1  0  0  0
 13 17  1  0  0  0
 13 21  1  0  0  0
 14 15  1  0  0  0
 14 41  1  0  0  0
 15 16  1  0  0  0
 15 42  1  0  0  0
 15 43  1  0  0  0
 16 17  1  0  0  0
 16 44  1  0  0  0
 16 45  1  0  0  0
 17 18  1  0  0  0
 17 20  1  0  0  0
 18 46  1  0  0  0
 19 47  1  0  0  0
 20 22  3  0  0  0
 21 48  1  0  0  0
 21 49  1  0  0  0
 21 50  1  0  0  0
 22 23  1  0  0  0
 23 24  1  0  0  0
 23 51  1  0  0  0
 23 52  1  0  0  0
 24 25  1  0  0  0
 24 53  1  0  0  0
 24 54  1  0  0  0
 25 26  1  0  0  0
 25 55  1  0  0  0
 25 56  1  0  0  0
 26 27  1  0  0  0
 26 57  1  0  0  0
 26 58  1  0  0  0
M  END
>  <Name>
lit-48

>  <Family>
A.1

>  <RBA>
4.700000

>  <RBA_avg>
4.700000

>  <Method>
RUC

>  <set>
1

$$$$
lit-49
  Cerius2 12180216403D 1   1.00000                          
 Structure written by MMmdl.
 57 61  0  0  0  0  0  0  0  0999 V2000
   -6.7711   -4.0782   16.7451 C   0  0  0  0  0  0
   -5.3894   -4.1135   16.6502 C   0  0  0  0  0  0
   -4.7734   -4.4326   15.4469 C   0  0  0  0  0  0
   -7.5500   -4.3577   15.6193 C   0  0  0  0  0  0
   -6.9586   -4.6628   14.3799 C   0  0  0  0  0  0
   -5.5487   -4.7241   14.3089 C   0  0  0  0  0  0
   -4.8191   -5.0439   13.0246 C   0  0  0  0  0  0
   -5.7097   -5.6267   11.9313 C   0  0  0  0  0  0
   -7.8116   -5.0146   13.1613 C   0  0  0  0  0  0
   -7.0125   -4.8275   11.8380 C   0  0  0  0  0  0
   -9.9882   -4.6647   11.8266 C   0  0  0  0  0  0
   -9.1839   -4.2971   13.0894 C   0  0  0  0  0  0
   -9.1899   -4.4437   10.5319 C   0  0  0  0  0  0
   -7.8838   -5.2631   10.6533 C   0  0  0  0  0  0
   -7.2760   -5.1844    9.2581 C   0  0  0  0  0  0
   -8.4811   -5.1223    8.3057 C   0  0  0  0  0  0
   -9.7707   -5.0076    9.1858 C   0  0  0  0  0  0
  -10.6326   -4.0526    8.5514 O   0  0  0  0  0  0
   -4.6610   -3.8319   17.7675 O   0  0  0  0  0  0
  -10.4715   -6.4044    9.2051 C   0  0  0  0  0  0
   -8.9438   -2.9109   10.3766 C   0  0  0  0  0  0
  -11.8344   -6.5655    9.8526 C   0  0  0  0  0  0
  -12.9066   -5.7082    9.5737 C   0  0  0  0  0  0
  -14.1565   -5.9092   10.1665 C   0  0  0  0  0  0
  -14.3567   -6.9791   11.0349 C   0  0  0  0  0  0
  -13.3090   -7.8541   11.3060 C   0  0  0  0  0  0
  -12.0601   -7.6535   10.7138 C   0  0  0  0  0  0
   -7.2527   -3.8389   17.6905 H   0  0  0  0  0  0
   -3.6872   -4.4610   15.3775 H   0  0  0  0  0  0
   -8.6311   -4.3379   15.7390 H   0  0  0  0  0  0
   -4.0050   -5.7504   13.2269 H   0  0  0  0  0  0
   -4.3649   -4.1146   12.6574 H   0  0  0  0  0  0
   -5.9297   -6.6796   12.1503 H   0  0  0  0  0  0
   -5.1609   -5.6070   10.9834 H   0  0  0  0  0  0
   -8.0295   -6.0886   13.2686 H   0  0  0  0  0  0
   -6.7389   -3.7711   11.7202 H   0  0  0  0  0  0
  -10.9239   -4.0943   11.8079 H   0  0  0  0  0  0
  -10.2555   -5.7192   11.9340 H   0  0  0  0  0  0
   -9.0475   -3.2117   13.1557 H   0  0  0  0  0  0
   -9.8008   -4.5769   13.9513 H   0  0  0  0  0  0
   -8.1413   -6.3191   10.8259 H   0  0  0  0  0  0
   -6.6463   -6.0534    9.0410 H   0  0  0  0  0  0
   -6.6538   -4.2900    9.1401 H   0  0  0  0  0  0
   -8.5038   -6.0110    7.6644 H   0  0  0  0  0  0
   -8.3765   -4.2637    7.6310 H   0  0  0  0  0  0
  -10.8281   -4.3957    7.6549 H   0  0  0  0  0  0
   -3.7086   -3.8988   17.5413 H   0  0  0  0  0  0
   -9.7857   -7.1358    9.6504 H   0  0  0  0  0  0
  -10.6124   -6.7300    8.1640 H   0  0  0  0  0  0
   -8.3930   -2.6639    9.4638 H   0  0  0  0  0  0
   -8.3793   -2.4787   11.2060 H   0  0  0  0  0  0
   -9.8982   -2.3728   10.3345 H   0  0  0  0  0  0
  -12.7907   -4.8712    8.8891 H   0  0  0  0  0  0
  -14.9771   -5.2290    9.9441 H   0  0  0  0  0  0
  -15.3310   -7.1344   11.4945 H   0  0  0  0  0  0
  -13.4630   -8.6970   11.9774 H   0  0  0  0  0  0
  -11.2574   -8.3560   10.9373 H   0  0  0  0  0  0
  1  2  2  0  0  0
  1  4  1  0  0  0
  1 28  1  0  0  0
  2  3  1  0  0  0
  2 19  1  0  0  0
  3  6  2  0  0  0
  3 29  1  0  0  0
  4  5  2  0  0  0
  4 30  1  0  0  0
  5  6  1  0  0  0
  5  9  1  0  0  0
  6  7  1  0  0  0
  7  8  1  0  0  0
  7 31  1  0  0  0
  7 32  1  0  0  0
  8 10  1  0  0  0
  8 33  1  0  0  0
  8 34  1  0  0  0
  9 10  1  0  0  0
  9 12  1  0  0  0
  9 35  1  0  0  0
 10 14  1  0  0  0
 10 36  1  0  0  0
 11 12  1  0  0  0
 11 13  1  0  0  0
 11 37  1  0  0  0
 11 38  1  0  0  0
 12 39  1  0  0  0
 12 40  1  0  0  0
 13 14  1  0  0  0
 13 17  1  0  0  0
 13 21  1  0  0  0
 14 15  1  0  0  0
 14 41  1  0  0  0
 15 16  1  0  0  0
 15 42  1  0  0  0
 15 43  1  0  0  0
 16 17  1  0  0  0
 16 44  1  0  0  0
 16 45  1  0  0  0
 17 18  1  0  0  0
 17 20  1  0  0  0
 18 46  1  0  0  0
 19 47  1  0  0  0
 20 22  1  0  0  0
 20 48  1  0  0  0
 20 49  1  0  0  0
 21 50  1  0  0  0
 21 51  1  0  0  0
 21 52  1  0  0  0
 22 23  2  0  0  0
 22 27  1  0  0  0
 23 24  1  0  0  0
 23 53  1  0  0  0
 24 25  2  0  0  0
 24 54  1  0  0  0
 25 26  1  0  0  0
 25 55  1  0  0  0
 26 27  2  0  0  0
 26 56  1  0  0  0
 27 57  1  0  0  0
M  END
>  <Name>
lit-49

>  <Family>
A.1

>  <RBA>
4.300000

>  <RBA_avg>
4.300000

>  <Method>
RUC

>  <set>
1

$$$$
lit-50
  Cerius2 12180216403D 1   1.00000                          
 Structure written by MMmdl.
 64 68  0  0  0  0  0  0  0  0999 V2000
   -6.7800   -4.0993   16.7483 C   0  0  0  0  0  0
   -5.3980   -4.1286   16.6569 C   0  0  0  0  0  0
   -4.7774   -4.4352   15.4526 C   0  0  0  0  0  0
   -7.5548   -4.3702   15.6174 C   0  0  0  0  0  0
   -6.9588   -4.6610   14.3765 C   0  0  0  0  0  0
   -5.5485   -4.7190   14.3099 C   0  0  0  0  0  0
   -4.8137   -5.0283   13.0259 C   0  0  0  0  0  0
   -5.6990   -5.6119   11.9290 C   0  0  0  0  0  0
   -7.8088   -5.0020   13.1523 C   0  0  0  0  0  0
   -7.0015   -4.8140   11.8325 C   0  0  0  0  0  0
   -9.9880   -4.6189   11.8139 C   0  0  0  0  0  0
   -9.1774   -4.2746   13.0795 C   0  0  0  0  0  0
   -9.1676   -4.4206   10.5260 C   0  0  0  0  0  0
   -7.8705   -5.2527   10.6507 C   0  0  0  0  0  0
   -7.2763   -5.2012    9.2450 C   0  0  0  0  0  0
   -8.4968   -5.1453    8.3027 C   0  0  0  0  0  0
   -9.7529   -5.0061    9.2038 C   0  0  0  0  0  0
  -10.6967   -4.1223    8.6060 O   0  0  0  0  0  0
   -4.6737   -3.8548   17.7789 O   0  0  0  0  0  0
  -10.4126   -6.3197    9.3688 C   0  0  0  0  0  0
   -8.9144   -2.8940   10.3443 C   0  0  0  0  0  0
  -10.9526   -7.3873    9.4925 C   0  0  0  0  0  0
  -11.6124   -8.6892    9.6455 C   0  0  0  0  0  0
  -12.0177   -8.8325   11.0106 O   0  0  0  0  0  0
  -12.5810  -10.1206   11.2975 C   0  0  0  0  0  0
  -12.5690  -10.2970   12.8161 C   0  0  0  0  0  0
  -13.2952  -11.5707   13.2161 C   0  0  0  0  0  0
  -14.6386  -11.5612   12.7193 O   0  0  0  0  0  0
  -14.6719  -11.5087   11.2887 C   0  0  0  0  0  0
  -14.0149  -10.2353   10.7768 C   0  0  0  0  0  0
   -7.2651   -3.8712   17.6947 H   0  0  0  0  0  0
   -3.6910   -4.4599   15.3863 H   0  0  0  0  0  0
   -8.6362   -4.3554   15.7343 H   0  0  0  0  0  0
   -3.9960   -5.7311   13.2270 H   0  0  0  0  0  0
   -4.3639   -4.0950   12.6636 H   0  0  0  0  0  0
   -5.9180   -6.6654   12.1462 H   0  0  0  0  0  0
   -5.1478   -5.5899   10.9823 H   0  0  0  0  0  0
   -8.0340   -6.0751   13.2541 H   0  0  0  0  0  0
   -6.7295   -3.7573   11.7148 H   0  0  0  0  0  0
  -10.9013   -4.0125   11.7856 H   0  0  0  0  0  0
  -10.3134   -5.6614   11.9103 H   0  0  0  0  0  0
   -9.0285   -3.1907   13.1505 H   0  0  0  0  0  0
   -9.7985   -4.5507   13.9394 H   0  0  0  0  0  0
   -8.1379   -6.3055   10.8344 H   0  0  0  0  0  0
   -6.6565   -6.0791    9.0350 H   0  0  0  0  0  0
   -6.6487   -4.3137    9.1059 H   0  0  0  0  0  0
   -8.5354   -6.0430    7.6739 H   0  0  0  0  0  0
   -8.3976   -4.2927    7.6199 H   0  0  0  0  0  0
  -10.9233   -4.5156    7.7386 H   0  0  0  0  0  0
   -3.7205   -3.9125   17.5539 H   0  0  0  0  0  0
   -8.3501   -2.6671    9.4344 H   0  0  0  0  0  0
   -8.3606   -2.4503   11.1754 H   0  0  0  0  0  0
   -9.8654   -2.3525   10.2772 H   0  0  0  0  0  0
  -10.9167   -9.4928    9.3802 H   0  0  0  0  0  0
  -12.4855   -8.7403    8.9884 H   0  0  0  0  0  0
  -11.9531  -10.9026   10.8506 H   0  0  0  0  0  0
  -13.0592   -9.4313   13.2807 H   0  0  0  0  0  0
  -11.5385  -10.3051   13.1890 H   0  0  0  0  0  0
  -13.3465  -11.6445   14.3069 H   0  0  0  0  0  0
  -12.7762  -12.4630   12.8470 H   0  0  0  0  0  0
  -15.7223  -11.5353   10.9813 H   0  0  0  0  0  0
  -14.1849  -12.4023   10.8808 H   0  0  0  0  0  0
  -14.0375  -10.2196    9.6823 H   0  0  0  0  0  0
  -14.5865   -9.3608   11.1131 H   0  0  0  0  0  0
  1  2  2  0  0  0
  1  4  1  0  0  0
  1 31  1  0  0  0
  2  3  1  0  0  0
  2 19  1  0  0  0
  3  6  2  0  0  0
  3 32  1  0  0  0
  4  5  2  0  0  0
  4 33  1  0  0  0
  5  6  1  0  0  0
  5  9  1  0  0  0
  6  7  1  0  0  0
  7  8  1  0  0  0
  7 34  1  0  0  0
  7 35  1  0  0  0
  8 10  1  0  0  0
  8 36  1  0  0  0
  8 37  1  0  0  0
  9 10  1  0  0  0
  9 12  1  0  0  0
  9 38  1  0  0  0
 10 14  1  0  0  0
 10 39  1  0  0  0
 11 12  1  0  0  0
 11 13  1  0  0  0
 11 40  1  0  0  0
 11 41  1  0  0  0
 12 42  1  0  0  0
 12 43  1  0  0  0
 13 14  1  0  0  0
 13 17  1  0  0  0
 13 21  1  0  0  0
 14 15  1  0  0  0
 14 44  1  0  0  0
 15 16  1  0  0  0
 15 45  1  0  0  0
 15 46  1  0  0  0
 16 17  1  0  0  0
 16 47  1  0  0  0
 16 48  1  0  0  0
 17 18  1  0  0  0
 17 20  1  0  0  0
 18 49  1  0  0  0
 19 50  1  0  0  0
 20 22  3  0  0  0
 21 51  1  0  0  0
 21 52  1  0  0  0
 21 53  1  0  0  0
 22 23  1  0  0  0
 23 24  1  0  0  0
 23 54  1  0  0  0
 23 55  1  0  0  0
 24 25  1  0  0  0
 25 26  1  0  0  0
 25 30  1  0  0  0
 25 56  1  0  0  0
 26 27  1  0  0  0
 26 57  1  0  0  0
 26 58  1  0  0  0
 27 28  1  0  0  0
 27 59  1  0  0  0
 27 60  1  0  0  0
 28 29  1  0  0  0
 29 30  1  0  0  0
 29 61  1  0  0  0
 29 62  1  0  0  0
 30 63  1  0  0  0
 30 64  1  0  0  0
M  END
>  <Name>
lit-50

>  <Family>
A.1

>  <RBA>
4.000000

>  <RBA_avg>
4.000000

>  <Method>
RUC

>  <set>
1

$$$$
lit-51
  Cerius2 12180216403D 1   1.00000                          
 Structure written by MMmdl.
 62 66  0  0  0  0  0  0  0  0999 V2000
   -6.7796   -4.1085   16.7515 C   0  0  0  0  0  0
   -5.3976   -4.1368   16.6600 C   0  0  0  0  0  0
   -4.7771   -4.4354   15.4539 C   0  0  0  0  0  0
   -7.5542   -4.3728   15.6192 C   0  0  0  0  0  0
   -6.9584   -4.6568   14.3767 C   0  0  0  0  0  0
   -5.5480   -4.7134   14.3096 C   0  0  0  0  0  0
   -4.8135   -5.0145   13.0237 C   0  0  0  0  0  0
   -5.6971   -5.6024   11.9279 C   0  0  0  0  0  0
   -7.8083   -4.9941   13.1517 C   0  0  0  0  0  0
   -7.0016   -4.8077   11.8312 C   0  0  0  0  0  0
   -9.9870   -4.6111   11.8147 C   0  0  0  0  0  0
   -9.1749   -4.2630   13.0782 C   0  0  0  0  0  0
   -9.1681   -4.4188   10.5245 C   0  0  0  0  0  0
   -7.8715   -5.2515   10.6520 C   0  0  0  0  0  0
   -7.2787   -5.2077    9.2458 C   0  0  0  0  0  0
   -8.5009   -5.1634    8.3052 C   0  0  0  0  0  0
   -9.7555   -5.0112    9.2061 C   0  0  0  0  0  0
  -10.6953   -4.1277    8.6009 O   0  0  0  0  0  0
   -4.6735   -3.8698   17.7837 O   0  0  0  0  0  0
  -10.4217   -6.3200    9.3848 C   0  0  0  0  0  0
   -8.9143   -2.8934   10.3358 C   0  0  0  0  0  0
  -10.9657   -7.3817    9.5335 C   0  0  0  0  0  0
  -11.6290   -8.6847    9.7375 C   0  0  0  0  0  0
  -11.5865   -9.0769   11.2207 C   0  0  0  0  0  0
  -12.3235  -10.3893   11.4787 C   0  0  0  0  0  0
  -13.7568  -10.3420   10.9587 C   0  0  0  0  0  0
  -13.8073   -9.9517    9.4848 C   0  0  0  0  0  0
  -13.0743   -8.6376    9.2249 C   0  0  0  0  0  0
   -7.2648   -3.8863   17.6994 H   0  0  0  0  0  0
   -3.6906   -4.4593   15.3873 H   0  0  0  0  0  0
   -8.6358   -4.3594   15.7362 H   0  0  0  0  0  0
   -3.9903   -5.7118   13.2211 H   0  0  0  0  0  0
   -4.3714   -4.0769   12.6627 H   0  0  0  0  0  0
   -5.9133   -6.6562   12.1460 H   0  0  0  0  0  0
   -5.1465   -5.5793   10.9809 H   0  0  0  0  0  0
   -8.0364   -6.0666   13.2526 H   0  0  0  0  0  0
   -6.7319   -3.7507   11.7108 H   0  0  0  0  0  0
  -10.9002   -4.0048   11.7850 H   0  0  0  0  0  0
  -10.3122   -5.6532   11.9165 H   0  0  0  0  0  0
   -9.0232   -3.1792   13.1453 H   0  0  0  0  0  0
   -9.7960   -4.5347   13.9394 H   0  0  0  0  0  0
   -8.1395   -6.3033   10.8409 H   0  0  0  0  0  0
   -6.6552   -6.0841    9.0411 H   0  0  0  0  0  0
   -6.6553   -4.3184    9.0996 H   0  0  0  0  0  0
   -8.5415   -6.0700    7.6893 H   0  0  0  0  0  0
   -8.4020   -4.3201    7.6110 H   0  0  0  0  0  0
  -10.9370   -4.5374    7.7454 H   0  0  0  0  0  0
   -3.7201   -3.9280   17.5590 H   0  0  0  0  0  0
   -8.3490   -2.6711    9.4255 H   0  0  0  0  0  0
   -8.3616   -2.4458   11.1654 H   0  0  0  0  0  0
   -9.8650   -2.3517   10.2651 H   0  0  0  0  0  0
  -11.0820   -9.4439    9.1627 H   0  0  0  0  0  0
  -12.0370   -8.2842   11.8334 H   0  0  0  0  0  0
  -10.5459   -9.1729   11.5555 H   0  0  0  0  0  0
  -12.3284  -10.6036   12.5533 H   0  0  0  0  0  0
  -11.7848  -11.2116   10.9916 H   0  0  0  0  0  0
  -14.3345   -9.6186   11.5472 H   0  0  0  0  0  0
  -14.2324  -11.3195   11.0979 H   0  0  0  0  0  0
  -14.8511   -9.8611    9.1633 H   0  0  0  0  0  0
  -13.3550  -10.7475    8.8802 H   0  0  0  0  0  0
  -13.0861   -8.4223    8.1491 H   0  0  0  0  0  0
  -13.6206   -7.8180    9.7112 H   0  0  0  0  0  0
  1  2  2  0  0  0
  1  4  1  0  0  0
  1 29  1  0  0  0
  2  3  1  0  0  0
  2 19  1  0  0  0
  3  6  2  0  0  0
  3 30  1  0  0  0
  4  5  2  0  0  0
  4 31  1  0  0  0
  5  6  1  0  0  0
  5  9  1  0  0  0
  6  7  1  0  0  0
  7  8  1  0  0  0
  7 32  1  0  0  0
  7 33  1  0  0  0
  8 10  1  0  0  0
  8 34  1  0  0  0
  8 35  1  0  0  0
  9 10  1  0  0  0
  9 12  1  0  0  0
  9 36  1  0  0  0
 10 14  1  0  0  0
 10 37  1  0  0  0
 11 12  1  0  0  0
 11 13  1  0  0  0
 11 38  1  0  0  0
 11 39  1  0  0  0
 12 40  1  0  0  0
 12 41  1  0  0  0
 13 14  1  0  0  0
 13 17  1  0  0  0
 13 21  1  0  0  0
 14 15  1  0  0  0
 14 42  1  0  0  0
 15 16  1  0  0  0
 15 43  1  0  0  0
 15 44  1  0  0  0
 16 17  1  0  0  0
 16 45  1  0  0  0
 16 46  1  0  0  0
 17 18  1  0  0  0
 17 20  1  0  0  0
 18 47  1  0  0  0
 19 48  1  0  0  0
 20 22  3  0  0  0
 21 49  1  0  0  0
 21 50  1  0  0  0
 21 51  1  0  0  0
 22 23  1  0  0  0
 23 24  1  0  0  0
 23 28  1  0  0  0
 23 52  1  0  0  0
 24 25  1  0  0  0
 24 53  1  0  0  0
 24 54  1  0  0  0
 25 26  1  0  0  0
 25 55  1  0  0  0
 25 56  1  0  0  0
 26 27  1  0  0  0
 26 57  1  0  0  0
 26 58  1  0  0  0
 27 28  1  0  0  0
 27 59  1  0  0  0
 27 60  1  0  0  0
 28 61  1  0  0  0
 28 62  1  0  0  0
M  END
>  <Name>
lit-51

>  <Family>
A.1

>  <RBA>
3.200000

>  <RBA_avg>
3.200000

>  <Method>
RUC

>  <set>
0

$$$$
lit-52
  Cerius2 12180216403D 1   1.00000                          
 Structure written by MMmdl.
 52 56  0  0  0  0  0  0  0  0999 V2000
   -6.7729   -4.0980   16.7498 C   0  0  0  0  0  0
   -5.3910   -4.1230   16.6540 C   0  0  0  0  0  0
   -4.7734   -4.4282   15.4477 C   0  0  0  0  0  0
   -7.5502   -4.3732   15.6221 C   0  0  0  0  0  0
   -6.9574   -4.6638   14.3798 C   0  0  0  0  0  0
   -5.5472   -4.7161   14.3081 C   0  0  0  0  0  0
   -4.8164   -5.0230   13.0213 C   0  0  0  0  0  0
   -5.7038   -5.6097   11.9274 C   0  0  0  0  0  0
   -7.8094   -5.0107   13.1589 C   0  0  0  0  0  0
   -7.0106   -4.8168   11.8369 C   0  0  0  0  0  0
   -9.9897   -4.6404   11.8251 C   0  0  0  0  0  0
   -9.1795   -4.2900   13.0887 C   0  0  0  0  0  0
   -9.1870   -4.4291   10.5299 C   0  0  0  0  0  0
   -7.8837   -5.2548   10.6560 C   0  0  0  0  0  0
   -7.2809   -5.1901    9.2595 C   0  0  0  0  0  0
   -8.4929   -5.1772    8.3148 C   0  0  0  0  0  0
   -9.7731   -5.0075    9.1923 C   0  0  0  0  0  0
  -10.6354   -4.0610    8.5460 O   0  0  0  0  0  0
   -4.6642   -3.8465   17.7737 O   0  0  0  0  0  0
  -10.5301   -6.3594    9.2885 C   0  0  0  0  0  0
   -8.9363   -2.9009   10.3601 C   0  0  0  0  0  0
  -11.9594   -6.2297    9.7446 C   0  0  0  0  0  0
  -13.0947   -6.8057    8.9352 C   0  0  0  0  0  0
  -12.5739   -7.4831   10.0867 O   0  0  0  0  0  0
   -7.2550   -3.8701   17.6980 H   0  0  0  0  0  0
   -3.6869   -4.4487   15.3780 H   0  0  0  0  0  0
   -8.6314   -4.3620   15.7418 H   0  0  0  0  0  0
   -3.9953   -5.7228   13.2190 H   0  0  0  0  0  0
   -4.3717   -4.0880   12.6572 H   0  0  0  0  0  0
   -5.9178   -6.6641   12.1443 H   0  0  0  0  0  0
   -5.1557   -5.5843   10.9791 H   0  0  0  0  0  0
   -8.0281   -6.0848   13.2617 H   0  0  0  0  0  0
   -6.7416   -3.7592   11.7206 H   0  0  0  0  0  0
  -10.9074   -4.0407   11.8111 H   0  0  0  0  0  0
  -10.2969   -5.6883   11.9203 H   0  0  0  0  0  0
   -9.0362   -3.2053   13.1592 H   0  0  0  0  0  0
   -9.7983   -4.5694   13.9494 H   0  0  0  0  0  0
   -8.1437   -6.3089   10.8343 H   0  0  0  0  0  0
   -6.6314   -6.0474    9.0550 H   0  0  0  0  0  0
   -6.6809   -4.2837    9.1217 H   0  0  0  0  0  0
   -8.5191   -6.1032    7.7292 H   0  0  0  0  0  0
   -8.3911   -4.3595    7.5911 H   0  0  0  0  0  0
  -10.8406   -4.4235    7.6592 H   0  0  0  0  0  0
   -3.7115   -3.9053   17.5464 H   0  0  0  0  0  0
   -9.9987   -7.0628    9.9379 H   0  0  0  0  0  0
  -10.5488   -6.8213    8.2927 H   0  0  0  0  0  0
   -8.3825   -2.6664    9.4456 H   0  0  0  0  0  0
   -8.3741   -2.4630   11.1884 H   0  0  0  0  0  0
   -9.8887   -2.3599   10.3093 H   0  0  0  0  0  0
  -12.1664   -5.3827   10.3818 H   0  0  0  0  0  0
  -12.8904   -7.2389    7.9647 H   0  0  0  0  0  0
  -14.0707   -6.3453    9.0269 H   0  0  0  0  0  0
  1  2  2  0  0  0
  1  4  1  0  0  0
  1 25  1  0  0  0
  2  3  1  0  0  0
  2 19  1  0  0  0
  3  6  2  0  0  0
  3 26  1  0  0  0
  4  5  2  0  0  0
  4 27  1  0  0  0
  5  6  1  0  0  0
  5  9  1  0  0  0
  6  7  1  0  0  0
  7  8  1  0  0  0
  7 28  1  0  0  0
  7 29  1  0  0  0
  8 10  1  0  0  0
  8 30  1  0  0  0
  8 31  1  0  0  0
  9 10  1  0  0  0
  9 12  1  0  0  0
  9 32  1  0  0  0
 10 14  1  0  0  0
 10 33  1  0  0  0
 11 12  1  0  0  0
 11 13  1  0  0  0
 11 34  1  0  0  0
 11 35  1  0  0  0
 12 36  1  0  0  0
 12 37  1  0  0  0
 13 14  1  0  0  0
 13 17  1  0  0  0
 13 21  1  0  0  0
 14 15  1  0  0  0
 14 38  1  0  0  0
 15 16  1  0  0  0
 15 39  1  0  0  0
 15 40  1  0  0  0
 16 17  1  0  0  0
 16 41  1  0  0  0
 16 42  1  0  0  0
 17 18  1  0  0  0
 17 20  1  0  0  0
 18 43  1  0  0  0
 19 44  1  0  0  0
 20 22  1  0  0  0
 20 45  1  0  0  0
 20 46  1  0  0  0
 21 47  1  0  0  0
 21 48  1  0  0  0
 21 49  1  0  0  0
 22 23  1  0  0  0
 22 24  1  0  0  0
 22 50  1  0  0  0
 23 24  1  0  0  0
 23 51  1  0  0  0
 23 52  1  0  0  0
M  END
>  <Name>
lit-52

>  <Family>
A.1

>  <RBA>
2.100000

>  <RBA_avg>
2.100000

>  <Method>
RUC

>  <set>
2

$$$$
lit-53
  Cerius2 12180216403D 1   1.00000                          
 Structure written by MMmdl.
 57 60  0  0  0  0  0  0  0  0999 V2000
   -6.7780   -4.0905   16.7457 C   0  0  0  0  0  0
   -5.3960   -4.1210   16.6536 C   0  0  0  0  0  0
   -4.7764   -4.4320   15.4501 C   0  0  0  0  0  0
   -7.5535   -4.3664   15.6168 C   0  0  0  0  0  0
   -6.9586   -4.6628   14.3770 C   0  0  0  0  0  0
   -5.5483   -4.7200   14.3090 C   0  0  0  0  0  0
   -4.8147   -5.0314   13.0248 C   0  0  0  0  0  0
   -5.7009   -5.6137   11.9276 C   0  0  0  0  0  0
   -7.8084   -5.0100   13.1547 C   0  0  0  0  0  0
   -7.0053   -4.8175   11.8339 C   0  0  0  0  0  0
   -9.9866   -4.6502   11.8181 C   0  0  0  0  0  0
   -9.1814   -4.2924   13.0827 C   0  0  0  0  0  0
   -9.1769   -4.4310   10.5275 C   0  0  0  0  0  0
   -7.8747   -5.2539   10.6496 C   0  0  0  0  0  0
   -7.2784   -5.1766    9.2506 C   0  0  0  0  0  0
   -8.4971   -5.1863    8.3093 C   0  0  0  0  0  0
   -9.7694   -5.0084    9.1913 C   0  0  0  0  0  0
  -10.6513   -4.0518    8.5939 O   0  0  0  0  0  0
   -4.6708   -3.8431   17.7741 O   0  0  0  0  0  0
   -8.9285   -2.9009   10.3618 C   0  0  0  0  0  0
  -12.7273   -7.5068   10.0439 C   0  0  0  0  0  0
  -12.0681   -8.4960   10.8374 O   0  0  0  0  0  0
  -14.1169   -7.3021   10.6326 C   0  0  0  0  0  0
  -10.5593   -6.3342    9.3552 C   0  0  0  0  0  0
  -11.9308   -6.1942   10.0461 C   0  0  0  0  0  0
   -7.2623   -3.8577   17.6914 H   0  0  0  0  0  0
   -3.6900   -4.4568   15.3830 H   0  0  0  0  0  0
   -8.6350   -4.3506   15.7344 H   0  0  0  0  0  0
   -3.9980   -5.7352   13.2257 H   0  0  0  0  0  0
   -4.3638   -4.0986   12.6621 H   0  0  0  0  0  0
   -5.9184   -6.6678   12.1429 H   0  0  0  0  0  0
   -5.1502   -5.5890   10.9808 H   0  0  0  0  0  0
   -8.0262   -6.0845   13.2573 H   0  0  0  0  0  0
   -6.7336   -3.7606   11.7190 H   0  0  0  0  0  0
  -10.9147   -4.0668   11.7937 H   0  0  0  0  0  0
  -10.2808   -5.7017   11.9148 H   0  0  0  0  0  0
   -9.0423   -3.2072   13.1513 H   0  0  0  0  0  0
   -9.7998   -4.5731   13.9433 H   0  0  0  0  0  0
   -8.1317   -6.3098   10.8231 H   0  0  0  0  0  0
   -6.6133   -6.0212    9.0427 H   0  0  0  0  0  0
   -6.6963   -4.2587    9.1110 H   0  0  0  0  0  0
   -8.5093   -6.1279    7.7524 H   0  0  0  0  0  0
   -8.4020   -4.3845    7.5676 H   0  0  0  0  0  0
  -10.7291   -4.2793    7.6453 H   0  0  0  0  0  0
   -3.7179   -3.9057   17.5495 H   0  0  0  0  0  0
   -8.3900   -2.6623    9.4392 H   0  0  0  0  0  0
   -8.3535   -2.4670   11.1832 H   0  0  0  0  0  0
   -9.8811   -2.3588   10.3288 H   0  0  0  0  0  0
  -12.8259   -7.8965    9.0243 H   0  0  0  0  0  0
  -11.2787   -8.7792   10.3308 H   0  0  0  0  0  0
  -14.6913   -6.5721   10.0542 H   0  0  0  0  0  0
  -14.0568   -6.9592   11.6715 H   0  0  0  0  0  0
  -14.6690   -8.2482   10.6458 H   0  0  0  0  0  0
   -9.9671   -7.0143    9.9786 H   0  0  0  0  0  0
  -10.6984   -6.8177    8.3822 H   0  0  0  0  0  0
  -11.7705   -5.8767   11.0838 H   0  0  0  0  0  0
  -12.5260   -5.4192    9.5534 H   0  0  0  0  0  0
  1  2  2  0  0  0
  1  4  1  0  0  0
  1 26  1  0  0  0
  2  3  1  0  0  0
  2 19  1  0  0  0
  3  6  2  0  0  0
  3 27  1  0  0  0
  4  5  2  0  0  0
  4 28  1  0  0  0
  5  6  1  0  0  0
  5  9  1  0  0  0
  6  7  1  0  0  0
  7  8  1  0  0  0
  7 29  1  0  0  0
  7 30  1  0  0  0
  8 10  1  0  0  0
  8 31  1  0  0  0
  8 32  1  0  0  0
  9 10  1  0  0  0
  9 12  1  0  0  0
  9 33  1  0  0  0
 10 14  1  0  0  0
 10 34  1  0  0  0
 11 12  1  0  0  0
 11 13  1  0  0  0
 11 35  1  0  0  0
 11 36  1  0  0  0
 12 37  1  0  0  0
 12 38  1  0  0  0
 13 14  1  0  0  0
 13 17  1  0  0  0
 13 20  1  0  0  0
 14 15  1  0  0  0
 14 39  1  0  0  0
 15 16  1  0  0  0
 15 40  1  0  0  0
 15 41  1  0  0  0
 16 17  1  0  0  0
 16 42  1  0  0  0
 16 43  1  0  0  0
 17 18  1  0  0  0
 17 24  1  0  0  0
 18 44  1  0  0  0
 19 45  1  0  0  0
 20 46  1  0  0  0
 20 47  1  0  0  0
 20 48  1  0  0  0
 21 22  1  0  0  0
 21 23  1  0  0  0
 21 25  1  0  0  0
 21 49  1  0  0  0
 22 50  1  0  0  0
 23 51  1  0  0  0
 23 52  1  0  0  0
 23 53  1  0  0  0
 24 25  1  0  0  0
 24 54  1  0  0  0
 24 55  1  0  0  0
 25 56  1  0  0  0
 25 57  1  0  0  0
M  END
>  <Name>
lit-53

>  <Family>
A.1

>  <RBA>
1.400000

>  <RBA_avg>
1.400000

>  <Method>
RUC

>  <set>
0

$$$$
lit-54
  Cerius2 12180216403D 1   1.00000                          
 Structure written by MMmdl.
 63 66  0  0  0  0  0  0  0  0999 V2000
   -6.7801   -4.0945   16.7470 C   0  0  0  0  0  0
   -5.3981   -4.1279   16.6568 C   0  0  0  0  0  0
   -4.7775   -4.4372   15.4533 C   0  0  0  0  0  0
   -7.5546   -4.3661   15.6162 C   0  0  0  0  0  0
   -6.9587   -4.6608   14.3763 C   0  0  0  0  0  0
   -5.5485   -4.7207   14.3102 C   0  0  0  0  0  0
   -4.8135   -5.0306   13.0266 C   0  0  0  0  0  0
   -5.6987   -5.6119   11.9283 C   0  0  0  0  0  0
   -7.8084   -5.0030   13.1522 C   0  0  0  0  0  0
   -7.0014   -4.8141   11.8323 C   0  0  0  0  0  0
   -9.9881   -4.6227   11.8139 C   0  0  0  0  0  0
   -9.1782   -4.2778   13.0797 C   0  0  0  0  0  0
   -9.1680   -4.4217   10.5262 C   0  0  0  0  0  0
   -7.8703   -5.2529   10.6504 C   0  0  0  0  0  0
   -7.2759   -5.2001    9.2448 C   0  0  0  0  0  0
   -8.4962   -5.1432    8.3022 C   0  0  0  0  0  0
   -9.7529   -5.0058    9.2029 C   0  0  0  0  0  0
  -10.6962   -4.1195    8.6068 O   0  0  0  0  0  0
   -4.6737   -3.8548   17.7789 O   0  0  0  0  0  0
   -8.9159   -2.8946   10.3471 C   0  0  0  0  0  0
  -10.4109   -6.3179    9.3665 C   0  0  0  0  0  0
  -10.9451   -7.3866    9.4889 C   0  0  0  0  0  0
  -11.5541   -8.6075    9.6304 C   0  0  0  0  0  0
  -12.0887   -9.6753    9.7538 C   0  0  0  0  0  0
  -12.7455  -10.9827    9.9013 C   0  0  0  0  0  0
  -13.0741  -11.2712   11.3659 C   0  0  0  0  0  0
  -13.7625  -12.6278   11.5253 C   0  0  0  0  0  0
  -14.0887  -12.9171   12.9901 C   0  0  0  0  0  0
  -14.7707  -14.2660   13.1523 C   0  0  0  0  0  0
   -7.2653   -3.8630   17.6925 H   0  0  0  0  0  0
   -3.6912   -4.4643   15.3876 H   0  0  0  0  0  0
   -8.6361   -4.3487   15.7324 H   0  0  0  0  0  0
   -3.9971   -5.7349   13.2275 H   0  0  0  0  0  0
   -4.3621   -4.0977   12.6652 H   0  0  0  0  0  0
   -5.9180   -6.6657   12.1435 H   0  0  0  0  0  0
   -5.1472   -5.5883   10.9819 H   0  0  0  0  0  0
   -8.0320   -6.0764   13.2541 H   0  0  0  0  0  0
   -6.7297   -3.7572   11.7151 H   0  0  0  0  0  0
  -10.9028   -4.0184   11.7859 H   0  0  0  0  0  0
  -10.3109   -5.6661   11.9096 H   0  0  0  0  0  0
   -9.0309   -3.1938   13.1514 H   0  0  0  0  0  0
   -9.7989   -4.5554   13.9394 H   0  0  0  0  0  0
   -8.1370   -6.3060   10.8335 H   0  0  0  0  0  0
   -6.6561   -6.0780    9.0344 H   0  0  0  0  0  0
   -6.6486   -4.3124    9.1066 H   0  0  0  0  0  0
   -8.5342   -6.0399    7.6719 H   0  0  0  0  0  0
   -8.3969   -4.2894    7.6210 H   0  0  0  0  0  0
  -10.9051   -4.4964    7.7279 H   0  0  0  0  0  0
   -3.7206   -3.9185   17.5554 H   0  0  0  0  0  0
   -8.3496   -2.6661    9.4388 H   0  0  0  0  0  0
   -8.3644   -2.4513   11.1797 H   0  0  0  0  0  0
   -9.8672   -2.3538   10.2788 H   0  0  0  0  0  0
  -12.0901  -11.7673    9.5056 H   0  0  0  0  0  0
  -13.6644  -10.9988    9.3035 H   0  0  0  0  0  0
  -13.7232  -10.4802   11.7634 H   0  0  0  0  0  0
  -12.1533  -11.2531   11.9631 H   0  0  0  0  0  0
  -13.1125  -13.4183   11.1307 H   0  0  0  0  0  0
  -14.6858  -12.6431   10.9334 H   0  0  0  0  0  0
  -14.7434  -12.1329   13.3879 H   0  0  0  0  0  0
  -13.1688  -12.9051   13.5862 H   0  0  0  0  0  0
  -14.9952  -14.4529   14.2072 H   0  0  0  0  0  0
  -14.1282  -15.0762   12.7929 H   0  0  0  0  0  0
  -15.7116  -14.2996   12.5938 H   0  0  0  0  0  0
  1  2  2  0  0  0
  1  4  1  0  0  0
  1 30  1  0  0  0
  2  3  1  0  0  0
  2 19  1  0  0  0
  3  6  2  0  0  0
  3 31  1  0  0  0
  4  5  2  0  0  0
  4 32  1  0  0  0
  5  6  1  0  0  0
  5  9  1  0  0  0
  6  7  1  0  0  0
  7  8  1  0  0  0
  7 33  1  0  0  0
  7 34  1  0  0  0
  8 10  1  0  0  0
  8 35  1  0  0  0
  8 36  1  0  0  0
  9 10  1  0  0  0
  9 12  1  0  0  0
  9 37  1  0  0  0
 10 14  1  0  0  0
 10 38  1  0  0  0
 11 12  1  0  0  0
 11 13  1  0  0  0
 11 39  1  0  0  0
 11 40  1  0  0  0
 12 41  1  0  0  0
 12 42  1  0  0  0
 13 14  1  0  0  0
 13 17  1  0  0  0
 13 20  1  0  0  0
 14 15  1  0  0  0
 14 43  1  0  0  0
 15 16  1  0  0  0
 15 44  1  0  0  0
 15 45  1  0  0  0
 16 17  1  0  0  0
 16 46  1  0  0  0
 16 47  1  0  0  0
 17 18  1  0  0  0
 17 21  1  0  0  0
 18 48  1  0  0  0
 19 49  1  0  0  0
 20 50  1  0  0  0
 20 51  1  0  0  0
 20 52  1  0  0  0
 21 22  3  0  0  0
 22 23  1  0  0  0
 23 24  3  0  0  0
 24 25  1  0  0  0
 25 26  1  0  0  0
 25 53  1  0  0  0
 25 54  1  0  0  0
 26 27  1  0  0  0
 26 55  1  0  0  0
 26 56  1  0  0  0
 27 28  1  0  0  0
 27 57  1  0  0  0
 27 58  1  0  0  0
 28 29  1  0  0  0
 28 59  1  0  0  0
 28 60  1  0  0  0
 29 61  1  0  0  0
 29 62  1  0  0  0
 29 63  1  0  0  0
M  END
>  <Name>
lit-54

>  <Family>
A.1

>  <RBA>
2.500000

>  <RBA_avg>
2.500000

>  <Method>
RUC

>  <set>
0

$$$$
lit-55
  Cerius2 12180216403D 1   1.00000                          
 Structure written by MMmdl.
 64 67  0  0  0  0  0  0  0  0999 V2000
   -6.7735   -4.0903   16.7477 C   0  0  0  0  0  0
   -5.3915   -4.1179   16.6525 C   0  0  0  0  0  0
   -4.7739   -4.4283   15.4478 C   0  0  0  0  0  0
   -7.5507   -4.3684   15.6206 C   0  0  0  0  0  0
   -6.9578   -4.6639   14.3795 C   0  0  0  0  0  0
   -5.5475   -4.7186   14.3084 C   0  0  0  0  0  0
   -4.8167   -5.0307   13.0229 C   0  0  0  0  0  0
   -5.7051   -5.6169   11.9293 C   0  0  0  0  0  0
   -7.8095   -5.0126   13.1594 C   0  0  0  0  0  0
   -7.0103   -4.8218   11.8364 C   0  0  0  0  0  0
   -9.9874   -4.6563   11.8262 C   0  0  0  0  0  0
   -9.1815   -4.2946   13.0891 C   0  0  0  0  0  0
   -9.1865   -4.4356   10.5313 C   0  0  0  0  0  0
   -7.8824   -5.2592   10.6534 C   0  0  0  0  0  0
   -7.2808   -5.1881    9.2559 C   0  0  0  0  0  0
   -8.4928   -5.1625    8.3096 C   0  0  0  0  0  0
   -9.7733   -5.0059    9.1900 C   0  0  0  0  0  0
  -10.6314   -4.0456    8.5512 O   0  0  0  0  0  0
   -4.6645   -3.8376   17.7711 O   0  0  0  0  0  0
   -8.9378   -2.9053   10.3698 C   0  0  0  0  0  0
  -10.5138   -6.3715    9.2606 C   0  0  0  0  0  0
  -11.8481   -6.2987    9.8888 C   0  0  0  0  0  0
  -12.9263   -6.2448   10.4166 C   0  0  0  0  0  0
  -14.2322   -6.1657   11.0895 C   0  0  0  0  0  0
  -14.0677   -5.7294   12.5458 C   0  0  0  0  0  0
  -15.4166   -5.6561   13.2626 C   0  0  0  0  0  0
  -15.2483   -5.2230   14.7187 C   0  0  0  0  0  0
  -16.5864   -5.1545   15.4370 C   0  0  0  0  0  0
   -7.2563   -3.8583   17.6943 H   0  0  0  0  0  0
   -3.6875   -4.4510   15.3784 H   0  0  0  0  0  0
   -8.6319   -4.3555   15.7406 H   0  0  0  0  0  0
   -3.9982   -5.7326   13.2230 H   0  0  0  0  0  0
   -4.3686   -4.0979   12.6571 H   0  0  0  0  0  0
   -5.9215   -6.6705   12.1483 H   0  0  0  0  0  0
   -5.1565   -5.5951   10.9813 H   0  0  0  0  0  0
   -8.0274   -6.0869   13.2636 H   0  0  0  0  0  0
   -6.7394   -3.7648   11.7193 H   0  0  0  0  0  0
  -10.9177   -4.0766   11.8082 H   0  0  0  0  0  0
  -10.2682   -5.7105   11.9271 H   0  0  0  0  0  0
   -9.0430   -3.2094   13.1568 H   0  0  0  0  0  0
   -9.7988   -4.5746   13.9507 H   0  0  0  0  0  0
   -8.1410   -6.3143   10.8293 H   0  0  0  0  0  0
   -6.6351   -6.0473    9.0462 H   0  0  0  0  0  0
   -6.6770   -4.2832    9.1239 H   0  0  0  0  0  0
   -8.5215   -6.0809    7.7121 H   0  0  0  0  0  0
   -8.3901   -4.3352    7.5969 H   0  0  0  0  0  0
  -10.9162   -4.4384    7.7005 H   0  0  0  0  0  0
   -3.7118   -3.8995   17.5448 H   0  0  0  0  0  0
   -8.3883   -2.6648    9.4541 H   0  0  0  0  0  0
   -8.3716   -2.4710   11.1972 H   0  0  0  0  0  0
   -9.8909   -2.3649   10.3269 H   0  0  0  0  0  0
   -9.9056   -7.1256    9.7705 H   0  0  0  0  0  0
  -10.6713   -6.7402    8.2379 H   0  0  0  0  0  0
  -14.7257   -7.1435   11.0463 H   0  0  0  0  0  0
  -14.8753   -5.4547   10.5580 H   0  0  0  0  0  0
  -13.5757   -4.7489   12.5854 H   0  0  0  0  0  0
  -13.4092   -6.4328   13.0717 H   0  0  0  0  0  0
  -15.9061   -6.6369   13.2253 H   0  0  0  0  0  0
  -16.0719   -4.9476   12.7416 H   0  0  0  0  0  0
  -14.7661   -4.2395   14.7616 H   0  0  0  0  0  0
  -14.5941   -5.9284   15.2441 H   0  0  0  0  0  0
  -16.4429   -4.8453   16.4771 H   0  0  0  0  0  0
  -17.0816   -6.1308   15.4380 H   0  0  0  0  0  0
  -17.2532   -4.4313   14.9565 H   0  0  0  0  0  0
  1  2  2  0  0  0
  1  4  1  0  0  0
  1 29  1  0  0  0
  2  3  1  0  0  0
  2 19  1  0  0  0
  3  6  2  0  0  0
  3 30  1  0  0  0
  4  5  2  0  0  0
  4 31  1  0  0  0
  5  6  1  0  0  0
  5  9  1  0  0  0
  6  7  1  0  0  0
  7  8  1  0  0  0
  7 32  1  0  0  0
  7 33  1  0  0  0
  8 10  1  0  0  0
  8 34  1  0  0  0
  8 35  1  0  0  0
  9 10  1  0  0  0
  9 12  1  0  0  0
  9 36  1  0  0  0
 10 14  1  0  0  0
 10 37  1  0  0  0
 11 12  1  0  0  0
 11 13  1  0  0  0
 11 38  1  0  0  0
 11 39  1  0  0  0
 12 40  1  0  0  0
 12 41  1  0  0  0
 13 14  1  0  0  0
 13 17  1  0  0  0
 13 20  1  0  0  0
 14 15  1  0  0  0
 14 42  1  0  0  0
 15 16  1  0  0  0
 15 43  1  0  0  0
 15 44  1  0  0  0
 16 17  1  0  0  0
 16 45  1  0  0  0
 16 46  1  0  0  0
 17 18  1  0  0  0
 17 21  1  0  0  0
 18 47  1  0  0  0
 19 48  1  0  0  0
 20 49  1  0  0  0
 20 50  1  0  0  0
 20 51  1  0  0  0
 21 22  1  0  0  0
 21 52  1  0  0  0
 21 53  1  0  0  0
 22 23  3  0  0  0
 23 24  1  0  0  0
 24 25  1  0  0  0
 24 54  1  0  0  0
 24 55  1  0  0  0
 25 26  1  0  0  0
 25 56  1  0  0  0
 25 57  1  0  0  0
 26 27  1  0  0  0
 26 58  1  0  0  0
 26 59  1  0  0  0
 27 28  1  0  0  0
 27 60  1  0  0  0
 27 61  1  0  0  0
 28 62  1  0  0  0
 28 63  1  0  0  0
 28 64  1  0  0  0
M  END
>  <Name>
lit-55

>  <Family>
A.1

>  <RBA>
1.100000

>  <RBA_avg>
1.100000

>  <Method>
RUC

>  <set>
2

$$$$
lit-56
  Cerius2 12180216403D 1   1.00000                          
 Structure written by MMmdl.
 63 66  0  0  0  0  0  0  0  0999 V2000
   -6.7730   -4.0848   16.7457 C   0  0  0  0  0  0
   -5.3912   -4.1149   16.6506 C   0  0  0  0  0  0
   -4.7740   -4.4295   15.4468 C   0  0  0  0  0  0
   -7.5508   -4.3648   15.6194 C   0  0  0  0  0  0
   -6.9583   -4.6653   14.3794 C   0  0  0  0  0  0
   -5.5481   -4.7217   14.3084 C   0  0  0  0  0  0
   -4.8173   -5.0360   13.0234 C   0  0  0  0  0  0
   -5.7057   -5.6190   11.9284 C   0  0  0  0  0  0
   -7.8101   -5.0169   13.1600 C   0  0  0  0  0  0
   -7.0110   -4.8235   11.8375 C   0  0  0  0  0  0
   -9.9890   -4.6616   11.8251 C   0  0  0  0  0  0
   -9.1844   -4.3031   13.0901 C   0  0  0  0  0  0
   -9.1867   -4.4352   10.5323 C   0  0  0  0  0  0
   -7.8824   -5.2586   10.6536 C   0  0  0  0  0  0
   -7.2796   -5.1842    9.2571 C   0  0  0  0  0  0
   -8.4907   -5.1607    8.3104 C   0  0  0  0  0  0
   -9.7718   -5.0024    9.1894 C   0  0  0  0  0  0
  -10.6287   -4.0411    8.5507 O   0  0  0  0  0  0
   -4.6637   -3.8325   17.7684 O   0  0  0  0  0  0
   -8.9387   -2.9045   10.3752 C   0  0  0  0  0  0
  -10.5170   -6.3647    9.2611 C   0  0  0  0  0  0
  -11.8647   -6.2784    9.8560 C   0  0  0  0  0  0
  -12.9643   -6.2187   10.3346 C   0  0  0  0  0  0
  -14.2191   -6.1506   10.8848 C   0  0  0  0  0  0
  -15.3172   -6.0920   11.3668 C   0  0  0  0  0  0
  -16.6642   -6.0228   11.9528 C   0  0  0  0  0  0
  -16.6016   -5.6605   13.4364 C   0  0  0  0  0  0
  -17.9994   -5.5921   14.0510 C   0  0  0  0  0  0
  -17.9424   -5.2308   15.5266 C   0  0  0  0  0  0
   -7.2553   -3.8488   17.6917 H   0  0  0  0  0  0
   -3.6877   -4.4537   15.3773 H   0  0  0  0  0  0
   -8.6321   -4.3487   15.7391 H   0  0  0  0  0  0
   -4.0007   -5.7402   13.2241 H   0  0  0  0  0  0
   -4.3661   -4.1042   12.6585 H   0  0  0  0  0  0
   -5.9222   -6.6732   12.1443 H   0  0  0  0  0  0
   -5.1570   -5.5943   10.9805 H   0  0  0  0  0  0
   -8.0247   -6.0918   13.2646 H   0  0  0  0  0  0
   -6.7402   -3.7662   11.7226 H   0  0  0  0  0  0
  -10.9197   -4.0826   11.8081 H   0  0  0  0  0  0
  -10.2702   -5.7163   11.9209 H   0  0  0  0  0  0
   -9.0493   -3.2176   13.1618 H   0  0  0  0  0  0
   -9.8013   -4.5881   13.9504 H   0  0  0  0  0  0
   -8.1405   -6.3143   10.8270 H   0  0  0  0  0  0
   -6.6314   -6.0413    9.0468 H   0  0  0  0  0  0
   -6.6777   -4.2777    9.1267 H   0  0  0  0  0  0
   -8.5185   -6.0806    7.7150 H   0  0  0  0  0  0
   -8.3872   -4.3350    7.5959 H   0  0  0  0  0  0
  -10.8858   -4.4188    7.6843 H   0  0  0  0  0  0
   -3.7112   -3.8948   17.5418 H   0  0  0  0  0  0
   -8.3893   -2.6612    9.4603 H   0  0  0  0  0  0
   -8.3730   -2.4724   11.2039 H   0  0  0  0  0  0
   -9.8922   -2.3645   10.3337 H   0  0  0  0  0  0
   -9.9227   -7.1152    9.7925 H   0  0  0  0  0  0
  -10.6534   -6.7451    8.2396 H   0  0  0  0  0  0
  -17.1668   -6.9888   11.8268 H   0  0  0  0  0  0
  -17.2595   -5.2774   11.4128 H   0  0  0  0  0  0
  -16.0963   -4.6941   13.5616 H   0  0  0  0  0  0
  -15.9986   -6.4030   13.9749 H   0  0  0  0  0  0
  -18.5038   -6.5586   13.9370 H   0  0  0  0  0  0
  -18.6032   -4.8462   13.5213 H   0  0  0  0  0  0
  -18.9527   -5.1883   15.9456 H   0  0  0  0  0  0
  -17.4723   -4.2533   15.6732 H   0  0  0  0  0  0
  -17.3717   -5.9752   16.0910 H   0  0  0  0  0  0
  1  2  2  0  0  0
  1  4  1  0  0  0
  1 30  1  0  0  0
  2  3  1  0  0  0
  2 19  1  0  0  0
  3  6  2  0  0  0
  3 31  1  0  0  0
  4  5  2  0  0  0
  4 32  1  0  0  0
  5  6  1  0  0  0
  5  9  1  0  0  0
  6  7  1  0  0  0
  7  8  1  0  0  0
  7 33  1  0  0  0
  7 34  1  0  0  0
  8 10  1  0  0  0
  8 35  1  0  0  0
  8 36  1  0  0  0
  9 10  1  0  0  0
  9 12  1  0  0  0
  9 37  1  0  0  0
 10 14  1  0  0  0
 10 38  1  0  0  0
 11 12  1  0  0  0
 11 13  1  0  0  0
 11 39  1  0  0  0
 11 40  1  0  0  0
 12 41  1  0  0  0
 12 42  1  0  0  0
 13 14  1  0  0  0
 13 17  1  0  0  0
 13 20  1  0  0  0
 14 15  1  0  0  0
 14 43  1  0  0  0
 15 16  1  0  0  0
 15 44  1  0  0  0
 15 45  1  0  0  0
 16 17  1  0  0  0
 16 46  1  0  0  0
 16 47  1  0  0  0
 17 18  1  0  0  0
 17 21  1  0  0  0
 18 48  1  0  0  0
 19 49  1  0  0  0
 20 50  1  0  0  0
 20 51  1  0  0  0
 20 52  1  0  0  0
 21 22  1  0  0  0
 21 53  1  0  0  0
 21 54  1  0  0  0
 22 23  3  0  0  0
 23 24  1  0  0  0
 24 25  3  0  0  0
 25 26  1  0  0  0
 26 27  1  0  0  0
 26 55  1  0  0  0
 26 56  1  0  0  0
 27 28  1  0  0  0
 27 57  1  0  0  0
 27 58  1  0  0  0
 28 29  1  0  0  0
 28 59  1  0  0  0
 28 60  1  0  0  0
 29 61  1  0  0  0
 29 62  1  0  0  0
 29 63  1  0  0  0
M  END
>  <Name>
lit-56

>  <Family>
A.1

>  <RBA>
1.100000

>  <RBA_avg>
1.100000

>  <Method>
RUC

>  <set>
0

$$$$
lit-57
  Cerius2 12180216403D 1   1.00000                          
 Structure written by MMmdl.
 64 67  0  0  0  0  0  0  0  0999 V2000
   -6.7804   -4.0946   16.7464 C   0  0  0  0  0  0
   -5.3983   -4.1257   16.6555 C   0  0  0  0  0  0
   -4.7778   -4.4359   15.4523 C   0  0  0  0  0  0
   -7.5550   -4.3684   15.6163 C   0  0  0  0  0  0
   -6.9591   -4.6632   14.3764 C   0  0  0  0  0  0
   -5.5487   -4.7220   14.3100 C   0  0  0  0  0  0
   -4.8137   -5.0333   13.0267 C   0  0  0  0  0  0
   -5.6993   -5.6145   11.9287 C   0  0  0  0  0  0
   -7.8087   -5.0056   13.1524 C   0  0  0  0  0  0
   -7.0013   -4.8156   11.8329 C   0  0  0  0  0  0
   -9.9880   -4.6232   11.8143 C   0  0  0  0  0  0
   -9.1783   -4.2800   13.0806 C   0  0  0  0  0  0
   -9.1675   -4.4204   10.5269 C   0  0  0  0  0  0
   -7.8701   -5.2524   10.6503 C   0  0  0  0  0  0
   -7.2756   -5.1983    9.2448 C   0  0  0  0  0  0
   -8.4961   -5.1422    8.3024 C   0  0  0  0  0  0
   -9.7522   -5.0034    9.2031 C   0  0  0  0  0  0
  -10.6956   -4.1188    8.6057 O   0  0  0  0  0  0
   -4.6739   -3.8492   17.7769 O   0  0  0  0  0  0
   -8.9153   -2.8934   10.3493 C   0  0  0  0  0  0
  -10.4121   -6.3170    9.3695 C   0  0  0  0  0  0
  -10.9496   -7.3834    9.5074 C   0  0  0  0  0  0
  -11.6056   -8.6866    9.6950 C   0  0  0  0  0  0
  -11.8496   -8.9661   11.1778 C   0  0  0  0  0  0
  -12.5355  -10.3175   11.3845 C   0  0  0  0  0  0
  -12.7833  -10.5948   12.8680 C   0  0  0  0  0  0
  -13.4688  -11.9451   13.0738 C   0  0  0  0  0  0
  -13.7195  -12.2233   14.5471 C   0  0  0  0  0  0
   -7.2656   -3.8626   17.6919 H   0  0  0  0  0  0
   -3.6913   -4.4614   15.3862 H   0  0  0  0  0  0
   -8.6364   -4.3521   15.7329 H   0  0  0  0  0  0
   -3.9979   -5.7380   13.2283 H   0  0  0  0  0  0
   -4.3615   -4.1009   12.6648 H   0  0  0  0  0  0
   -5.9194   -6.6680   12.1445 H   0  0  0  0  0  0
   -5.1478   -5.5919   10.9822 H   0  0  0  0  0  0
   -8.0323   -6.0790   13.2538 H   0  0  0  0  0  0
   -6.7289   -3.7588   11.7168 H   0  0  0  0  0  0
  -10.9026   -4.0189   11.7870 H   0  0  0  0  0  0
  -10.3108   -5.6668   11.9092 H   0  0  0  0  0  0
   -9.0311   -3.1960   13.1537 H   0  0  0  0  0  0
   -9.7991   -4.5590   13.9399 H   0  0  0  0  0  0
   -8.1372   -6.3057   10.8322 H   0  0  0  0  0  0
   -6.6549   -6.0752    9.0337 H   0  0  0  0  0  0
   -6.6491   -4.3097    9.1071 H   0  0  0  0  0  0
   -8.5346   -6.0397    7.6733 H   0  0  0  0  0  0
   -8.3969   -4.2891    7.6201 H   0  0  0  0  0  0
  -10.9338   -4.5204    7.7453 H   0  0  0  0  0  0
   -3.7208   -3.9124   17.5529 H   0  0  0  0  0  0
   -8.3497   -2.6641    9.4408 H   0  0  0  0  0  0
   -8.3632   -2.4511   11.1821 H   0  0  0  0  0  0
   -9.8667   -2.3525   10.2821 H   0  0  0  0  0  0
  -10.9792   -9.4766    9.2648 H   0  0  0  0  0  0
  -12.5578   -8.6978    9.1518 H   0  0  0  0  0  0
  -12.4694   -8.1690   11.6085 H   0  0  0  0  0  0
  -10.8953   -8.9503   11.7203 H   0  0  0  0  0  0
  -11.9122  -11.1143   10.9608 H   0  0  0  0  0  0
  -13.4899  -10.3312   10.8441 H   0  0  0  0  0  0
  -13.4066   -9.7977   13.2917 H   0  0  0  0  0  0
  -11.8291  -10.5807   13.4090 H   0  0  0  0  0  0
  -12.8468  -12.7460   12.6572 H   0  0  0  0  0  0
  -14.4244  -11.9635   12.5369 H   0  0  0  0  0  0
  -14.2096  -13.1940   14.6714 H   0  0  0  0  0  0
  -14.3666  -11.4574   14.9865 H   0  0  0  0  0  0
  -12.7798  -12.2430   15.1084 H   0  0  0  0  0  0
  1  2  2  0  0  0
  1  4  1  0  0  0
  1 29  1  0  0  0
  2  3  1  0  0  0
  2 19  1  0  0  0
  3  6  2  0  0  0
  3 30  1  0  0  0
  4  5  2  0  0  0
  4 31  1  0  0  0
  5  6  1  0  0  0
  5  9  1  0  0  0
  6  7  1  0  0  0
  7  8  1  0  0  0
  7 32  1  0  0  0
  7 33  1  0  0  0
  8 10  1  0  0  0
  8 34  1  0  0  0
  8 35  1  0  0  0
  9 10  1  0  0  0
  9 12  1  0  0  0
  9 36  1  0  0  0
 10 14  1  0  0  0
 10 37  1  0  0  0
 11 12  1  0  0  0
 11 13  1  0  0  0
 11 38  1  0  0  0
 11 39  1  0  0  0
 12 40  1  0  0  0
 12 41  1  0  0  0
 13 14  1  0  0  0
 13 17  1  0  0  0
 13 20  1  0  0  0
 14 15  1  0  0  0
 14 42  1  0  0  0
 15 16  1  0  0  0
 15 43  1  0  0  0
 15 44  1  0  0  0
 16 17  1  0  0  0
 16 45  1  0  0  0
 16 46  1  0  0  0
 17 18  1  0  0  0
 17 21  1  0  0  0
 18 47  1  0  0  0
 19 48  1  0  0  0
 20 49  1  0  0  0
 20 50  1  0  0  0
 20 51  1  0  0  0
 21 22  3  0  0  0
 22 23  1  0  0  0
 23 24  1  0  0  0
 23 52  1  0  0  0
 23 53  1  0  0  0
 24 25  1  0  0  0
 24 54  1  0  0  0
 24 55  1  0  0  0
 25 26  1  0  0  0
 25 56  1  0  0  0
 25 57  1  0  0  0
 26 27  1  0  0  0
 26 58  1  0  0  0
 26 59  1  0  0  0
 27 28  1  0  0  0
 27 60  1  0  0  0
 27 61  1  0  0  0
 28 62  1  0  0  0
 28 63  1  0  0  0
 28 64  1  0  0  0
M  END
>  <Name>
lit-57

>  <Family>
A.1

>  <RBA>
0.900000

>  <RBA_avg>
0.890000

>  <Method>
RUC

>  <set>
0

$$$$
lit-58
  Cerius2 12180216403D 1   1.00000                          
 Structure written by MMmdl.
 66 69  0  0  0  0  0  0  0  0999 V2000
   -6.7727   -4.0807   16.7449 C   0  0  0  0  0  0
   -5.3909   -4.1142   16.6505 C   0  0  0  0  0  0
   -4.7741   -4.4317   15.4472 C   0  0  0  0  0  0
   -7.5508   -4.3602   15.6186 C   0  0  0  0  0  0
   -6.9585   -4.6634   14.3792 C   0  0  0  0  0  0
   -5.5485   -4.7232   14.3087 C   0  0  0  0  0  0
   -4.8180   -5.0407   13.0243 C   0  0  0  0  0  0
   -5.7075   -5.6232   11.9297 C   0  0  0  0  0  0
   -7.8107   -5.0151   13.1600 C   0  0  0  0  0  0
   -7.0112   -4.8253   11.8372 C   0  0  0  0  0  0
   -9.9873   -4.6663   11.8249 C   0  0  0  0  0  0
   -9.1845   -4.3001   13.0886 C   0  0  0  0  0  0
   -9.1875   -4.4385   10.5320 C   0  0  0  0  0  0
   -7.8822   -5.2600   10.6523 C   0  0  0  0  0  0
   -7.2774   -5.1804    9.2563 C   0  0  0  0  0  0
   -8.4869   -5.1499    8.3079 C   0  0  0  0  0  0
   -9.7685   -5.0029    9.1878 C   0  0  0  0  0  0
  -10.6333   -4.0444    8.5565 O   0  0  0  0  0  0
   -4.6632   -3.8327   17.7683 O   0  0  0  0  0  0
   -8.9414   -2.9069   10.3770 C   0  0  0  0  0  0
  -10.5144   -6.3710    9.2355 C   0  0  0  0  0  0
  -11.8778   -6.3528    9.8859 C   0  0  0  0  0  0
  -12.2966   -7.2760   10.7674 C   0  0  0  0  0  0
  -13.6311   -7.3366   11.4645 C   0  0  0  0  0  0
  -14.6183   -6.2055   11.1585 C   0  0  0  0  0  0
  -15.9231   -6.3834   11.9389 C   0  0  0  0  0  0
  -16.9104   -5.2571   11.6346 C   0  0  0  0  0  0
  -18.2077   -5.4301   12.4080 C   0  0  0  0  0  0
   -7.2549   -3.8426   17.6903 H   0  0  0  0  0  0
   -3.6878   -4.4587   15.3783 H   0  0  0  0  0  0
   -8.6320   -4.3417   15.7379 H   0  0  0  0  0  0
   -4.0032   -5.7466   13.2260 H   0  0  0  0  0  0
   -4.3648   -4.1105   12.6583 H   0  0  0  0  0  0
   -5.9263   -6.6767   12.1472 H   0  0  0  0  0  0
   -5.1584   -5.6012   10.9820 H   0  0  0  0  0  0
   -8.0268   -6.0897   13.2661 H   0  0  0  0  0  0
   -6.7384   -3.7686   11.7211 H   0  0  0  0  0  0
  -10.9251   -4.0988   11.8062 H   0  0  0  0  0  0
  -10.2526   -5.7231   11.9256 H   0  0  0  0  0  0
   -9.0497   -3.2145   13.1564 H   0  0  0  0  0  0
   -9.8013   -4.5824   13.9500 H   0  0  0  0  0  0
   -8.1398   -6.3163   10.8228 H   0  0  0  0  0  0
   -6.6308   -6.0379    9.0431 H   0  0  0  0  0  0
   -6.6737   -4.2745    9.1308 H   0  0  0  0  0  0
   -8.5128   -6.0641    7.7036 H   0  0  0  0  0  0
   -8.3849   -4.3172    7.6015 H   0  0  0  0  0  0
  -10.8693   -4.4099    7.6790 H   0  0  0  0  0  0
   -3.7107   -3.8974   17.5421 H   0  0  0  0  0  0
   -8.3958   -2.6609    9.4604 H   0  0  0  0  0  0
   -8.3723   -2.4756   11.2037 H   0  0  0  0  0  0
   -9.8956   -2.3677   10.3402 H   0  0  0  0  0  0
   -9.8792   -7.1382    9.6925 H   0  0  0  0  0  0
  -10.6933   -6.6949    8.2006 H   0  0  0  0  0  0
  -12.5346   -5.5390    9.5853 H   0  0  0  0  0  0
  -11.6167   -8.0858   11.0368 H   0  0  0  0  0  0
  -13.4391   -7.3575   12.5447 H   0  0  0  0  0  0
  -14.0970   -8.2968   11.2096 H   0  0  0  0  0  0
  -14.8401   -6.1851   10.0844 H   0  0  0  0  0  0
  -14.1697   -5.2390   11.4200 H   0  0  0  0  0  0
  -15.7084   -6.4031   13.0144 H   0  0  0  0  0  0
  -16.3763   -7.3487   11.6821 H   0  0  0  0  0  0
  -17.1320   -5.2357   10.5611 H   0  0  0  0  0  0
  -16.4638   -4.2900   11.8931 H   0  0  0  0  0  0
  -18.8994   -4.6145   12.1754 H   0  0  0  0  0  0
  -18.0248   -5.4229   13.4874 H   0  0  0  0  0  0
  -18.6965   -6.3745   12.1483 H   0  0  0  0  0  0
  1  2  2  0  0  0
  1  4  1  0  0  0
  1 29  1  0  0  0
  2  3  1  0  0  0
  2 19  1  0  0  0
  3  6  2  0  0  0
  3 30  1  0  0  0
  4  5  2  0  0  0
  4 31  1  0  0  0
  5  6  1  0  0  0
  5  9  1  0  0  0
  6  7  1  0  0  0
  7  8  1  0  0  0
  7 32  1  0  0  0
  7 33  1  0  0  0
  8 10  1  0  0  0
  8 34  1  0  0  0
  8 35  1  0  0  0
  9 10  1  0  0  0
  9 12  1  0  0  0
  9 36  1  0  0  0
 10 14  1  0  0  0
 10 37  1  0  0  0
 11 12  1  0  0  0
 11 13  1  0  0  0
 11 38  1  0  0  0
 11 39  1  0  0  0
 12 40  1  0  0  0
 12 41  1  0  0  0
 13 14  1  0  0  0
 13 17  1  0  0  0
 13 20  1  0  0  0
 14 15  1  0  0  0
 14 42  1  0  0  0
 15 16  1  0  0  0
 15 43  1  0  0  0
 15 44  1  0  0  0
 16 17  1  0  0  0
 16 45  1  0  0  0
 16 46  1  0  0  0
 17 18  1  0  0  0
 17 21  1  0  0  0
 18 47  1  0  0  0
 19 48  1  0  0  0
 20 49  1  0  0  0
 20 50  1  0  0  0
 20 51  1  0  0  0
 21 22  1  0  0  0
 21 52  1  0  0  0
 21 53  1  0  0  0
 22 23  2  0  0  0
 22 54  1  0  0  0
 23 24  1  0  0  0
 23 55  1  0  0  0
 24 25  1  0  0  0
 24 56  1  0  0  0
 24 57  1  0  0  0
 25 26  1  0  0  0
 25 58  1  0  0  0
 25 59  1  0  0  0
 26 27  1  0  0  0
 26 60  1  0  0  0
 26 61  1  0  0  0
 27 28  1  0  0  0
 27 62  1  0  0  0
 27 63  1  0  0  0
 28 64  1  0  0  0
 28 65  1  0  0  0
 28 66  1  0  0  0
M  END
>  <Name>
lit-58

>  <Family>
A.1

>  <RBA>
0.500000

>  <RBA_avg>
0.500000

>  <Method>
RUC

>  <set>
1

$$$$
lit-59
  Cerius2 12180216403D 1   1.00000                          
 Structure written by MMmdl.
 61 65  0  0  0  0  0  0  0  0999 V2000
   -6.7733   -4.0884   16.7473 C   0  0  0  0  0  0
   -5.3914   -4.1197   16.6530 C   0  0  0  0  0  0
   -4.7739   -4.4310   15.4484 C   0  0  0  0  0  0
   -7.5507   -4.3643   15.6197 C   0  0  0  0  0  0
   -6.9578   -4.6620   14.3792 C   0  0  0  0  0  0
   -5.5477   -4.7191   14.3087 C   0  0  0  0  0  0
   -4.8166   -5.0312   13.0235 C   0  0  0  0  0  0
   -5.7045   -5.6150   11.9284 C   0  0  0  0  0  0
   -7.8092   -5.0111   13.1590 C   0  0  0  0  0  0
   -7.0098   -4.8197   11.8363 C   0  0  0  0  0  0
   -9.9881   -4.6563   11.8251 C   0  0  0  0  0  0
   -9.1823   -4.2949   13.0885 C   0  0  0  0  0  0
   -9.1865   -4.4350   10.5310 C   0  0  0  0  0  0
   -7.8819   -5.2577   10.6537 C   0  0  0  0  0  0
   -7.2801   -5.1876    9.2563 C   0  0  0  0  0  0
   -8.4920   -5.1631    8.3104 C   0  0  0  0  0  0
   -9.7725   -5.0070    9.1906 C   0  0  0  0  0  0
  -10.6342   -4.0501    8.5523 O   0  0  0  0  0  0
   -4.6640   -3.8422   17.7721 O   0  0  0  0  0  0
   -8.9385   -2.9048   10.3683 C   0  0  0  0  0  0
  -10.5121   -6.3722    9.2656 C   0  0  0  0  0  0
  -11.8569   -6.2926    9.8681 C   0  0  0  0  0  0
  -12.9529   -6.2407   10.3562 C   0  0  0  0  0  0
  -14.2022   -6.1839   10.9201 C   0  0  0  0  0  0
  -15.2946   -6.1376   11.4167 C   0  0  0  0  0  0
  -16.5950   -6.0864   12.0103 C   0  0  0  0  0  0
  -17.7243   -5.8987   11.2094 C   0  0  0  0  0  0
  -18.9937   -5.8522   11.7904 C   0  0  0  0  0  0
  -19.1353   -5.9930   13.1707 C   0  0  0  0  0  0
  -18.0091   -6.1796   13.9720 C   0  0  0  0  0  0
  -16.7391   -6.2263   13.3930 C   0  0  0  0  0  0
   -7.2558   -3.8552   17.6939 H   0  0  0  0  0  0
   -3.6875   -4.4559   15.3797 H   0  0  0  0  0  0
   -8.6319   -4.3478   15.7390 H   0  0  0  0  0  0
   -3.9993   -5.7346   13.2235 H   0  0  0  0  0  0
   -4.3666   -4.0988   12.6590 H   0  0  0  0  0  0
   -5.9211   -6.6692   12.1449 H   0  0  0  0  0  0
   -5.1554   -5.5912   10.9806 H   0  0  0  0  0  0
   -8.0261   -6.0856   13.2632 H   0  0  0  0  0  0
   -6.7395   -3.7624   11.7192 H   0  0  0  0  0  0
  -10.9183   -4.0762   11.8070 H   0  0  0  0  0  0
  -10.2703   -5.7102   11.9246 H   0  0  0  0  0  0
   -9.0450   -3.2094   13.1568 H   0  0  0  0  0  0
   -9.7992   -4.5761   13.9500 H   0  0  0  0  0  0
   -8.1396   -6.3129   10.8303 H   0  0  0  0  0  0
   -6.6346   -6.0470    9.0476 H   0  0  0  0  0  0
   -6.6758   -4.2830    9.1237 H   0  0  0  0  0  0
   -8.5196   -6.0819    7.7132 H   0  0  0  0  0  0
   -8.3899   -4.3361    7.5972 H   0  0  0  0  0  0
  -10.8889   -4.4283    7.6854 H   0  0  0  0  0  0
   -3.7114   -3.9062   17.5460 H   0  0  0  0  0  0
   -8.3865   -2.6651    9.4540 H   0  0  0  0  0  0
   -8.3749   -2.4697   11.1970 H   0  0  0  0  0  0
   -9.8918   -2.3651   10.3222 H   0  0  0  0  0  0
   -9.9123   -7.1206    9.7935 H   0  0  0  0  0  0
  -10.6522   -6.7529    8.2447 H   0  0  0  0  0  0
  -17.6267   -5.7881   10.1306 H   0  0  0  0  0  0
  -19.8727   -5.7066   11.1649 H   0  0  0  0  0  0
  -20.1252   -5.9573   13.6228 H   0  0  0  0  0  0
  -18.1197   -6.2896   15.0495 H   0  0  0  0  0  0
  -15.8676   -6.3731   14.0291 H   0  0  0  0  0  0
  1  2  2  0  0  0
  1  4  1  0  0  0
  1 32  1  0  0  0
  2  3  1  0  0  0
  2 19  1  0  0  0
  3  6  2  0  0  0
  3 33  1  0  0  0
  4  5  2  0  0  0
  4 34  1  0  0  0
  5  6  1  0  0  0
  5  9  1  0  0  0
  6  7  1  0  0  0
  7  8  1  0  0  0
  7 35  1  0  0  0
  7 36  1  0  0  0
  8 10  1  0  0  0
  8 37  1  0  0  0
  8 38  1  0  0  0
  9 10  1  0  0  0
  9 12  1  0  0  0
  9 39  1  0  0  0
 10 14  1  0  0  0
 10 40  1  0  0  0
 11 12  1  0  0  0
 11 13  1  0  0  0
 11 41  1  0  0  0
 11 42  1  0  0  0
 12 43  1  0  0  0
 12 44  1  0  0  0
 13 14  1  0  0  0
 13 17  1  0  0  0
 13 20  1  0  0  0
 14 15  1  0  0  0
 14 45  1  0  0  0
 15 16  1  0  0  0
 15 46  1  0  0  0
 15 47  1  0  0  0
 16 17  1  0  0  0
 16 48  1  0  0  0
 16 49  1  0  0  0
 17 18  1  0  0  0
 17 21  1  0  0  0
 18 50  1  0  0  0
 19 51  1  0  0  0
 20 52  1  0  0  0
 20 53  1  0  0  0
 20 54  1  0  0  0
 21 22  1  0  0  0
 21 55  1  0  0  0
 21 56  1  0  0  0
 22 23  3  0  0  0
 23 24  1  0  0  0
 24 25  3  0  0  0
 25 26  1  0  0  0
 26 27  2  0  0  0
 26 31  1  0  0  0
 27 28  1  0  0  0
 27 57  1  0  0  0
 28 29  2  0  0  0
 28 58  1  0  0  0
 29 30  1  0  0  0
 29 59  1  0  0  0
 30 31  2  0  0  0
 30 60  1  0  0  0
 31 61  1  0  0  0
M  END
>  <Name>
lit-59

>  <Family>
A.1

>  <RBA>
0.400000

>  <RBA_avg>
0.400000

>  <Method>
RUC

>  <set>
1

$$$$
lit-60
  Cerius2 12180216403D 1   1.00000                          
 Structure written by MMmdl.
 66 69  0  0  0  0  0  0  0  0999 V2000
   -6.7749   -4.0893   16.7464 C   0  0  0  0  0  0
   -5.3931   -4.1193   16.6526 C   0  0  0  0  0  0
   -4.7748   -4.4305   15.4484 C   0  0  0  0  0  0
   -7.5518   -4.3661   15.6187 C   0  0  0  0  0  0
   -6.9582   -4.6632   14.3783 C   0  0  0  0  0  0
   -5.5480   -4.7195   14.3084 C   0  0  0  0  0  0
   -4.8159   -5.0309   13.0234 C   0  0  0  0  0  0
   -5.7032   -5.6135   11.9273 C   0  0  0  0  0  0
   -7.8092   -5.0121   13.1576 C   0  0  0  0  0  0
   -7.0085   -4.8186   11.8354 C   0  0  0  0  0  0
   -9.9885   -4.6563   11.8226 C   0  0  0  0  0  0
   -9.1838   -4.2979   13.0875 C   0  0  0  0  0  0
   -9.1836   -4.4311   10.5312 C   0  0  0  0  0  0
   -7.8798   -5.2555   10.6524 C   0  0  0  0  0  0
   -7.2811   -5.1860    9.2529 C   0  0  0  0  0  0
   -8.4965   -5.1773    8.3099 C   0  0  0  0  0  0
   -9.7672   -5.0045    9.1932 C   0  0  0  0  0  0
  -10.6357   -4.0465    8.5643 O   0  0  0  0  0  0
   -4.6665   -3.8403   17.7719 O   0  0  0  0  0  0
   -8.9347   -2.9014   10.3696 C   0  0  0  0  0  0
  -10.5264   -6.3575    9.2945 C   0  0  0  0  0  0
  -11.7778   -6.1914    9.9796 O   0  0  0  0  0  0
  -12.4738   -7.4355   10.1078 C   0  0  0  0  0  0
  -13.7742   -7.1763   10.8592 C   0  0  0  0  0  0
  -14.5850   -8.4573   11.0446 C   0  0  0  0  0  0
  -15.8853   -8.1877   11.8031 C   0  0  0  0  0  0
  -16.6969   -9.4694   11.9883 C   0  0  0  0  0  0
  -17.9894   -9.2056   12.7438 C   0  0  0  0  0  0
   -7.2582   -3.8561   17.6926 H   0  0  0  0  0  0
   -3.6885   -4.4547   15.3798 H   0  0  0  0  0  0
   -8.6331   -4.3506   15.7376 H   0  0  0  0  0  0
   -3.9988   -5.7346   13.2235 H   0  0  0  0  0  0
   -4.3657   -4.0983   12.6600 H   0  0  0  0  0  0
   -5.9195   -6.6680   12.1426 H   0  0  0  0  0  0
   -5.1538   -5.5882   10.9797 H   0  0  0  0  0  0
   -8.0247   -6.0871   13.2608 H   0  0  0  0  0  0
   -6.7382   -3.7613   11.7201 H   0  0  0  0  0  0
  -10.9196   -4.0778   11.8022 H   0  0  0  0  0  0
  -10.2740   -5.7103   11.9171 H   0  0  0  0  0  0
   -9.0481   -3.2125   13.1583 H   0  0  0  0  0  0
   -9.8008   -4.5821   13.9479 H   0  0  0  0  0  0
   -8.1383   -6.3106   10.8287 H   0  0  0  0  0  0
   -6.6275   -6.0396    9.0456 H   0  0  0  0  0  0
   -6.6864   -4.2759    9.1153 H   0  0  0  0  0  0
   -8.5310   -6.1092    7.7338 H   0  0  0  0  0  0
   -8.3972   -4.3648    7.5804 H   0  0  0  0  0  0
  -10.9770   -4.4636    7.7467 H   0  0  0  0  0  0
   -3.7137   -3.9026   17.5460 H   0  0  0  0  0  0
   -8.3872   -2.6616    9.4525 H   0  0  0  0  0  0
   -8.3671   -2.4678   11.1964 H   0  0  0  0  0  0
   -9.8876   -2.3605   10.3285 H   0  0  0  0  0  0
   -9.9240   -7.1170    9.8035 H   0  0  0  0  0  0
  -10.7555   -6.7189    8.2842 H   0  0  0  0  0  0
  -11.8508   -8.1465   10.6624 H   0  0  0  0  0  0
  -12.6829   -7.8405    9.1112 H   0  0  0  0  0  0
  -14.3645   -6.4285   10.3151 H   0  0  0  0  0  0
  -13.5457   -6.7268   11.8338 H   0  0  0  0  0  0
  -13.9861   -9.1948   11.5927 H   0  0  0  0  0  0
  -14.8146   -8.8916   10.0640 H   0  0  0  0  0  0
  -16.4840   -7.4495   11.2555 H   0  0  0  0  0  0
  -15.6554   -7.7536   12.7838 H   0  0  0  0  0  0
  -16.1040  -10.2098   12.5378 H   0  0  0  0  0  0
  -16.9342   -9.9046   11.0105 H   0  0  0  0  0  0
  -18.5544  -10.1351   12.8646 H   0  0  0  0  0  0
  -18.6205   -8.4920   12.2045 H   0  0  0  0  0  0
  -17.7857   -8.8000   13.7400 H   0  0  0  0  0  0
  1  2  2  0  0  0
  1  4  1  0  0  0
  1 29  1  0  0  0
  2  3  1  0  0  0
  2 19  1  0  0  0
  3  6  2  0  0  0
  3 30  1  0  0  0
  4  5  2  0  0  0
  4 31  1  0  0  0
  5  6  1  0  0  0
  5  9  1  0  0  0
  6  7  1  0  0  0
  7  8  1  0  0  0
  7 32  1  0  0  0
  7 33  1  0  0  0
  8 10  1  0  0  0
  8 34  1  0  0  0
  8 35  1  0  0  0
  9 10  1  0  0  0
  9 12  1  0  0  0
  9 36  1  0  0  0
 10 14  1  0  0  0
 10 37  1  0  0  0
 11 12  1  0  0  0
 11 13  1  0  0  0
 11 38  1  0  0  0
 11 39  1  0  0  0
 12 40  1  0  0  0
 12 41  1  0  0  0
 13 14  1  0  0  0
 13 17  1  0  0  0
 13 20  1  0  0  0
 14 15  1  0  0  0
 14 42  1  0  0  0
 15 16  1  0  0  0
 15 43  1  0  0  0
 15 44  1  0  0  0
 16 17  1  0  0  0
 16 45  1  0  0  0
 16 46  1  0  0  0
 17 18  1  0  0  0
 17 21  1  0  0  0
 18 47  1  0  0  0
 19 48  1  0  0  0
 20 49  1  0  0  0
 20 50  1  0  0  0
 20 51  1  0  0  0
 21 22  1  0  0  0
 21 52  1  0  0  0
 21 53  1  0  0  0
 22 23  1  0  0  0
 23 24  1  0  0  0
 23 54  1  0  0  0
 23 55  1  0  0  0
 24 25  1  0  0  0
 24 56  1  0  0  0
 24 57  1  0  0  0
 25 26  1  0  0  0
 25 58  1  0  0  0
 25 59  1  0  0  0
 26 27  1  0  0  0
 26 60  1  0  0  0
 26 61  1  0  0  0
 27 28  1  0  0  0
 27 62  1  0  0  0
 27 63  1  0  0  0
 28 64  1  0  0  0
 28 65  1  0  0  0
 28 66  1  0  0  0
M  END
>  <Name>
lit-60

>  <Family>
A.1

>  <RBA>
0.200000

>  <RBA_avg>
0.200000

>  <Method>
RUC

>  <set>
1

$$$$
lit-61
  Cerius2 12180216403D 1   1.00000                          
 Structure written by MMmdl.
 66 70  0  0  0  0  0  0  0  0999 V2000
   -6.7736   -4.0960   16.7494 C   0  0  0  0  0  0
   -5.3918   -4.1231   16.6545 C   0  0  0  0  0  0
   -4.7739   -4.4302   15.4491 C   0  0  0  0  0  0
   -7.5508   -4.3712   15.6213 C   0  0  0  0  0  0
   -6.9575   -4.6635   14.3796 C   0  0  0  0  0  0
   -5.5473   -4.7176   14.3088 C   0  0  0  0  0  0
   -4.8160   -5.0255   13.0226 C   0  0  0  0  0  0
   -5.7035   -5.6099   11.9277 C   0  0  0  0  0  0
   -7.8090   -5.0094   13.1583 C   0  0  0  0  0  0
   -7.0096   -4.8162   11.8362 C   0  0  0  0  0  0
   -9.9877   -4.6431   11.8236 C   0  0  0  0  0  0
   -9.1793   -4.2894   13.0875 C   0  0  0  0  0  0
   -9.1860   -4.4296   10.5284 C   0  0  0  0  0  0
   -7.8824   -5.2545   10.6545 C   0  0  0  0  0  0
   -7.2801   -5.1895    9.2579 C   0  0  0  0  0  0
   -8.4924   -5.1753    8.3132 C   0  0  0  0  0  0
   -9.7728   -5.0070    9.1902 C   0  0  0  0  0  0
  -10.6407   -4.0621    8.5566 O   0  0  0  0  0  0
   -4.6649   -3.8458   17.7740 O   0  0  0  0  0  0
   -8.9357   -2.9010   10.3588 C   0  0  0  0  0  0
  -10.5325   -6.3552    9.2918 C   0  0  0  0  0  0
  -12.0112   -6.2328    9.6856 C   0  0  0  0  0  0
  -12.6331   -7.5865   10.0009 C   0  0  0  0  0  0
  -13.9085   -7.6226   10.8394 C   0  0  0  0  0  0
  -13.5971   -7.4028   12.3210 C   0  0  0  0  0  0
  -14.8832   -7.3882   13.1372 C   0  0  0  0  0  0
  -15.7902   -6.3980   12.6373 O   0  0  0  0  0  0
  -16.1817   -6.6699   11.2858 C   0  0  0  0  0  0
  -14.9718   -6.6322   10.3610 C   0  0  0  0  0  0
  -12.1286   -8.6421    9.5978 O   0  0  0  0  0  0
   -7.2567   -3.8665   17.6965 H   0  0  0  0  0  0
   -3.6875   -4.4523   15.3797 H   0  0  0  0  0  0
   -8.6320   -4.3584   15.7410 H   0  0  0  0  0  0
   -3.9965   -5.7269   13.2208 H   0  0  0  0  0  0
   -4.3691   -4.0911   12.6595 H   0  0  0  0  0  0
   -5.9187   -6.6644   12.1440 H   0  0  0  0  0  0
   -5.1546   -5.5849   10.9799 H   0  0  0  0  0  0
   -8.0280   -6.0837   13.2608 H   0  0  0  0  0  0
   -6.7406   -3.7586   11.7198 H   0  0  0  0  0  0
  -10.9090   -4.0492   11.8079 H   0  0  0  0  0  0
  -10.2869   -5.6932   11.9194 H   0  0  0  0  0  0
   -9.0376   -3.2046   13.1570 H   0  0  0  0  0  0
   -9.7979   -4.5689   13.9485 H   0  0  0  0  0  0
   -8.1410   -6.3091   10.8329 H   0  0  0  0  0  0
   -6.6311   -6.0472    9.0531 H   0  0  0  0  0  0
   -6.6798   -4.2831    9.1204 H   0  0  0  0  0  0
   -8.5188   -6.0999    7.7256 H   0  0  0  0  0  0
   -8.3895   -4.3561    7.5910 H   0  0  0  0  0  0
  -10.7926   -4.3801    7.6426 H   0  0  0  0  0  0
   -3.7123   -3.9064   17.5474 H   0  0  0  0  0  0
   -8.3848   -2.6658    9.4426 H   0  0  0  0  0  0
   -8.3710   -2.4635   11.1854 H   0  0  0  0  0  0
   -9.8883   -2.3600   10.3110 H   0  0  0  0  0  0
  -10.0113   -7.0484    9.9608 H   0  0  0  0  0  0
  -10.5237   -6.8387    8.3047 H   0  0  0  0  0  0
  -12.5841   -5.7925    8.8620 H   0  0  0  0  0  0
  -12.1256   -5.5882   10.5573 H   0  0  0  0  0  0
  -14.3232   -8.6342   10.7236 H   0  0  0  0  0  0
  -13.0835   -6.4429   12.4536 H   0  0  0  0  0  0
  -12.9205   -8.1810   12.6921 H   0  0  0  0  0  0
  -14.6607   -7.1377   14.1792 H   0  0  0  0  0  0
  -15.3744   -8.3683   13.1293 H   0  0  0  0  0  0
  -16.9022   -5.9014   10.9889 H   0  0  0  0  0  0
  -16.6922   -7.6391   11.2418 H   0  0  0  0  0  0
  -15.2707   -6.8561    9.3309 H   0  0  0  0  0  0
  -14.5640   -5.6143   10.3657 H   0  0  0  0  0  0
  1  2  2  0  0  0
  1  4  1  0  0  0
  1 31  1  0  0  0
  2  3  1  0  0  0
  2 19  1  0  0  0
  3  6  2  0  0  0
  3 32  1  0  0  0
  4  5  2  0  0  0
  4 33  1  0  0  0
  5  6  1  0  0  0
  5  9  1  0  0  0
  6  7  1  0  0  0
  7  8  1  0  0  0
  7 34  1  0  0  0
  7 35  1  0  0  0
  8 10  1  0  0  0
  8 36  1  0  0  0
  8 37  1  0  0  0
  9 10  1  0  0  0
  9 12  1  0  0  0
  9 38  1  0  0  0
 10 14  1  0  0  0
 10 39  1  0  0  0
 11 12  1  0  0  0
 11 13  1  0  0  0
 11 40  1  0  0  0
 11 41  1  0  0  0
 12 42  1  0  0  0
 12 43  1  0  0  0
 13 14  1  0  0  0
 13 17  1  0  0  0
 13 20  1  0  0  0
 14 15  1  0  0  0
 14 44  1  0  0  0
 15 16  1  0  0  0
 15 45  1  0  0  0
 15 46  1  0  0  0
 16 17  1  0  0  0
 16 47  1  0  0  0
 16 48  1  0  0  0
 17 18  1  0  0  0
 17 21  1  0  0  0
 18 49  1  0  0  0
 19 50  1  0  0  0
 20 51  1  0  0  0
 20 52  1  0  0  0
 20 53  1  0  0  0
 21 22  1  0  0  0
 21 54  1  0  0  0
 21 55  1  0  0  0
 22 23  1  0  0  0
 22 56  1  0  0  0
 22 57  1  0  0  0
 23 24  1  0  0  0
 23 30  2  0  0  0
 24 25  1  0  0  0
 24 29  1  0  0  0
 24 58  1  0  0  0
 25 26  1  0  0  0
 25 59  1  0  0  0
 25 60  1  0  0  0
 26 27  1  0  0  0
 26 61  1  0  0  0
 26 62  1  0  0  0
 27 28  1  0  0  0
 28 29  1  0  0  0
 28 63  1  0  0  0
 28 64  1  0  0  0
 29 65  1  0  0  0
 29 66  1  0  0  0
M  END
>  <Name>
lit-61

>  <Family>
A.1

>  <RBA>
0.100000

>  <RBA_avg>
0.110000

>  <Method>
RUC

>  <set>
2

$$$$
lit-62
  Cerius2 12180216403D 1   1.00000                          
 Structure written by MMmdl.
 48 51  0  0  0  0  0  0  0  0999 V2000
   -6.7756   -4.0884   16.7466 C   0  0  0  0  0  0
   -5.3937   -4.1231   16.6539 C   0  0  0  0  0  0
   -4.7757   -4.4363   15.4502 C   0  0  0  0  0  0
   -7.5524   -4.3622   15.6181 C   0  0  0  0  0  0
   -6.9590   -4.6606   14.3780 C   0  0  0  0  0  0
   -5.5489   -4.7221   14.3093 C   0  0  0  0  0  0
   -4.8168   -5.0361   13.0250 C   0  0  0  0  0  0
   -5.7051   -5.6174   11.9293 C   0  0  0  0  0  0
   -7.8107   -5.0057   13.1564 C   0  0  0  0  0  0
   -7.0070   -4.8176   11.8349 C   0  0  0  0  0  0
   -9.9909   -4.6336   11.8208 C   0  0  0  0  0  0
   -9.1815   -4.2834   13.0853 C   0  0  0  0  0  0
   -9.1771   -4.4286   10.5281 C   0  0  0  0  0  0
   -7.8779   -5.2565   10.6539 C   0  0  0  0  0  0
   -7.2778   -5.2063    9.2499 C   0  0  0  0  0  0
   -8.4898   -5.1039    8.3041 C   0  0  0  0  0  0
   -9.7569   -5.0289    9.1945 C   0  0  0  0  0  0
  -10.6665   -4.1014    8.5844 O   0  0  0  0  0  0
   -4.6672   -3.8474   17.7740 O   0  0  0  0  0  0
   -8.9244   -2.9003   10.3553 C   0  0  0  0  0  0
  -10.5870   -6.2806    9.3949 C   0  0  0  0  0  0
  -11.7933   -6.5894    9.8939 C   0  0  0  0  0  0
  -13.2464   -5.4335   10.7051 I   0  0  0  0  0  0
   -7.2588   -3.8541   17.6925 H   0  0  0  0  0  0
   -3.6894   -4.4644   15.3826 H   0  0  0  0  0  0
   -8.6338   -4.3432   15.7363 H   0  0  0  0  0  0
   -4.0016   -5.7416   13.2260 H   0  0  0  0  0  0
   -4.3641   -4.1048   12.6611 H   0  0  0  0  0  0
   -5.9258   -6.6707   12.1465 H   0  0  0  0  0  0
   -5.1552   -5.5966   10.9819 H   0  0  0  0  0  0
   -8.0325   -6.0793   13.2602 H   0  0  0  0  0  0
   -6.7345   -3.7611   11.7165 H   0  0  0  0  0  0
  -10.9102   -4.0363   11.7949 H   0  0  0  0  0  0
  -10.3033   -5.6800   11.9201 H   0  0  0  0  0  0
   -9.0380   -3.1990   13.1569 H   0  0  0  0  0  0
   -9.8004   -4.5629   13.9459 H   0  0  0  0  0  0
   -8.1464   -6.3067   10.8423 H   0  0  0  0  0  0
   -6.6754   -6.0944    9.0355 H   0  0  0  0  0  0
   -6.6266   -4.3338    9.1231 H   0  0  0  0  0  0
   -8.5188   -5.9126    7.5721 H   0  0  0  0  0  0
   -8.3889   -4.1935    7.6981 H   0  0  0  0  0  0
  -10.8672   -4.4610    7.6956 H   0  0  0  0  0  0
   -3.7145   -3.9133   17.5492 H   0  0  0  0  0  0
   -8.3473   -2.6654    9.4560 H   0  0  0  0  0  0
   -8.3823   -2.4588   11.1952 H   0  0  0  0  0  0
   -9.8758   -2.3607   10.2799 H   0  0  0  0  0  0
  -10.0439   -7.1595    9.0301 H   0  0  0  0  0  0
  -12.0791   -7.6402    9.8448 H   0  0  0  0  0  0
  1  2  2  0  0  0
  1  4  1  0  0  0
  1 24  1  0  0  0
  2  3  1  0  0  0
  2 19  1  0  0  0
  3  6  2  0  0  0
  3 25  1  0  0  0
  4  5  2  0  0  0
  4 26  1  0  0  0
  5  6  1  0  0  0
  5  9  1  0  0  0
  6  7  1  0  0  0
  7  8  1  0  0  0
  7 27  1  0  0  0
  7 28  1  0  0  0
  8 10  1  0  0  0
  8 29  1  0  0  0
  8 30  1  0  0  0
  9 10  1  0  0  0
  9 12  1  0  0  0
  9 31  1  0  0  0
 10 14  1  0  0  0
 10 32  1  0  0  0
 11 12  1  0  0  0
 11 13  1  0  0  0
 11 33  1  0  0  0
 11 34  1  0  0  0
 12 35  1  0  0  0
 12 36  1  0  0  0
 13 14  1  0  0  0
 13 17  1  0  0  0
 13 20  1  0  0  0
 14 15  1  0  0  0
 14 37  1  0  0  0
 15 16  1  0  0  0
 15 38  1  0  0  0
 15 39  1  0  0  0
 16 17  1  0  0  0
 16 40  1  0  0  0
 16 41  1  0  0  0
 17 18  1  0  0  0
 17 21  1  0  0  0
 18 42  1  0  0  0
 19 43  1  0  0  0
 20 44  1  0  0  0
 20 45  1  0  0  0
 20 46  1  0  0  0
 21 22  2  0  0  0
 21 47  1  0  0  0
 22 23  1  0  0  0
 22 48  1  0  0  0
M  END
>  <Name>
lit-62

>  <Family>
A.1

>  <RBA>
204,50

>  <RBA_avg>
127.000000

>  <Method>
RUC,MMEC

>  <set>
0

$$$$
lit-63
  Cerius2 12180216403D 1   1.00000                          
 Structure written by MMmdl.
 48 51  0  0  0  0  0  0  0  0999 V2000
   -6.7761   -4.0905   16.7471 C   0  0  0  0  0  0
   -5.3943   -4.1249   16.6546 C   0  0  0  0  0  0
   -4.7758   -4.4360   15.4505 C   0  0  0  0  0  0
   -7.5528   -4.3626   15.6179 C   0  0  0  0  0  0
   -6.9589   -4.6594   14.3776 C   0  0  0  0  0  0
   -5.5488   -4.7206   14.3092 C   0  0  0  0  0  0
   -4.8164   -5.0332   13.0247 C   0  0  0  0  0  0
   -5.7042   -5.6160   11.9293 C   0  0  0  0  0  0
   -7.8104   -5.0040   13.1557 C   0  0  0  0  0  0
   -7.0062   -4.8166   11.8343 C   0  0  0  0  0  0
   -9.9907   -4.6306   11.8197 C   0  0  0  0  0  0
   -9.1810   -4.2811   13.0842 C   0  0  0  0  0  0
   -9.1758   -4.4275   10.5276 C   0  0  0  0  0  0
   -7.8773   -5.2566   10.6542 C   0  0  0  0  0  0
   -7.2779   -5.2119    9.2492 C   0  0  0  0  0  0
   -8.4896   -5.1030    8.3035 C   0  0  0  0  0  0
   -9.7563   -5.0277    9.1960 C   0  0  0  0  0  0
  -10.6725   -4.1071    8.5878 O   0  0  0  0  0  0
   -4.6681   -3.8509   17.7754 O   0  0  0  0  0  0
   -8.9217   -2.8997   10.3532 C   0  0  0  0  0  0
  -10.5698   -6.2897    9.3928 C   0  0  0  0  0  0
  -11.7751   -6.5721    9.9048 C   0  0  0  0  0  0
  -13.0589   -5.4707   10.6450 Br  0  0  0  0  0  0
   -7.2596   -3.8576   17.6932 H   0  0  0  0  0  0
   -3.6895   -4.4640   15.3832 H   0  0  0  0  0  0
   -8.6341   -4.3440   15.7358 H   0  0  0  0  0  0
   -3.9999   -5.7375   13.2253 H   0  0  0  0  0  0
   -4.3653   -4.1011   12.6608 H   0  0  0  0  0  0
   -5.9245   -6.6690   12.1475 H   0  0  0  0  0  0
   -5.1543   -5.5958   10.9819 H   0  0  0  0  0  0
   -8.0327   -6.0774   13.2597 H   0  0  0  0  0  0
   -6.7340   -3.7601   11.7151 H   0  0  0  0  0  0
  -10.9089   -4.0316   11.7929 H   0  0  0  0  0  0
  -10.3053   -5.6764   11.9189 H   0  0  0  0  0  0
   -9.0369   -3.1966   13.1558 H   0  0  0  0  0  0
   -9.8001   -4.5600   13.9449 H   0  0  0  0  0  0
   -8.1462   -6.3063   10.8453 H   0  0  0  0  0  0
   -6.6832   -6.1057    9.0358 H   0  0  0  0  0  0
   -6.6206   -4.3445    9.1207 H   0  0  0  0  0  0
   -8.5202   -5.9116    7.5705 H   0  0  0  0  0  0
   -8.3876   -4.1913    7.6996 H   0  0  0  0  0  0
  -10.8701   -4.4663    7.6981 H   0  0  0  0  0  0
   -3.7153   -3.9171   17.5510 H   0  0  0  0  0  0
   -8.3419   -2.6666    9.4552 H   0  0  0  0  0  0
   -8.3817   -2.4573   11.1939 H   0  0  0  0  0  0
   -9.8725   -2.3595   10.2742 H   0  0  0  0  0  0
  -10.0367   -7.1706    9.0225 H   0  0  0  0  0  0
  -12.1224   -7.6027    9.8848 H   0  0  0  0  0  0
  1  2  2  0  0  0
  1  4  1  0  0  0
  1 24  1  0  0  0
  2  3  1  0  0  0
  2 19  1  0  0  0
  3  6  2  0  0  0
  3 25  1  0  0  0
  4  5  2  0  0  0
  4 26  1  0  0  0
  5  6  1  0  0  0
  5  9  1  0  0  0
  6  7  1  0  0  0
  7  8  1  0  0  0
  7 27  1  0  0  0
  7 28  1  0  0  0
  8 10  1  0  0  0
  8 29  1  0  0  0
  8 30  1  0  0  0
  9 10  1  0  0  0
  9 12  1  0  0  0
  9 31  1  0  0  0
 10 14  1  0  0  0
 10 32  1  0  0  0
 11 12  1  0  0  0
 11 13  1  0  0  0
 11 33  1  0  0  0
 11 34  1  0  0  0
 12 35  1  0  0  0
 12 36  1  0  0  0
 13 14  1  0  0  0
 13 17  1  0  0  0
 13 20  1  0  0  0
 14 15  1  0  0  0
 14 37  1  0  0  0
 15 16  1  0  0  0
 15 38  1  0  0  0
 15 39  1  0  0  0
 16 17  1  0  0  0
 16 40  1  0  0  0
 16 41  1  0  0  0
 17 18  1  0  0  0
 17 21  1  0  0  0
 18 42  1  0  0  0
 19 43  1  0  0  0
 20 44  1  0  0  0
 20 45  1  0  0  0
 20 46  1  0  0  0
 21 22  2  0  0  0
 21 47  1  0  0  0
 22 23  1  0  0  0
 22 48  1  0  0  0
M  END
>  <Name>
lit-63

>  <Family>
A.1

>  <RBA>
195.000000

>  <RBA_avg>
195.000000

>  <Method>
RUC

>  <set>
0

$$$$
lit-64
  Cerius2 12180216403D 1   1.00000                          
 Structure written by MMmdl.
 48 51  0  0  0  0  0  0  0  0999 V2000
   -6.7765   -4.0898   16.7468 C   0  0  0  0  0  0
   -5.3946   -4.1241   16.6545 C   0  0  0  0  0  0
   -4.7760   -4.4358   15.4506 C   0  0  0  0  0  0
   -7.5529   -4.3628   15.6177 C   0  0  0  0  0  0
   -6.9590   -4.6601   14.3775 C   0  0  0  0  0  0
   -5.5489   -4.7211   14.3094 C   0  0  0  0  0  0
   -4.8163   -5.0340   13.0249 C   0  0  0  0  0  0
   -5.7039   -5.6166   11.9294 C   0  0  0  0  0  0
   -7.8103   -5.0049   13.1555 C   0  0  0  0  0  0
   -7.0060   -4.8172   11.8342 C   0  0  0  0  0  0
   -9.9908   -4.6308   11.8192 C   0  0  0  0  0  0
   -9.1813   -4.2825   13.0842 C   0  0  0  0  0  0
   -9.1753   -4.4272   10.5277 C   0  0  0  0  0  0
   -7.8771   -5.2570   10.6540 C   0  0  0  0  0  0
   -7.2777   -5.2145    9.2487 C   0  0  0  0  0  0
   -8.4888   -5.0994    8.3027 C   0  0  0  0  0  0
   -9.7558   -5.0260    9.1960 C   0  0  0  0  0  0
  -10.6750   -4.1076    8.5899 O   0  0  0  0  0  0
   -4.6685   -3.8491   17.7750 O   0  0  0  0  0  0
   -8.9203   -2.8995   10.3541 C   0  0  0  0  0  0
  -10.5619   -6.2930    9.3894 C   0  0  0  0  0  0
  -11.7654   -6.5668    9.9057 C   0  0  0  0  0  0
  -12.9008   -5.4887   10.5808 Cl  0  0  0  0  0  0
   -7.2601   -3.8565   17.6927 H   0  0  0  0  0  0
   -3.6897   -4.4636   15.3834 H   0  0  0  0  0  0
   -8.6343   -4.3443   15.7355 H   0  0  0  0  0  0
   -4.0002   -5.7386   13.2259 H   0  0  0  0  0  0
   -4.3647   -4.1021   12.6611 H   0  0  0  0  0  0
   -5.9243   -6.6697   12.1474 H   0  0  0  0  0  0
   -5.1540   -5.5962   10.9820 H   0  0  0  0  0  0
   -8.0323   -6.0785   13.2594 H   0  0  0  0  0  0
   -6.7337   -3.7607   11.7153 H   0  0  0  0  0  0
  -10.9087   -4.0312   11.7925 H   0  0  0  0  0  0
  -10.3064   -5.6764   11.9173 H   0  0  0  0  0  0
   -9.0375   -3.1982   13.1568 H   0  0  0  0  0  0
   -9.8004   -4.5625   13.9444 H   0  0  0  0  0  0
   -8.1461   -6.3066   10.8460 H   0  0  0  0  0  0
   -6.6890   -6.1121    9.0349 H   0  0  0  0  0  0
   -6.6157   -4.3506    9.1202 H   0  0  0  0  0  0
   -8.5197   -5.9065    7.5671 H   0  0  0  0  0  0
   -8.3858   -4.1857    7.7022 H   0  0  0  0  0  0
  -10.8679   -4.4629    7.6977 H   0  0  0  0  0  0
   -3.7157   -3.9148   17.5505 H   0  0  0  0  0  0
   -8.3383   -2.6665    9.4575 H   0  0  0  0  0  0
   -8.3820   -2.4574   11.1960 H   0  0  0  0  0  0
   -9.8707   -2.3590   10.2732 H   0  0  0  0  0  0
  -10.0326   -7.1741    9.0162 H   0  0  0  0  0  0
  -12.1582   -7.5789    9.9054 H   0  0  0  0  0  0
  1  2  2  0  0  0
  1  4  1  0  0  0
  1 24  1  0  0  0
  2  3  1  0  0  0
  2 19  1  0  0  0
  3  6  2  0  0  0
  3 25  1  0  0  0
  4  5  2  0  0  0
  4 26  1  0  0  0
  5  6  1  0  0  0
  5  9  1  0  0  0
  6  7  1  0  0  0
  7  8  1  0  0  0
  7 27  1  0  0  0
  7 28  1  0  0  0
  8 10  1  0  0  0
  8 29  1  0  0  0
  8 30  1  0  0  0
  9 10  1  0  0  0
  9 12  1  0  0  0
  9 31  1  0  0  0
 10 14  1  0  0  0
 10 32  1  0  0  0
 11 12  1  0  0  0
 11 13  1  0  0  0
 11 33  1  0  0  0
 11 34  1  0  0  0
 12 35  1  0  0  0
 12 36  1  0  0  0
 13 14  1  0  0  0
 13 17  1  0  0  0
 13 20  1  0  0  0
 14 15  1  0  0  0
 14 37  1  0  0  0
 15 16  1  0  0  0
 15 38  1  0  0  0
 15 39  1  0  0  0
 16 17  1  0  0  0
 16 40  1  0  0  0
 16 41  1  0  0  0
 17 18  1  0  0  0
 17 21  1  0  0  0
 18 42  1  0  0  0
 19 43  1  0  0  0
 20 44  1  0  0  0
 20 45  1  0  0  0
 20 46  1  0  0  0
 21 22  2  0  0  0
 21 47  1  0  0  0
 22 23  1  0  0  0
 22 48  1  0  0  0
M  END
>  <Name>
lit-64

>  <Family>
A.1

>  <RBA>
126.000000

>  <RBA_avg>
126.000000

>  <Method>
RUC

>  <set>
0

$$$$
lit-65
  Cerius2 12180216403D 1   1.00000                          
 Structure written by MMmdl.
 59 63  0  0  0  0  0  0  0  0999 V2000
   -6.7755   -4.0896   16.7471 C   0  0  0  0  0  0
   -5.3937   -4.1238   16.6542 C   0  0  0  0  0  0
   -4.7756   -4.4360   15.4501 C   0  0  0  0  0  0
   -7.5525   -4.3628   15.6184 C   0  0  0  0  0  0
   -6.9591   -4.6604   14.3780 C   0  0  0  0  0  0
   -5.5490   -4.7215   14.3093 C   0  0  0  0  0  0
   -4.8168   -5.0352   13.0250 C   0  0  0  0  0  0
   -5.7050   -5.6168   11.9294 C   0  0  0  0  0  0
   -7.8108   -5.0052   13.1563 C   0  0  0  0  0  0
   -7.0067   -4.8165   11.8350 C   0  0  0  0  0  0
   -9.9910   -4.6319   11.8202 C   0  0  0  0  0  0
   -9.1816   -4.2827   13.0851 C   0  0  0  0  0  0
   -9.1766   -4.4274   10.5277 C   0  0  0  0  0  0
   -7.8776   -5.2558   10.6546 C   0  0  0  0  0  0
   -7.2775   -5.2116    9.2500 C   0  0  0  0  0  0
   -8.4886   -5.1009    8.3034 C   0  0  0  0  0  0
   -9.7566   -5.0282    9.1948 C   0  0  0  0  0  0
  -10.6708   -4.1056    8.5849 O   0  0  0  0  0  0
   -4.6671   -3.8486   17.7744 O   0  0  0  0  0  0
   -8.9227   -2.8995   10.3542 C   0  0  0  0  0  0
  -10.5767   -6.2871    9.3972 C   0  0  0  0  0  0
  -11.7834   -6.5812    9.9068 C   0  0  0  0  0  0
  -12.9336   -5.4873   10.5791 S   0  0  0  0  0  0
  -14.4357   -6.3376   10.1318 C   0  0  0  0  0  0
  -14.8993   -6.3146    8.8115 C   0  0  0  0  0  0
  -16.0832   -6.9720    8.4698 C   0  0  0  0  0  0
  -16.8117   -7.6497    9.4463 C   0  0  0  0  0  0
  -16.3593   -7.6690   10.7649 C   0  0  0  0  0  0
  -15.1752   -7.0122   11.1082 C   0  0  0  0  0  0
   -7.2588   -3.8561   17.6932 H   0  0  0  0  0  0
   -3.6894   -4.4637   15.3824 H   0  0  0  0  0  0
   -8.6338   -4.3443   15.7366 H   0  0  0  0  0  0
   -4.0014   -5.7407   13.2259 H   0  0  0  0  0  0
   -4.3643   -4.1037   12.6612 H   0  0  0  0  0  0
   -5.9261   -6.6699   12.1466 H   0  0  0  0  0  0
   -5.1553   -5.5960   10.9819 H   0  0  0  0  0  0
   -8.0326   -6.0788   13.2599 H   0  0  0  0  0  0
   -6.7344   -3.7599   11.7166 H   0  0  0  0  0  0
  -10.9097   -4.0338   11.7940 H   0  0  0  0  0  0
  -10.3046   -5.6780   11.9192 H   0  0  0  0  0  0
   -9.0380   -3.1984   13.1573 H   0  0  0  0  0  0
   -9.8007   -4.5625   13.9454 H   0  0  0  0  0  0
   -8.1460   -6.3050   10.8471 H   0  0  0  0  0  0
   -6.6843   -6.1065    9.0368 H   0  0  0  0  0  0
   -6.6189   -4.3451    9.1219 H   0  0  0  0  0  0
   -8.5174   -5.9066    7.5667 H   0  0  0  0  0  0
   -8.3861   -4.1872    7.7026 H   0  0  0  0  0  0
  -10.8691   -4.4670    7.6962 H   0  0  0  0  0  0
   -3.7145   -3.9143   17.5493 H   0  0  0  0  0  0
   -8.3401   -2.6661    9.4580 H   0  0  0  0  0  0
   -8.3853   -2.4570   11.1965 H   0  0  0  0  0  0
   -9.8735   -2.3598   10.2726 H   0  0  0  0  0  0
  -10.0443   -7.1652    9.0174 H   0  0  0  0  0  0
  -12.0816   -7.6298    9.8743 H   0  0  0  0  0  0
  -14.3442   -5.7865    8.0381 H   0  0  0  0  0  0
  -16.4376   -6.9536    7.4407 H   0  0  0  0  0  0
  -17.7348   -8.1617    9.1798 H   0  0  0  0  0  0
  -16.9296   -8.1954   11.5284 H   0  0  0  0  0  0
  -14.8375   -7.0351   12.1428 H   0  0  0  0  0  0
  1  2  2  0  0  0
  1  4  1  0  0  0
  1 30  1  0  0  0
  2  3  1  0  0  0
  2 19  1  0  0  0
  3  6  2  0  0  0
  3 31  1  0  0  0
  4  5  2  0  0  0
  4 32  1  0  0  0
  5  6  1  0  0  0
  5  9  1  0  0  0
  6  7  1  0  0  0
  7  8  1  0  0  0
  7 33  1  0  0  0
  7 34  1  0  0  0
  8 10  1  0  0  0
  8 35  1  0  0  0
  8 36  1  0  0  0
  9 10  1  0  0  0
  9 12  1  0  0  0
  9 37  1  0  0  0
 10 14  1  0  0  0
 10 38  1  0  0  0
 11 12  1  0  0  0
 11 13  1  0  0  0
 11 39  1  0  0  0
 11 40  1  0  0  0
 12 41  1  0  0  0
 12 42  1  0  0  0
 13 14  1  0  0  0
 13 17  1  0  0  0
 13 20  1  0  0  0
 14 15  1  0  0  0
 14 43  1  0  0  0
 15 16  1  0  0  0
 15 44  1  0  0  0
 15 45  1  0  0  0
 16 17  1  0  0  0
 16 46  1  0  0  0
 16 47  1  0  0  0
 17 18  1  0  0  0
 17 21  1  0  0  0
 18 48  1  0  0  0
 19 49  1  0  0  0
 20 50  1  0  0  0
 20 51  1  0  0  0
 20 52  1  0  0  0
 21 22  2  0  0  0
 21 53  1  0  0  0
 22 23  1  0  0  0
 22 54  1  0  0  0
 23 24  1  0  0  0
 24 25  2  0  0  0
 24 29  1  0  0  0
 25 26  1  0  0  0
 25 55  1  0  0  0
 26 27  2  0  0  0
 26 56  1  0  0  0
 27 28  1  0  0  0
 27 57  1  0  0  0
 28 29  2  0  0  0
 28 58  1  0  0  0
 29 59  1  0  0  0
M  END
>  <Name>
lit-65

>  <Family>
A.1

>  <RBA>
102.000000

>  <RBA_avg>
102.000000

>  <Method>
RUC

>  <set>
1

$$$$
lit-66
  Cerius2 12180216403D 1   1.00000                          
 Structure written by MMmdl.
 48 51  0  0  0  0  0  0  0  0999 V2000
   -6.7573   -4.0676   16.7477 C   0  0  0  0  0  0
   -5.3772   -4.1353   16.6484 C   0  0  0  0  0  0
   -4.7731   -4.4694   15.4433 C   0  0  0  0  0  0
   -7.5460   -4.3280   15.6242 C   0  0  0  0  0  0
   -6.9663   -4.6459   14.3822 C   0  0  0  0  0  0
   -5.5587   -4.7429   14.3078 C   0  0  0  0  0  0
   -4.8404   -5.0842   13.0228 C   0  0  0  0  0  0
   -5.7480   -5.6625   11.9419 C   0  0  0  0  0  0
   -7.8344   -4.9736   13.1664 C   0  0  0  0  0  0
   -7.0293   -4.8313   11.8394 C   0  0  0  0  0  0
  -10.0158   -4.5324   11.8433 C   0  0  0  0  0  0
   -9.1747   -4.1957   13.0918 C   0  0  0  0  0  0
   -9.2000   -4.4256   10.5443 C   0  0  0  0  0  0
   -7.9158   -5.2707   10.6702 C   0  0  0  0  0  0
   -7.3312   -5.2431    9.2587 C   0  0  0  0  0  0
   -8.5529   -5.1444    8.3192 C   0  0  0  0  0  0
   -9.8154   -5.0168    9.2270 C   0  0  0  0  0  0
  -10.7309   -4.0672    8.6664 O   0  0  0  0  0  0
   -4.6387   -3.8714   17.7634 O   0  0  0  0  0  0
   -8.8975   -2.9033   10.3276 C   0  0  0  0  0  0
  -10.5630   -6.3357    9.1903 C   0  0  0  0  0  0
  -11.7726   -6.6638    9.6555 C   0  0  0  0  0  0
  -12.4287   -8.2402    9.4654 Cl  0  0  0  0  0  0
   -7.2302   -3.8175   17.6948 H   0  0  0  0  0  0
   -3.6880   -4.5246   15.3708 H   0  0  0  0  0  0
   -8.6259   -4.2835   15.7480 H   0  0  0  0  0  0
   -4.0371   -5.8026   13.2264 H   0  0  0  0  0  0
   -4.3731   -4.1658   12.6450 H   0  0  0  0  0  0
   -5.9940   -6.7057   12.1789 H   0  0  0  0  0  0
   -5.2030   -5.6718   10.9915 H   0  0  0  0  0  0
   -8.0976   -6.0362   13.2838 H   0  0  0  0  0  0
   -6.7290   -3.7849   11.7011 H   0  0  0  0  0  0
  -10.8895   -3.8703   11.8030 H   0  0  0  0  0  0
  -10.4140   -5.5376   11.9882 H   0  0  0  0  0  0
   -8.9826   -3.1173   13.1393 H   0  0  0  0  0  0
   -9.7971   -4.4277   13.9639 H   0  0  0  0  0  0
   -8.1821   -6.3165   10.8694 H   0  0  0  0  0  0
   -6.7462   -6.1449    9.0489 H   0  0  0  0  0  0
   -6.6701   -4.3816    9.1120 H   0  0  0  0  0  0
   -8.5941   -6.0239    7.6649 H   0  0  0  0  0  0
   -8.4449   -4.2775    7.6559 H   0  0  0  0  0  0
  -10.7900   -4.2593    7.7082 H   0  0  0  0  0  0
   -3.6890   -3.9605   17.5341 H   0  0  0  0  0  0
   -8.3345   -2.7076    9.4102 H   0  0  0  0  0  0
   -8.3226   -2.4608   11.1447 H   0  0  0  0  0  0
   -9.8303   -2.3307   10.2599 H   0  0  0  0  0  0
   -9.9919   -7.1431    8.7282 H   0  0  0  0  0  0
  -12.4516   -6.0237   10.1985 H   0  0  0  0  0  0
  1  2  2  0  0  0
  1  4  1  0  0  0
  1 24  1  0  0  0
  2  3  1  0  0  0
  2 19  1  0  0  0
  3  6  2  0  0  0
  3 25  1  0  0  0
  4  5  2  0  0  0
  4 26  1  0  0  0
  5  6  1  0  0  0
  5  9  1  0  0  0
  6  7  1  0  0  0
  7  8  1  0  0  0
  7 27  1  0  0  0
  7 28  1  0  0  0
  8 10  1  0  0  0
  8 29  1  0  0  0
  8 30  1  0  0  0
  9 10  1  0  0  0
  9 12  1  0  0  0
  9 31  1  0  0  0
 10 14  1  0  0  0
 10 32  1  0  0  0
 11 12  1  0  0  0
 11 13  1  0  0  0
 11 33  1  0  0  0
 11 34  1  0  0  0
 12 35  1  0  0  0
 12 36  1  0  0  0
 13 14  1  0  0  0
 13 17  1  0  0  0
 13 20  1  0  0  0
 14 15  1  0  0  0
 14 37  1  0  0  0
 15 16  1  0  0  0
 15 38  1  0  0  0
 15 39  1  0  0  0
 16 17  1  0  0  0
 16 40  1  0  0  0
 16 41  1  0  0  0
 17 18  1  0  0  0
 17 21  1  0  0  0
 18 42  1  0  0  0
 19 43  1  0  0  0
 20 44  1  0  0  0
 20 45  1  0  0  0
 20 46  1  0  0  0
 21 22  2  0  0  0
 21 47  1  0  0  0
 22 23  1  0  0  0
 22 48  1  0  0  0
M  END
>  <Name>
lit-66

>  <Family>
A.1

>  <RBA>
102.000000

>  <RBA_avg>
102.000000

>  <Method>
RUC

>  <set>
0

$$$$
lit-67
  Cerius2 12180216403D 1   1.00000                          
 Structure written by MMmdl.
 48 51  0  0  0  0  0  0  0  0999 V2000
   -6.7819   -4.1054   16.7497 C   0  0  0  0  0  0
   -5.3999   -4.1336   16.6592 C   0  0  0  0  0  0
   -4.7786   -4.4348   15.4541 C   0  0  0  0  0  0
   -7.5556   -4.3726   15.6174 C   0  0  0  0  0  0
   -6.9592   -4.6577   14.3754 C   0  0  0  0  0  0
   -5.5487   -4.7147   14.3097 C   0  0  0  0  0  0
   -4.8128   -5.0191   13.0255 C   0  0  0  0  0  0
   -5.6966   -5.6085   11.9311 C   0  0  0  0  0  0
   -7.8096   -4.9931   13.1494 C   0  0  0  0  0  0
   -6.9998   -4.8118   11.8300 C   0  0  0  0  0  0
   -9.9934   -4.5946   11.8165 C   0  0  0  0  0  0
   -9.1701   -4.2509   13.0750 C   0  0  0  0  0  0
   -9.1722   -4.4499   10.5247 C   0  0  0  0  0  0
   -7.8656   -5.2606   10.6490 C   0  0  0  0  0  0
   -7.2728   -5.1985    9.2420 C   0  0  0  0  0  0
   -8.4906   -5.1235    8.2955 C   0  0  0  0  0  0
   -9.7622   -5.0409    9.1958 C   0  0  0  0  0  0
  -10.6987   -4.1086    8.6407 O   0  0  0  0  0  0
   -4.6764   -3.8639   17.7827 O   0  0  0  0  0  0
   -8.9102   -2.9172   10.3288 C   0  0  0  0  0  0
  -10.4757   -6.3785    9.1358 C   0  0  0  0  0  0
  -11.6563   -6.8629    9.5407 C   0  0  0  0  0  0
  -12.1899   -8.6243    9.2740 Br  0  0  0  0  0  0
   -7.2679   -3.8811   17.6966 H   0  0  0  0  0  0
   -3.6920   -4.4587   15.3884 H   0  0  0  0  0  0
   -8.6371   -4.3597   15.7342 H   0  0  0  0  0  0
   -3.9909   -5.7173   13.2254 H   0  0  0  0  0  0
   -4.3691   -4.0830   12.6628 H   0  0  0  0  0  0
   -5.9153   -6.6610   12.1533 H   0  0  0  0  0  0
   -5.1453   -5.5905   10.9844 H   0  0  0  0  0  0
   -8.0446   -6.0640   13.2513 H   0  0  0  0  0  0
   -6.7276   -3.7559   11.7070 H   0  0  0  0  0  0
  -10.8843   -3.9555   11.7782 H   0  0  0  0  0  0
  -10.3660   -5.6117   11.9464 H   0  0  0  0  0  0
   -9.0074   -3.1684   13.1370 H   0  0  0  0  0  0
   -9.7917   -4.5104   13.9397 H   0  0  0  0  0  0
   -8.1034   -6.3158   10.8330 H   0  0  0  0  0  0
   -6.6606   -6.0804    9.0253 H   0  0  0  0  0  0
   -6.6360   -4.3166    9.1106 H   0  0  0  0  0  0
   -8.5030   -5.9968    7.6318 H   0  0  0  0  0  0
   -8.4025   -4.2468    7.6422 H   0  0  0  0  0  0
  -10.7446   -4.2884    7.6794 H   0  0  0  0  0  0
   -3.7230   -3.9233   17.5587 H   0  0  0  0  0  0
   -8.3473   -2.6947    9.4174 H   0  0  0  0  0  0
   -8.3524   -2.4695   11.1550 H   0  0  0  0  0  0
   -9.8578   -2.3695   10.2624 H   0  0  0  0  0  0
   -9.8779   -7.1630    8.6673 H   0  0  0  0  0  0
  -12.4052   -6.2951   10.0741 H   0  0  0  0  0  0
  1  2  2  0  0  0
  1  4  1  0  0  0
  1 24  1  0  0  0
  2  3  1  0  0  0
  2 19  1  0  0  0
  3  6  2  0  0  0
  3 25  1  0  0  0
  4  5  2  0  0  0
  4 26  1  0  0  0
  5  6  1  0  0  0
  5  9  1  0  0  0
  6  7  1  0  0  0
  7  8  1  0  0  0
  7 27  1  0  0  0
  7 28  1  0  0  0
  8 10  1  0  0  0
  8 29  1  0  0  0
  8 30  1  0  0  0
  9 10  1  0  0  0
  9 12  1  0  0  0
  9 31  1  0  0  0
 10 14  1  0  0  0
 10 32  1  0  0  0
 11 12  1  0  0  0
 11 13  1  0  0  0
 11 33  1  0  0  0
 11 34  1  0  0  0
 12 35  1  0  0  0
 12 36  1  0  0  0
 13 14  1  0  0  0
 13 17  1  0  0  0
 13 20  1  0  0  0
 14 15  1  0  0  0
 14 37  1  0  0  0
 15 16  1  0  0  0
 15 38  1  0  0  0
 15 39  1  0  0  0
 16 17  1  0  0  0
 16 40  1  0  0  0
 16 41  1  0  0  0
 17 18  1  0  0  0
 17 21  1  0  0  0
 18 42  1  0  0  0
 19 43  1  0  0  0
 20 44  1  0  0  0
 20 45  1  0  0  0
 20 46  1  0  0  0
 21 22  2  0  0  0
 21 47  1  0  0  0
 22 23  1  0  0  0
 22 48  1  0  0  0
M  END
>  <Name>
lit-67

>  <Family>
A.1

>  <RBA>
78.000000

>  <RBA_avg>
78.000000

>  <Method>
RUC

>  <set>
0

$$$$
lit-68
  Cerius2 12180216403D 1   1.00000                          
 Structure written by MMmdl.
 48 51  0  0  0  0  0  0  0  0999 V2000
   -6.7471   -4.0397   16.7408 C   0  0  0  0  0  0
   -5.3685   -4.1311   16.6407 C   0  0  0  0  0  0
   -4.7713   -4.4870   15.4383 C   0  0  0  0  0  0
   -7.5414   -4.2986   15.6209 C   0  0  0  0  0  0
   -6.9686   -4.6382   14.3814 C   0  0  0  0  0  0
   -5.5627   -4.7588   14.3065 C   0  0  0  0  0  0
   -4.8517   -5.1241   13.0241 C   0  0  0  0  0  0
   -5.7697   -5.6973   11.9495 C   0  0  0  0  0  0
   -7.8432   -4.9636   13.1698 C   0  0  0  0  0  0
   -7.0376   -4.8463   11.8408 C   0  0  0  0  0  0
  -10.0195   -4.4993   11.8453 C   0  0  0  0  0  0
   -9.1713   -4.1652   13.0897 C   0  0  0  0  0  0
   -9.2035   -4.4188   10.5445 C   0  0  0  0  0  0
   -7.9320   -5.2821   10.6764 C   0  0  0  0  0  0
   -7.3491   -5.2757    9.2641 C   0  0  0  0  0  0
   -8.5707   -5.1686    8.3254 C   0  0  0  0  0  0
   -9.8301   -5.0114    9.2331 C   0  0  0  0  0  0
  -10.7287   -4.0497    8.6656 O   0  0  0  0  0  0
   -4.6243   -3.8679   17.7522 O   0  0  0  0  0  0
   -8.8768   -2.9034   10.3137 C   0  0  0  0  0  0
  -10.6036   -6.3177    9.2044 C   0  0  0  0  0  0
  -11.8232   -6.6242    9.6700 C   0  0  0  0  0  0
  -12.6306   -8.5034    9.4897 I   0  0  0  0  0  0
   -7.2147   -3.7724   17.6859 H   0  0  0  0  0  0
   -3.6874   -4.5603   15.3651 H   0  0  0  0  0  0
   -8.6203   -4.2350   15.7455 H   0  0  0  0  0  0
   -4.0601   -5.8537   13.2337 H   0  0  0  0  0  0
   -4.3696   -4.2170   12.6373 H   0  0  0  0  0  0
   -6.0325   -6.7340   12.1963 H   0  0  0  0  0  0
   -5.2261   -5.7241   10.9986 H   0  0  0  0  0  0
   -8.1233   -6.0208   13.2973 H   0  0  0  0  0  0
   -6.7205   -3.8063   11.6926 H   0  0  0  0  0  0
  -10.8816   -3.8224   11.7997 H   0  0  0  0  0  0
  -10.4358   -5.4956   12.0005 H   0  0  0  0  0  0
   -8.9619   -3.0897   13.1273 H   0  0  0  0  0  0
   -9.7960   -4.3794   13.9646 H   0  0  0  0  0  0
   -8.2126   -6.3221   10.8848 H   0  0  0  0  0  0
   -6.7772   -6.1875    9.0618 H   0  0  0  0  0  0
   -6.6762   -4.4250    9.1086 H   0  0  0  0  0  0
   -8.6263   -6.0548    7.6813 H   0  0  0  0  0  0
   -8.4502   -4.3110    7.6522 H   0  0  0  0  0  0
  -10.7886   -4.2452    7.7082 H   0  0  0  0  0  0
   -3.6764   -3.9749   17.5228 H   0  0  0  0  0  0
   -8.3127   -2.7250    9.3933 H   0  0  0  0  0  0
   -8.2930   -2.4630   11.1256 H   0  0  0  0  0  0
   -9.8002   -2.3163   10.2429 H   0  0  0  0  0  0
  -10.0392   -7.1325    8.7464 H   0  0  0  0  0  0
  -12.4553   -5.9141   10.1859 H   0  0  0  0  0  0
  1  2  2  0  0  0
  1  4  1  0  0  0
  1 24  1  0  0  0
  2  3  1  0  0  0
  2 19  1  0  0  0
  3  6  2  0  0  0
  3 25  1  0  0  0
  4  5  2  0  0  0
  4 26  1  0  0  0
  5  6  1  0  0  0
  5  9  1  0  0  0
  6  7  1  0  0  0
  7  8  1  0  0  0
  7 27  1  0  0  0
  7 28  1  0  0  0
  8 10  1  0  0  0
  8 29  1  0  0  0
  8 30  1  0  0  0
  9 10  1  0  0  0
  9 12  1  0  0  0
  9 31  1  0  0  0
 10 14  1  0  0  0
 10 32  1  0  0  0
 11 12  1  0  0  0
 11 13  1  0  0  0
 11 33  1  0  0  0
 11 34  1  0  0  0
 12 35  1  0  0  0
 12 36  1  0  0  0
 13 14  1  0  0  0
 13 17  1  0  0  0
 13 20  1  0  0  0
 14 15  1  0  0  0
 14 37  1  0  0  0
 15 16  1  0  0  0
 15 38  1  0  0  0
 15 39  1  0  0  0
 16 17  1  0  0  0
 16 40  1  0  0  0
 16 41  1  0  0  0
 17 18  1  0  0  0
 17 21  1  0  0  0
 18 42  1  0  0  0
 19 43  1  0  0  0
 20 44  1  0  0  0
 20 45  1  0  0  0
 20 46  1  0  0  0
 21 22  2  0  0  0
 21 47  1  0  0  0
 22 23  1  0  0  0
 22 48  1  0  0  0
M  END
>  <Name>
lit-68

>  <Family>
A.1

>  <RBA>
78,40

>  <RBA_avg>
59.000000

>  <Method>
RUC,MMEC

>  <set>
0

$$$$
lit-69
  Cerius2 12180216403D 1   1.00000                          
 Structure written by MMmdl.
 59 63  0  0  0  0  0  0  0  0999 V2000
   -6.7828   -4.1046   16.7484 C   0  0  0  0  0  0
   -5.4007   -4.1283   16.6570 C   0  0  0  0  0  0
   -4.7791   -4.4308   15.4523 C   0  0  0  0  0  0
   -7.5563   -4.3766   15.6170 C   0  0  0  0  0  0
   -6.9595   -4.6622   14.3753 C   0  0  0  0  0  0
   -5.5490   -4.7163   14.3092 C   0  0  0  0  0  0
   -4.8129   -5.0238   13.0257 C   0  0  0  0  0  0
   -5.6974   -5.6130   11.9316 C   0  0  0  0  0  0
   -7.8097   -4.9989   13.1494 C   0  0  0  0  0  0
   -6.9997   -4.8149   11.8307 C   0  0  0  0  0  0
   -9.9938   -4.5965   11.8170 C   0  0  0  0  0  0
   -9.1708   -4.2578   13.0766 C   0  0  0  0  0  0
   -9.1716   -4.4503   10.5258 C   0  0  0  0  0  0
   -7.8648   -5.2607   10.6484 C   0  0  0  0  0  0
   -7.2726   -5.1964    9.2415 C   0  0  0  0  0  0
   -8.4909   -5.1221    8.2954 C   0  0  0  0  0  0
   -9.7629   -5.0373    9.1955 C   0  0  0  0  0  0
  -10.6951   -4.0993    8.6420 O   0  0  0  0  0  0
   -4.6774   -3.8532   17.7794 O   0  0  0  0  0  0
   -8.9081   -2.9170   10.3339 C   0  0  0  0  0  0
  -10.4823   -6.3732    9.1302 C   0  0  0  0  0  0
  -11.6930   -6.7365    9.5795 C   0  0  0  0  0  0
  -12.2662   -8.3649    9.3865 S   0  0  0  0  0  0
  -13.7612   -8.2560   10.3537 C   0  0  0  0  0  0
  -13.7110   -8.3393   11.7495 C   0  0  0  0  0  0
  -14.8850   -8.2594   12.5016 C   0  0  0  0  0  0
  -16.1138   -8.1008   11.8626 C   0  0  0  0  0  0
  -16.1709   -8.0241   10.4717 C   0  0  0  0  0  0
  -14.9975   -8.1039    9.7179 C   0  0  0  0  0  0
   -7.2689   -3.8798   17.6952 H   0  0  0  0  0  0
   -3.6925   -4.4510   15.3861 H   0  0  0  0  0  0
   -8.6377   -4.3663   15.7343 H   0  0  0  0  0  0
   -3.9927   -5.7235   13.2273 H   0  0  0  0  0  0
   -4.3669   -4.0893   12.6617 H   0  0  0  0  0  0
   -5.9172   -6.6653   12.1545 H   0  0  0  0  0  0
   -5.1461   -5.5965   10.9849 H   0  0  0  0  0  0
   -8.0432   -6.0701   13.2504 H   0  0  0  0  0  0
   -6.7263   -3.7590   11.7098 H   0  0  0  0  0  0
  -10.8832   -3.9553   11.7796 H   0  0  0  0  0  0
  -10.3696   -5.6127   11.9446 H   0  0  0  0  0  0
   -9.0093   -3.1754   13.1424 H   0  0  0  0  0  0
   -9.7926   -4.5213   13.9402 H   0  0  0  0  0  0
   -8.0999   -6.3164   10.8299 H   0  0  0  0  0  0
   -6.6595   -6.0774    9.0237 H   0  0  0  0  0  0
   -6.6367   -4.3137    9.1105 H   0  0  0  0  0  0
   -8.5036   -5.9970    7.6339 H   0  0  0  0  0  0
   -8.4023   -4.2470    7.6400 H   0  0  0  0  0  0
  -10.7464   -4.2809    7.6815 H   0  0  0  0  0  0
   -3.7240   -3.9079   17.5546 H   0  0  0  0  0  0
   -8.3446   -2.6927    9.4235 H   0  0  0  0  0  0
   -8.3505   -2.4718   11.1616 H   0  0  0  0  0  0
   -9.8550   -2.3679   10.2684 H   0  0  0  0  0  0
   -9.8798   -7.1548    8.6614 H   0  0  0  0  0  0
  -12.3457   -6.0389   10.0891 H   0  0  0  0  0  0
  -12.7598   -8.4657   12.2636 H   0  0  0  0  0  0
  -14.8401   -8.3224   13.5874 H   0  0  0  0  0  0
  -17.0288   -8.0387   12.4495 H   0  0  0  0  0  0
  -17.1304   -7.9024    9.9721 H   0  0  0  0  0  0
  -15.0598   -8.0437    8.6328 H   0  0  0  0  0  0
  1  2  2  0  0  0
  1  4  1  0  0  0
  1 30  1  0  0  0
  2  3  1  0  0  0
  2 19  1  0  0  0
  3  6  2  0  0  0
  3 31  1  0  0  0
  4  5  2  0  0  0
  4 32  1  0  0  0
  5  6  1  0  0  0
  5  9  1  0  0  0
  6  7  1  0  0  0
  7  8  1  0  0  0
  7 33  1  0  0  0
  7 34  1  0  0  0
  8 10  1  0  0  0
  8 35  1  0  0  0
  8 36  1  0  0  0
  9 10  1  0  0  0
  9 12  1  0  0  0
  9 37  1  0  0  0
 10 14  1  0  0  0
 10 38  1  0  0  0
 11 12  1  0  0  0
 11 13  1  0  0  0
 11 39  1  0  0  0
 11 40  1  0  0  0
 12 41  1  0  0  0
 12 42  1  0  0  0
 13 14  1  0  0  0
 13 17  1  0  0  0
 13 20  1  0  0  0
 14 15  1  0  0  0
 14 43  1  0  0  0
 15 16  1  0  0  0
 15 44  1  0  0  0
 15 45  1  0  0  0
 16 17  1  0  0  0
 16 46  1  0  0  0
 16 47  1  0  0  0
 17 18  1  0  0  0
 17 21  1  0  0  0
 18 48  1  0  0  0
 19 49  1  0  0  0
 20 50  1  0  0  0
 20 51  1  0  0  0
 20 52  1  0  0  0
 21 22  2  0  0  0
 21 53  1  0  0  0
 22 23  1  0  0  0
 22 54  1  0  0  0
 23 24  1  0  0  0
 24 25  2  0  0  0
 24 29  1  0  0  0
 25 26  1  0  0  0
 25 55  1  0  0  0
 26 27  2  0  0  0
 26 56  1  0  0  0
 27 28  1  0  0  0
 27 57  1  0  0  0
 28 29  2  0  0  0
 28 58  1  0  0  0
 29 59  1  0  0  0
M  END
>  <Name>
lit-69

>  <Family>
A.1

>  <RBA>
25.000000

>  <RBA_avg>
25.000000

>  <Method>
RUC

>  <set>
0

$$$$
lit-70
  Cerius2 12180216403D 1   1.00000                          
 Structure written by MMmdl.
 50 53  0  0  0  0  0  0  0  0999 V2000
   -6.7802   -4.3518   16.8118 C   0  0  0  0  0  0
   -5.3983   -4.3159   16.7180 C   0  0  0  0  0  0
   -4.7710   -4.4451   15.4850 C   0  0  0  0  0  0
   -7.5470   -4.5004   15.6541 C   0  0  0  0  0  0
   -6.9446   -4.5935   14.3853 C   0  0  0  0  0  0
   -5.5353   -4.6100   14.3153 C   0  0  0  0  0  0
   -4.8034   -4.7731   13.0056 C   0  0  0  0  0  0
   -5.6651   -5.4073   11.9189 C   0  0  0  0  0  0
   -7.8002   -4.7863   13.1330 C   0  0  0  0  0  0
   -6.9877   -4.6484   11.8053 C   0  0  0  0  0  0
   -9.9530   -4.3459   11.7781 C   0  0  0  0  0  0
   -9.1456   -3.9742   13.0618 C   0  0  0  0  0  0
   -9.1402   -4.3321   10.4690 C   0  0  0  0  0  0
   -7.8683   -5.1792   10.6721 C   0  0  0  0  0  0
   -7.3117   -5.3259    9.2606 C   0  0  0  0  0  0
   -8.5766   -5.4705    8.3903 C   0  0  0  0  0  0
   -9.7737   -5.1368    9.3087 C   0  0  0  0  0  0
  -10.7855   -4.4208    8.6172 O   0  0  0  0  0  0
   -4.6801   -4.1633   17.8667 O   0  0  0  0  0  0
   -8.8874   -2.8793    9.9955 C   0  0  0  0  0  0
  -10.2210   -1.6347   13.2308 C   0  0  0  0  0  0
   -8.9423   -2.4583   13.2996 C   0  0  0  0  0  0
   -7.2701   -4.2684   17.7792 H   0  0  0  0  0  0
   -3.6844   -4.4313   15.4189 H   0  0  0  0  0  0
   -8.6293   -4.5425   15.7624 H   0  0  0  0  0  0
   -3.9139   -5.3980   13.1513 H   0  0  0  0  0  0
   -4.4619   -3.7835   12.6771 H   0  0  0  0  0  0
   -5.8521   -6.4633   12.1525 H   0  0  0  0  0  0
   -5.1150   -5.3791   10.9716 H   0  0  0  0  0  0
   -8.1019   -5.8447   13.2020 H   0  0  0  0  0  0
   -6.7403   -3.5953   11.6296 H   0  0  0  0  0  0
  -10.8534   -3.7304   11.6803 H   0  0  0  0  0  0
  -10.3297   -5.3674   11.9336 H   0  0  0  0  0  0
   -9.7785   -4.3152   13.8934 H   0  0  0  0  0  0
   -8.1730   -6.1974   10.9696 H   0  0  0  0  0  0
   -6.6596   -6.1994    9.1608 H   0  0  0  0  0  0
   -6.7363   -4.4431    8.9610 H   0  0  0  0  0  0
   -8.6719   -6.4952    8.0138 H   0  0  0  0  0  0
   -8.5272   -4.8126    7.5156 H   0  0  0  0  0  0
  -10.2186   -6.0679    9.6821 H   0  0  0  0  0  0
  -11.0586   -4.9891    7.8662 H   0  0  0  0  0  0
   -3.7263   -4.1585   17.6370 H   0  0  0  0  0  0
   -8.5050   -2.8341    8.9700 H   0  0  0  0  0  0
   -8.1600   -2.3468   10.6056 H   0  0  0  0  0  0
   -9.8184   -2.3018   10.0043 H   0  0  0  0  0  0
  -10.0239   -0.6111   13.5665 H   0  0  0  0  0  0
  -10.9967   -2.0572   13.8771 H   0  0  0  0  0  0
  -10.6102   -1.5720   12.2115 H   0  0  0  0  0  0
   -8.1999   -2.0360   12.6205 H   0  0  0  0  0  0
   -8.5279   -2.3071   14.3028 H   0  0  0  0  0  0
  1  2  2  0  0  0
  1  4  1  0  0  0
  1 23  1  0  0  0
  2  3  1  0  0  0
  2 19  1  0  0  0
  3  6  2  0  0  0
  3 24  1  0  0  0
  4  5  2  0  0  0
  4 25  1  0  0  0
  5  6  1  0  0  0
  5  9  1  0  0  0
  6  7  1  0  0  0
  7  8  1  0  0  0
  7 26  1  0  0  0
  7 27  1  0  0  0
  8 10  1  0  0  0
  8 28  1  0  0  0
  8 29  1  0  0  0
  9 10  1  0  0  0
  9 12  1  0  0  0
  9 30  1  0  0  0
 10 14  1  0  0  0
 10 31  1  0  0  0
 11 12  1  0  0  0
 11 13  1  0  0  0
 11 32  1  0  0  0
 11 33  1  0  0  0
 12 22  1  0  0  0
 12 34  1  0  0  0
 13 14  1  0  0  0
 13 17  1  0  0  0
 13 20  1  0  0  0
 14 15  1  0  0  0
 14 35  1  0  0  0
 15 16  1  0  0  0
 15 36  1  0  0  0
 15 37  1  0  0  0
 16 17  1  0  0  0
 16 38  1  0  0  0
 16 39  1  0  0  0
 17 18  1  0  0  0
 17 40  1  0  0  0
 18 41  1  0  0  0
 19 42  1  0  0  0
 20 43  1  0  0  0
 20 44  1  0  0  0
 20 45  1  0  0  0
 21 22  1  0  0  0
 21 46  1  0  0  0
 21 47  1  0  0  0
 21 48  1  0  0  0
 22 49  1  0  0  0
 22 50  1  0  0  0
M  END
>  <Name>
lit-70

>  <Family>
A.1

>  <RBA>
398,78,123,120

>  <RBA_avg>
180.000000

>  <Method>
LUC,MMEC,RUC,LUC

>  <set>
1

$$$$
lit-71
  Cerius2 12180216403D 1   1.00000                          
 Structure written by MMmdl.
 51 54  0  0  0  0  0  0  0  0999 V2000
   -6.7854   -4.1255   16.7533 C   0  0  0  0  0  0
   -5.4032   -4.1488   16.6640 C   0  0  0  0  0  0
   -4.7800   -4.4372   15.4569 C   0  0  0  0  0  0
   -7.5571   -4.3842   15.6175 C   0  0  0  0  0  0
   -6.9587   -4.6555   14.3733 C   0  0  0  0  0  0
   -5.5481   -4.7087   14.3091 C   0  0  0  0  0  0
   -4.8100   -5.0009   13.0236 C   0  0  0  0  0  0
   -5.6909   -5.5907   11.9273 C   0  0  0  0  0  0
   -7.8083   -4.9808   13.1434 C   0  0  0  0  0  0
   -6.9958   -4.7971   11.8261 C   0  0  0  0  0  0
   -9.9959   -4.5507   11.8147 C   0  0  0  0  0  0
   -9.1622   -4.2265   13.0706 C   0  0  0  0  0  0
   -9.1718   -4.4519   10.5242 C   0  0  0  0  0  0
   -7.8576   -5.2473   10.6444 C   0  0  0  0  0  0
   -7.2718   -5.1810    9.2366 C   0  0  0  0  0  0
   -8.5030   -5.1721    8.3054 C   0  0  0  0  0  0
   -9.7706   -5.0716    9.2183 C   0  0  0  0  0  0
  -10.6937   -4.1221    8.6552 O   0  0  0  0  0  0
   -4.6816   -3.8879   17.7908 O   0  0  0  0  0  0
   -8.9091   -2.9195   10.2972 C   0  0  0  0  0  0
  -10.5209   -6.3925    9.1339 C   0  0  0  0  0  0
  -11.7075   -6.9213    9.4807 C   0  0  0  0  0  0
  -12.9279   -6.4054   10.1637 C   0  0  0  0  0  0
   -7.2731   -3.9116   17.7018 H   0  0  0  0  0  0
   -3.6933   -4.4580   15.3922 H   0  0  0  0  0  0
   -8.6388   -4.3760   15.7337 H   0  0  0  0  0  0
   -3.9837   -5.6949   13.2195 H   0  0  0  0  0  0
   -4.3724   -4.0603   12.6656 H   0  0  0  0  0  0
   -5.9072   -6.6442   12.1474 H   0  0  0  0  0  0
   -5.1385   -5.5692   10.9813 H   0  0  0  0  0  0
   -8.0498   -6.0501   13.2412 H   0  0  0  0  0  0
   -6.7261   -3.7404   11.7047 H   0  0  0  0  0  0
  -10.8572   -3.8719   11.7717 H   0  0  0  0  0  0
  -10.4286   -5.5406   11.9436 H   0  0  0  0  0  0
   -8.9850   -3.1458   13.1323 H   0  0  0  0  0  0
   -9.7856   -4.4776   13.9364 H   0  0  0  0  0  0
   -8.0750   -6.3055   10.8098 H   0  0  0  0  0  0
   -6.6262   -6.0401    9.0258 H   0  0  0  0  0  0
   -6.6717   -4.2765    9.0883 H   0  0  0  0  0  0
   -8.5047   -6.0793    7.6889 H   0  0  0  0  0  0
   -8.4370   -4.3276    7.6085 H   0  0  0  0  0  0
  -10.7264   -4.2909    7.6916 H   0  0  0  0  0  0
   -3.7279   -3.9431   17.5673 H   0  0  0  0  0  0
   -8.3620   -2.7117    9.3730 H   0  0  0  0  0  0
   -8.3384   -2.4616   11.1091 H   0  0  0  0  0  0
   -9.8557   -2.3689   10.2367 H   0  0  0  0  0  0
   -9.8817   -7.1421    8.6490 H   0  0  0  0  0  0
  -11.8237   -7.9823    9.2340 H   0  0  0  0  0  0
  -13.7724   -6.4191    9.4673 H   0  0  0  0  0  0
  -12.8409   -5.4027   10.5664 H   0  0  0  0  0  0
  -13.1770   -7.0638   11.0026 H   0  0  0  0  0  0
  1  2  2  0  0  0
  1  4  1  0  0  0
  1 24  1  0  0  0
  2  3  1  0  0  0
  2 19  1  0  0  0
  3  6  2  0  0  0
  3 25  1  0  0  0
  4  5  2  0  0  0
  4 26  1  0  0  0
  5  6  1  0  0  0
  5  9  1  0  0  0
  6  7  1  0  0  0
  7  8  1  0  0  0
  7 27  1  0  0  0
  7 28  1  0  0  0
  8 10  1  0  0  0
  8 29  1  0  0  0
  8 30  1  0  0  0
  9 10  1  0  0  0
  9 12  1  0  0  0
  9 31  1  0  0  0
 10 14  1  0  0  0
 10 32  1  0  0  0
 11 12  1  0  0  0
 11 13  1  0  0  0
 11 33  1  0  0  0
 11 34  1  0  0  0
 12 35  1  0  0  0
 12 36  1  0  0  0
 13 14  1  0  0  0
 13 17  1  0  0  0
 13 20  1  0  0  0
 14 15  1  0  0  0
 14 37  1  0  0  0
 15 16  1  0  0  0
 15 38  1  0  0  0
 15 39  1  0  0  0
 16 17  1  0  0  0
 16 40  1  0  0  0
 16 41  1  0  0  0
 17 18  1  0  0  0
 17 21  1  0  0  0
 18 42  1  0  0  0
 19 43  1  0  0  0
 20 44  1  0  0  0
 20 45  1  0  0  0
 20 46  1  0  0  0
 21 22  2  0  0  0
 21 47  1  0  0  0
 22 23  1  0  0  0
 22 48  1  0  0  0
 23 49  1  0  0  0
 23 50  1  0  0  0
 23 51  1  0  0  0
M  END
>  <Name>
lit-71

>  <Family>
A.1

>  <RBA>
100.000000

>  <RBA_avg>
100.000000

>  <Method>
LUC

>  <set>
1

$$$$
lit-72
  Cerius2 12180216403D 1   1.00000                          
 Structure written by MMmdl.
 52 55  0  0  0  0  0  0  0  0999 V2000
   -6.7696   -4.3468   16.8168 C   0  0  0  0  0  0
   -5.3883   -4.3055   16.7172 C   0  0  0  0  0  0
   -4.7656   -4.4350   15.4820 C   0  0  0  0  0  0
   -7.5405   -4.5007   15.6625 C   0  0  0  0  0  0
   -6.9430   -4.5939   14.3912 C   0  0  0  0  0  0
   -5.5341   -4.6054   14.3158 C   0  0  0  0  0  0
   -4.8074   -4.7696   13.0036 C   0  0  0  0  0  0
   -5.6715   -5.4135   11.9246 C   0  0  0  0  0  0
   -7.8035   -4.7918   13.1429 C   0  0  0  0  0  0
   -6.9980   -4.6597   11.8115 C   0  0  0  0  0  0
   -9.9647   -4.3626   11.8010 C   0  0  0  0  0  0
   -9.1465   -3.9774   13.0747 C   0  0  0  0  0  0
   -9.1667   -4.3729   10.4756 C   0  0  0  0  0  0
   -7.8783   -5.2008   10.6800 C   0  0  0  0  0  0
   -7.3114   -5.3283    9.2700 C   0  0  0  0  0  0
   -8.5599   -5.4447    8.3674 C   0  0  0  0  0  0
   -9.7947   -5.1476    9.2675 C   0  0  0  0  0  0
  -10.7419   -4.3478    8.5640 O   0  0  0  0  0  0
   -4.6659   -4.1479   17.8626 O   0  0  0  0  0  0
   -8.9036   -2.9080   10.0210 C   0  0  0  0  0  0
  -10.4686   -6.4118    9.6407 C   0  0  0  0  0  0
   -8.9444   -2.4611   13.3098 C   0  0  0  0  0  0
  -11.0187   -7.4410    9.9283 C   0  0  0  0  0  0
  -10.2226   -1.6376   13.2329 C   0  0  0  0  0  0
   -7.2558   -4.2633   17.7860 H   0  0  0  0  0  0
   -3.6793   -4.4173   15.4113 H   0  0  0  0  0  0
   -8.6221   -4.5470   15.7755 H   0  0  0  0  0  0
   -3.9139   -5.3892   13.1476 H   0  0  0  0  0  0
   -4.4730   -3.7796   12.6692 H   0  0  0  0  0  0
   -5.8539   -6.4687   12.1654 H   0  0  0  0  0  0
   -5.1248   -5.3891   10.9753 H   0  0  0  0  0  0
   -8.1059   -5.8495   13.2171 H   0  0  0  0  0  0
   -6.7525   -3.6075   11.6295 H   0  0  0  0  0  0
  -10.8638   -3.7452   11.7023 H   0  0  0  0  0  0
  -10.3420   -5.3746   11.9959 H   0  0  0  0  0  0
   -9.7738   -4.3137   13.9126 H   0  0  0  0  0  0
   -8.1577   -6.2241   10.9787 H   0  0  0  0  0  0
   -6.6667   -6.2071    9.1657 H   0  0  0  0  0  0
   -6.7200   -4.4483    8.9934 H   0  0  0  0  0  0
   -8.6095   -6.4441    7.9183 H   0  0  0  0  0  0
   -8.4849   -4.7333    7.5361 H   0  0  0  0  0  0
  -10.9980   -4.8658    7.7739 H   0  0  0  0  0  0
   -3.7131   -4.1398   17.6290 H   0  0  0  0  0  0
   -8.5097   -2.8474    9.0009 H   0  0  0  0  0  0
   -8.1812   -2.3835   10.6425 H   0  0  0  0  0  0
   -9.8333   -2.3280   10.0290 H   0  0  0  0  0  0
   -8.1967   -2.0392   12.6364 H   0  0  0  0  0  0
   -8.5363   -2.3089   14.3154 H   0  0  0  0  0  0
  -11.5077   -8.3545   10.1842 H   0  0  0  0  0  0
  -10.0270   -0.6131   13.5668 H   0  0  0  0  0  0
  -11.0012   -2.0583   13.8770 H   0  0  0  0  0  0
  -10.6075   -1.5776   12.2119 H   0  0  0  0  0  0
  1  2  2  0  0  0
  1  4  1  0  0  0
  1 25  1  0  0  0
  2  3  1  0  0  0
  2 19  1  0  0  0
  3  6  2  0  0  0
  3 26  1  0  0  0
  4  5  2  0  0  0
  4 27  1  0  0  0
  5  6  1  0  0  0
  5  9  1  0  0  0
  6  7  1  0  0  0
  7  8  1  0  0  0
  7 28  1  0  0  0
  7 29  1  0  0  0
  8 10  1  0  0  0
  8 30  1  0  0  0
  8 31  1  0  0  0
  9 10  1  0  0  0
  9 12  1  0  0  0
  9 32  1  0  0  0
 10 14  1  0  0  0
 10 33  1  0  0  0
 11 12  1  0  0  0
 11 13  1  0  0  0
 11 34  1  0  0  0
 11 35  1  0  0  0
 12 22  1  0  0  0
 12 36  1  0  0  0
 13 14  1  0  0  0
 13 17  1  0  0  0
 13 20  1  0  0  0
 14 15  1  0  0  0
 14 37  1  0  0  0
 15 16  1  0  0  0
 15 38  1  0  0  0
 15 39  1  0  0  0
 16 17  1  0  0  0
 16 40  1  0  0  0
 16 41  1  0  0  0
 17 18  1  0  0  0
 17 21  1  0  0  0
 18 42  1  0  0  0
 19 43  1  0  0  0
 20 44  1  0  0  0
 20 45  1  0  0  0
 20 46  1  0  0  0
 21 23  3  0  0  0
 22 24  1  0  0  0
 22 47  1  0  0  0
 22 48  1  0  0  0
 23 49  1  0  0  0
 24 50  1  0  0  0
 24 51  1  0  0  0
 24 52  1  0  0  0
M  END
>  <Name>
lit-72

>  <Family>
A.1

>  <RBA>
87.000000

>  <RBA_avg>
87.000000

>  <Method>
LUC

>  <set>
1

$$$$
lit-73
  Cerius2 12180216403D 1   1.00000                          
 Structure written by MMmdl.
 54 57  0  0  0  0  0  0  0  0999 V2000
   -6.7682   -4.3419   16.8170 C   0  0  0  0  0  0
   -5.3871   -4.2994   16.7163 C   0  0  0  0  0  0
   -4.7652   -4.4311   15.4809 C   0  0  0  0  0  0
   -7.5398   -4.4994   15.6637 C   0  0  0  0  0  0
   -6.9433   -4.5945   14.3922 C   0  0  0  0  0  0
   -5.5346   -4.6049   14.3157 C   0  0  0  0  0  0
   -4.8087   -4.7720   13.0033 C   0  0  0  0  0  0
   -5.6733   -5.4179   11.9259 C   0  0  0  0  0  0
   -7.8041   -4.7967   13.1449 C   0  0  0  0  0  0
   -7.0005   -4.6647   11.8123 C   0  0  0  0  0  0
   -9.9638   -4.3781   11.8008 C   0  0  0  0  0  0
   -9.1502   -3.9882   13.0759 C   0  0  0  0  0  0
   -9.1696   -4.3751   10.4742 C   0  0  0  0  0  0
   -7.8825   -5.2054   10.6796 C   0  0  0  0  0  0
   -7.3052   -5.3474    9.2733 C   0  0  0  0  0  0
   -8.5450   -5.4240    8.3544 C   0  0  0  0  0  0
   -9.8021   -5.1516    9.2636 C   0  0  0  0  0  0
  -10.7456   -4.3205    8.5691 O   0  0  0  0  0  0
   -4.6639   -4.1382   17.8607 O   0  0  0  0  0  0
   -8.9024   -2.9093   10.0282 C   0  0  0  0  0  0
  -10.5616   -6.4358    9.6314 C   0  0  0  0  0  0
   -8.9573   -2.4713   13.3137 C   0  0  0  0  0  0
   -8.5780   -6.6891    7.6944 O   0  0  0  0  0  0
  -10.2392   -1.6543   13.2294 C   0  0  0  0  0  0
   -7.2538   -4.2568   17.7864 H   0  0  0  0  0  0
   -3.6790   -4.4125   15.4092 H   0  0  0  0  0  0
   -8.6213   -4.5466   15.7777 H   0  0  0  0  0  0
   -3.9151   -5.3913   13.1480 H   0  0  0  0  0  0
   -4.4744   -3.7827   12.6667 H   0  0  0  0  0  0
   -5.8553   -6.4728   12.1683 H   0  0  0  0  0  0
   -5.1268   -5.3946   10.9766 H   0  0  0  0  0  0
   -8.1026   -5.8554   13.2211 H   0  0  0  0  0  0
   -6.7549   -3.6125   11.6304 H   0  0  0  0  0  0
  -10.8716   -3.7734   11.7057 H   0  0  0  0  0  0
  -10.3230   -5.3973   11.9930 H   0  0  0  0  0  0
   -9.7770   -4.3292   13.9126 H   0  0  0  0  0  0
   -8.1627   -6.2254   10.9831 H   0  0  0  0  0  0
   -6.6650   -6.2314    9.1851 H   0  0  0  0  0  0
   -6.7024   -4.4684    9.0174 H   0  0  0  0  0  0
   -8.4589   -4.6649    7.5677 H   0  0  0  0  0  0
  -11.0414   -4.8168    7.7784 H   0  0  0  0  0  0
   -3.7113   -4.1295   17.6263 H   0  0  0  0  0  0
   -8.5021   -2.8434    9.0114 H   0  0  0  0  0  0
   -8.1831   -2.3881   10.6557 H   0  0  0  0  0  0
   -9.8314   -2.3283   10.0347 H   0  0  0  0  0  0
  -10.9476   -6.9298    8.7319 H   0  0  0  0  0  0
  -11.4475   -6.2063   10.2337 H   0  0  0  0  0  0
   -9.9459   -7.1587   10.1723 H   0  0  0  0  0  0
   -8.2068   -2.0451   12.6462 H   0  0  0  0  0  0
   -8.5566   -2.3182   14.3222 H   0  0  0  0  0  0
   -9.2891   -6.6335    7.0222 H   0  0  0  0  0  0
  -10.0505   -0.6286   13.5634 H   0  0  0  0  0  0
  -11.0189   -2.0783   13.8699 H   0  0  0  0  0  0
  -10.6193   -1.5974   12.2066 H   0  0  0  0  0  0
  1  2  2  0  0  0
  1  4  1  0  0  0
  1 25  1  0  0  0
  2  3  1  0  0  0
  2 19  1  0  0  0
  3  6  2  0  0  0
  3 26  1  0  0  0
  4  5  2  0  0  0
  4 27  1  0  0  0
  5  6  1  0  0  0
  5  9  1  0  0  0
  6  7  1  0  0  0
  7  8  1  0  0  0
  7 28  1  0  0  0
  7 29  1  0  0  0
  8 10  1  0  0  0
  8 30  1  0  0  0
  8 31  1  0  0  0
  9 10  1  0  0  0
  9 12  1  0  0  0
  9 32  1  0  0  0
 10 14  1  0  0  0
 10 33  1  0  0  0
 11 12  1  0  0  0
 11 13  1  0  0  0
 11 34  1  0  0  0
 11 35  1  0  0  0
 12 22  1  0  0  0
 12 36  1  0  0  0
 13 14  1  0  0  0
 13 17  1  0  0  0
 13 20  1  0  0  0
 14 15  1  0  0  0
 14 37  1  0  0  0
 15 16  1  0  0  0
 15 38  1  0  0  0
 15 39  1  0  0  0
 16 17  1  0  0  0
 16 23  1  0  0  0
 16 40  1  0  0  0
 17 18  1  0  0  0
 17 21  1  0  0  0
 18 41  1  0  0  0
 19 42  1  0  0  0
 20 43  1  0  0  0
 20 44  1  0  0  0
 20 45  1  0  0  0
 21 46  1  0  0  0
 21 47  1  0  0  0
 21 48  1  0  0  0
 22 24  1  0  0  0
 22 49  1  0  0  0
 22 50  1  0  0  0
 23 51  1  0  0  0
 24 52  1  0  0  0
 24 53  1  0  0  0
 24 54  1  0  0  0
M  END
>  <Name>
lit-73

>  <Family>
A.1

>  <RBA>
85.000000

>  <RBA_avg>
85.000000

>  <Method>
LUC

>  <set>
0

$$$$
lit-74
  Cerius2 12180216403D 1   1.00000                          
 Structure written by MMmdl.
 53 56  0  0  0  0  0  0  0  0999 V2000
   -6.7669   -4.3473   16.8171 C   0  0  0  0  0  0
   -5.3860   -4.3017   16.7157 C   0  0  0  0  0  0
   -4.7645   -4.4297   15.4797 C   0  0  0  0  0  0
   -7.5388   -4.5040   15.6640 C   0  0  0  0  0  0
   -6.9429   -4.5958   14.3920 C   0  0  0  0  0  0
   -5.5340   -4.6030   14.3146 C   0  0  0  0  0  0
   -4.8086   -4.7653   13.0014 C   0  0  0  0  0  0
   -5.6723   -5.4098   11.9225 C   0  0  0  0  0  0
   -7.8038   -4.7973   13.1447 C   0  0  0  0  0  0
   -7.0012   -4.6596   11.8123 C   0  0  0  0  0  0
   -9.9661   -4.3813   11.8030 C   0  0  0  0  0  0
   -9.1526   -3.9926   13.0784 C   0  0  0  0  0  0
   -9.1712   -4.3734   10.4777 C   0  0  0  0  0  0
   -7.8825   -5.2004   10.6807 C   0  0  0  0  0  0
   -7.3170   -5.3243    9.2718 C   0  0  0  0  0  0
   -8.5661   -5.4769    8.3796 C   0  0  0  0  0  0
   -9.8023   -5.1424    9.2655 C   0  0  0  0  0  0
  -10.7099   -4.3069    8.5400 O   0  0  0  0  0  0
   -4.6625   -4.1412   17.8601 O   0  0  0  0  0  0
   -8.9059   -2.9073   10.0311 C   0  0  0  0  0  0
  -10.5767   -6.4190    9.6182 C   0  0  0  0  0  0
   -8.9629   -2.4754   13.3169 C   0  0  0  0  0  0
  -10.2484   -1.6630   13.2434 C   0  0  0  0  0  0
   -7.2522   -4.2649   17.7869 H   0  0  0  0  0  0
   -3.6784   -4.4086   15.4076 H   0  0  0  0  0  0
   -8.6202   -4.5536   15.7785 H   0  0  0  0  0  0
   -3.9138   -5.3833   13.1442 H   0  0  0  0  0  0
   -4.4762   -3.7745   12.6673 H   0  0  0  0  0  0
   -5.8514   -6.4660   12.1617 H   0  0  0  0  0  0
   -5.1267   -5.3822   10.9726 H   0  0  0  0  0  0
   -8.0993   -5.8572   13.2185 H   0  0  0  0  0  0
   -6.7581   -3.6064   11.6334 H   0  0  0  0  0  0
  -10.8744   -3.7773   11.7089 H   0  0  0  0  0  0
  -10.3247   -5.4016   11.9909 H   0  0  0  0  0  0
   -9.7777   -4.3362   13.9151 H   0  0  0  0  0  0
   -8.1579   -6.2236   10.9787 H   0  0  0  0  0  0
   -6.6518   -6.1876    9.1689 H   0  0  0  0  0  0
   -6.7480   -4.4322    8.9869 H   0  0  0  0  0  0
   -8.6222   -6.4989    7.9869 H   0  0  0  0  0  0
   -8.4925   -4.8105    7.5123 H   0  0  0  0  0  0
  -10.9514   -4.7909    7.7229 H   0  0  0  0  0  0
   -3.7101   -4.1297   17.6253 H   0  0  0  0  0  0
   -8.5180   -2.8446    9.0084 H   0  0  0  0  0  0
   -8.1779   -2.3877   10.6501 H   0  0  0  0  0  0
   -9.8335   -2.3243   10.0481 H   0  0  0  0  0  0
  -10.9165   -6.9245    8.7061 H   0  0  0  0  0  0
  -11.4864   -6.1817   10.1807 H   0  0  0  0  0  0
   -9.9833   -7.1348   10.1931 H   0  0  0  0  0  0
   -8.2197   -2.0457   12.6436 H   0  0  0  0  0  0
   -8.5547   -2.3219   14.3224 H   0  0  0  0  0  0
  -10.0609   -0.6371   13.5774 H   0  0  0  0  0  0
  -11.0217   -2.0909   13.8890 H   0  0  0  0  0  0
  -10.6362   -1.6060   12.2234 H   0  0  0  0  0  0
  1  2  2  0  0  0
  1  4  1  0  0  0
  1 24  1  0  0  0
  2  3  1  0  0  0
  2 19  1  0  0  0
  3  6  2  0  0  0
  3 25  1  0  0  0
  4  5  2  0  0  0
  4 26  1  0  0  0
  5  6  1  0  0  0
  5  9  1  0  0  0
  6  7  1  0  0  0
  7  8  1  0  0  0
  7 27  1  0  0  0
  7 28  1  0  0  0
  8 10  1  0  0  0
  8 29  1  0  0  0
  8 30  1  0  0  0
  9 10  1  0  0  0
  9 12  1  0  0  0
  9 31  1  0  0  0
 10 14  1  0  0  0
 10 32  1  0  0  0
 11 12  1  0  0  0
 11 13  1  0  0  0
 11 33  1  0  0  0
 11 34  1  0  0  0
 12 22  1  0  0  0
 12 35  1  0  0  0
 13 14  1  0  0  0
 13 17  1  0  0  0
 13 20  1  0  0  0
 14 15  1  0  0  0
 14 36  1  0  0  0
 15 16  1  0  0  0
 15 37  1  0  0  0
 15 38  1  0  0  0
 16 17  1  0  0  0
 16 39  1  0  0  0
 16 40  1  0  0  0
 17 18  1  0  0  0
 17 21  1  0  0  0
 18 41  1  0  0  0
 19 42  1  0  0  0
 20 43  1  0  0  0
 20 44  1  0  0  0
 20 45  1  0  0  0
 21 46  1  0  0  0
 21 47  1  0  0  0
 21 48  1  0  0  0
 22 23  1  0  0  0
 22 49  1  0  0  0
 22 50  1  0  0  0
 23 51  1  0  0  0
 23 52  1  0  0  0
 23 53  1  0  0  0
M  END
>  <Name>
lit-74

>  <Family>
A.1

>  <RBA>
83.000000

>  <RBA_avg>
83.000000

>  <Method>
LUC

>  <set>
0

$$$$
lit-75
  Cerius2 12180216403D 1   1.00000                          
 Structure written by MMmdl.
 53 56  0  0  0  0  0  0  0  0999 V2000
   -6.7710   -4.3441   16.8167 C   0  0  0  0  0  0
   -5.3896   -4.3045   16.7179 C   0  0  0  0  0  0
   -4.7665   -4.4358   15.4831 C   0  0  0  0  0  0
   -7.5414   -4.4981   15.6621 C   0  0  0  0  0  0
   -6.9434   -4.5927   14.3912 C   0  0  0  0  0  0
   -5.5346   -4.6063   14.3165 C   0  0  0  0  0  0
   -4.8074   -4.7735   13.0051 C   0  0  0  0  0  0
   -5.6718   -5.4188   11.9274 C   0  0  0  0  0  0
   -7.8035   -4.7902   13.1424 C   0  0  0  0  0  0
   -6.9969   -4.6629   11.8107 C   0  0  0  0  0  0
   -9.9631   -4.3561   11.7983 C   0  0  0  0  0  0
   -9.1444   -3.9725   13.0725 C   0  0  0  0  0  0
   -9.1650   -4.3721   10.4718 C   0  0  0  0  0  0
   -7.8779   -5.2044   10.6788 C   0  0  0  0  0  0
   -7.2996   -5.3587    9.2713 C   0  0  0  0  0  0
   -8.5372   -5.3957    8.3444 C   0  0  0  0  0  0
   -9.7967   -5.1548    9.2670 C   0  0  0  0  0  0
  -10.7775   -4.3646    8.5923 O   0  0  0  0  0  0
   -4.6676   -4.1467   17.8635 O   0  0  0  0  0  0
   -8.8998   -2.9074   10.0190 C   0  0  0  0  0  0
  -10.4474   -6.4287    9.6585 C   0  0  0  0  0  0
   -8.9389   -2.4570   13.3101 C   0  0  0  0  0  0
  -10.9864   -7.4582    9.9662 C   0  0  0  0  0  0
   -8.5555   -6.6133    7.5928 O   0  0  0  0  0  0
  -10.2123   -1.6274   13.2196 C   0  0  0  0  0  0
   -7.2576   -4.2593   17.7855 H   0  0  0  0  0  0
   -3.6801   -4.4196   15.4129 H   0  0  0  0  0  0
   -8.6231   -4.5430   15.7746 H   0  0  0  0  0  0
   -3.9144   -5.3933   13.1506 H   0  0  0  0  0  0
   -4.4722   -3.7843   12.6690 H   0  0  0  0  0  0
   -5.8565   -6.4730   12.1709 H   0  0  0  0  0  0
   -5.1239   -5.3983   10.9786 H   0  0  0  0  0  0
   -8.1088   -5.8470   13.2183 H   0  0  0  0  0  0
   -6.7495   -3.6116   11.6258 H   0  0  0  0  0  0
  -10.8599   -3.7356   11.6983 H   0  0  0  0  0  0
  -10.3450   -5.3659   11.9955 H   0  0  0  0  0  0
   -9.7736   -4.3076   13.9097 H   0  0  0  0  0  0
   -8.1635   -6.2235   10.9857 H   0  0  0  0  0  0
   -6.6855   -6.2610    9.1831 H   0  0  0  0  0  0
   -6.6699   -4.4975    9.0193 H   0  0  0  0  0  0
   -8.4524   -4.5917    7.6036 H   0  0  0  0  0  0
  -11.1054   -4.9070    7.8471 H   0  0  0  0  0  0
   -3.7147   -4.1395   17.6302 H   0  0  0  0  0  0
   -8.4834   -2.8424    9.0093 H   0  0  0  0  0  0
   -8.1940   -2.3788   10.6556 H   0  0  0  0  0  0
   -9.8324   -2.3322   10.0078 H   0  0  0  0  0  0
   -8.1811   -2.0383   12.6459 H   0  0  0  0  0  0
   -8.5414   -2.3071   14.3204 H   0  0  0  0  0  0
  -11.4649   -8.3721   10.2394 H   0  0  0  0  0  0
   -9.3830   -6.6046    7.0682 H   0  0  0  0  0  0
  -10.0155   -0.6040   13.5561 H   0  0  0  0  0  0
  -10.9998   -2.0446   13.8550 H   0  0  0  0  0  0
  -10.5857   -1.5652   12.1945 H   0  0  0  0  0  0
  1  2  2  0  0  0
  1  4  1  0  0  0
  1 26  1  0  0  0
  2  3  1  0  0  0
  2 19  1  0  0  0
  3  6  2  0  0  0
  3 27  1  0  0  0
  4  5  2  0  0  0
  4 28  1  0  0  0
  5  6  1  0  0  0
  5  9  1  0  0  0
  6  7  1  0  0  0
  7  8  1  0  0  0
  7 29  1  0  0  0
  7 30  1  0  0  0
  8 10  1  0  0  0
  8 31  1  0  0  0
  8 32  1  0  0  0
  9 10  1  0  0  0
  9 12  1  0  0  0
  9 33  1  0  0  0
 10 14  1  0  0  0
 10 34  1  0  0  0
 11 12  1  0  0  0
 11 13  1  0  0  0
 11 35  1  0  0  0
 11 36  1  0  0  0
 12 22  1  0  0  0
 12 37  1  0  0  0
 13 14  1  0  0  0
 13 17  1  0  0  0
 13 20  1  0  0  0
 14 15  1  0  0  0
 14 38  1  0  0  0
 15 16  1  0  0  0
 15 39  1  0  0  0
 15 40  1  0  0  0
 16 17  1  0  0  0
 16 24  1  0  0  0
 16 41  1  0  0  0
 17 18  1  0  0  0
 17 21  1  0  0  0
 18 42  1  0  0  0
 19 43  1  0  0  0
 20 44  1  0  0  0
 20 45  1  0  0  0
 20 46  1  0  0  0
 21 23  3  0  0  0
 22 25  1  0  0  0
 22 47  1  0  0  0
 22 48  1  0  0  0
 23 49  1  0  0  0
 24 50  1  0  0  0
 25 51  1  0  0  0
 25 52  1  0  0  0
 25 53  1  0  0  0
M  END
>  <Name>
lit-75

>  <Family>
A.1

>  <RBA>
79.000000

>  <RBA_avg>
79.000000

>  <Method>
LUC

>  <set>
0

$$$$
lit-76
  Cerius2 12180216403D 1   1.00000                          
 Structure written by MMmdl.
 55 58  0  0  0  0  0  0  0  0999 V2000
   -6.7694   -4.3463   16.8167 C   0  0  0  0  0  0
   -5.3882   -4.3050   16.7171 C   0  0  0  0  0  0
   -4.7656   -4.4351   15.4819 C   0  0  0  0  0  0
   -7.5404   -4.5008   15.6626 C   0  0  0  0  0  0
   -6.9431   -4.5943   14.3913 C   0  0  0  0  0  0
   -5.5342   -4.6058   14.3157 C   0  0  0  0  0  0
   -4.8075   -4.7706   13.0036 C   0  0  0  0  0  0
   -5.6718   -5.4143   11.9247 C   0  0  0  0  0  0
   -7.8036   -4.7922   13.1431 C   0  0  0  0  0  0
   -6.9981   -4.6601   11.8116 C   0  0  0  0  0  0
   -9.9648   -4.3635   11.8010 C   0  0  0  0  0  0
   -9.1468   -3.9781   13.0748 C   0  0  0  0  0  0
   -9.1667   -4.3728   10.4756 C   0  0  0  0  0  0
   -7.8783   -5.2009   10.6799 C   0  0  0  0  0  0
   -7.3112   -5.3277    9.2700 C   0  0  0  0  0  0
   -8.5596   -5.4439    8.3672 C   0  0  0  0  0  0
   -9.7944   -5.1469    9.2672 C   0  0  0  0  0  0
  -10.7419   -4.3476    8.5639 O   0  0  0  0  0  0
   -4.6657   -4.1464   17.8624 O   0  0  0  0  0  0
   -8.9037   -2.9076   10.0216 C   0  0  0  0  0  0
  -10.4684   -6.4109    9.6405 C   0  0  0  0  0  0
   -8.9452   -2.4618   13.3099 C   0  0  0  0  0  0
  -11.0187   -7.4396    9.9308 C   0  0  0  0  0  0
  -11.6879   -8.6920   10.2888 C   0  0  0  0  0  0
  -10.2233   -1.6381   13.2316 C   0  0  0  0  0  0
   -7.2556   -4.2625   17.7860 H   0  0  0  0  0  0
   -3.6793   -4.4176   15.4111 H   0  0  0  0  0  0
   -8.6221   -4.5471   15.7758 H   0  0  0  0  0  0
   -3.9143   -5.3903   13.1477 H   0  0  0  0  0  0
   -4.4729   -3.7807   12.6691 H   0  0  0  0  0  0
   -5.8546   -6.4695   12.1657 H   0  0  0  0  0  0
   -5.1252   -5.3902   10.9755 H   0  0  0  0  0  0
   -8.1060   -5.8500   13.2173 H   0  0  0  0  0  0
   -6.7523   -3.6080   11.6299 H   0  0  0  0  0  0
  -10.8643   -3.7467   11.7025 H   0  0  0  0  0  0
  -10.3416   -5.3758   11.9958 H   0  0  0  0  0  0
   -9.7742   -4.3146   13.9127 H   0  0  0  0  0  0
   -8.1578   -6.2243   10.9781 H   0  0  0  0  0  0
   -6.6664   -6.2064    9.1653 H   0  0  0  0  0  0
   -6.7199   -4.4475    8.9937 H   0  0  0  0  0  0
   -8.6093   -6.4433    7.9180 H   0  0  0  0  0  0
   -8.4846   -4.7325    7.5359 H   0  0  0  0  0  0
  -11.0010   -4.8677    7.7761 H   0  0  0  0  0  0
   -3.7129   -4.1376   17.6285 H   0  0  0  0  0  0
   -8.5099   -2.8467    9.0015 H   0  0  0  0  0  0
   -8.1812   -2.3834   10.6433 H   0  0  0  0  0  0
   -9.8334   -2.3279   10.0299 H   0  0  0  0  0  0
   -8.1967   -2.0400   12.6372 H   0  0  0  0  0  0
   -8.5380   -2.3093   14.3160 H   0  0  0  0  0  0
  -11.9046   -9.2859    9.3959 H   0  0  0  0  0  0
  -12.6330   -8.4939   10.8035 H   0  0  0  0  0  0
  -11.0586   -9.2925   10.9526 H   0  0  0  0  0  0
  -10.0277   -0.6135   13.5649 H   0  0  0  0  0  0
  -11.0022   -2.0582   13.8755 H   0  0  0  0  0  0
  -10.6076   -1.5789   12.2103 H   0  0  0  0  0  0
  1  2  2  0  0  0
  1  4  1  0  0  0
  1 26  1  0  0  0
  2  3  1  0  0  0
  2 19  1  0  0  0
  3  6  2  0  0  0
  3 27  1  0  0  0
  4  5  2  0  0  0
  4 28  1  0  0  0
  5  6  1  0  0  0
  5  9  1  0  0  0
  6  7  1  0  0  0
  7  8  1  0  0  0
  7 29  1  0  0  0
  7 30  1  0  0  0
  8 10  1  0  0  0
  8 31  1  0  0  0
  8 32  1  0  0  0
  9 10  1  0  0  0
  9 12  1  0  0  0
  9 33  1  0  0  0
 10 14  1  0  0  0
 10 34  1  0  0  0
 11 12  1  0  0  0
 11 13  1  0  0  0
 11 35  1  0  0  0
 11 36  1  0  0  0
 12 22  1  0  0  0
 12 37  1  0  0  0
 13 14  1  0  0  0
 13 17  1  0  0  0
 13 20  1  0  0  0
 14 15  1  0  0  0
 14 38  1  0  0  0
 15 16  1  0  0  0
 15 39  1  0  0  0
 15 40  1  0  0  0
 16 17  1  0  0  0
 16 41  1  0  0  0
 16 42  1  0  0  0
 17 18  1  0  0  0
 17 21  1  0  0  0
 18 43  1  0  0  0
 19 44  1  0  0  0
 20 45  1  0  0  0
 20 46  1  0  0  0
 20 47  1  0  0  0
 21 23  3  0  0  0
 22 25  1  0  0  0
 22 48  1  0  0  0
 22 49  1  0  0  0
 23 24  1  0  0  0
 24 50  1  0  0  0
 24 51  1  0  0  0
 24 52  1  0  0  0
 25 53  1  0  0  0
 25 54  1  0  0  0
 25 55  1  0  0  0
M  END
>  <Name>
lit-76

>  <Family>
A.1

>  <RBA>
66.000000

>  <RBA_avg>
66.000000

>  <Method>
LUC

>  <set>
0

$$$$
lit-77
  Cerius2 12180216403D 1   1.00000                          
 Structure written by MMmdl.
 51 54  0  0  0  0  0  0  0  0999 V2000
   -6.7822   -4.3504   16.8113 C   0  0  0  0  0  0
   -5.4002   -4.3156   16.7186 C   0  0  0  0  0  0
   -4.7721   -4.4462   15.4862 C   0  0  0  0  0  0
   -7.5482   -4.4990   15.6529 C   0  0  0  0  0  0
   -6.9448   -4.5933   14.3847 C   0  0  0  0  0  0
   -5.5356   -4.6110   14.3158 C   0  0  0  0  0  0
   -4.8028   -4.7753   13.0068 C   0  0  0  0  0  0
   -5.6642   -5.4098   11.9200 C   0  0  0  0  0  0
   -7.7997   -4.7856   13.1318 C   0  0  0  0  0  0
   -6.9864   -4.6500   11.8044 C   0  0  0  0  0  0
   -9.9508   -4.3427   11.7766 C   0  0  0  0  0  0
   -9.1431   -3.9707   13.0596 C   0  0  0  0  0  0
   -9.1386   -4.3316   10.4668 C   0  0  0  0  0  0
   -7.8668   -5.1805   10.6700 C   0  0  0  0  0  0
   -7.3032   -5.3337    9.2581 C   0  0  0  0  0  0
   -8.5670   -5.4569    8.3784 C   0  0  0  0  0  0
   -9.7744   -5.1406    9.3113 C   0  0  0  0  0  0
  -10.8059   -4.4246    8.6396 O   0  0  0  0  0  0
   -4.6828   -4.1627   17.8678 O   0  0  0  0  0  0
   -8.8860   -2.8797    9.9912 C   0  0  0  0  0  0
   -8.9366   -2.4549   13.2953 C   0  0  0  0  0  0
   -8.6644   -6.7843    7.8561 O   0  0  0  0  0  0
  -10.2138   -1.6291   13.2266 C   0  0  0  0  0  0
   -7.2729   -4.2659   17.7781 H   0  0  0  0  0  0
   -3.6853   -4.4334   15.4210 H   0  0  0  0  0  0
   -8.6305   -4.5402   15.7605 H   0  0  0  0  0  0
   -3.9139   -5.4006   13.1535 H   0  0  0  0  0  0
   -4.4608   -3.7861   12.6779 H   0  0  0  0  0  0
   -5.8525   -6.4655   12.1543 H   0  0  0  0  0  0
   -5.1130   -5.3827   10.9735 H   0  0  0  0  0  0
   -8.1034   -5.8434   13.2014 H   0  0  0  0  0  0
   -6.7378   -3.5973   11.6277 H   0  0  0  0  0  0
  -10.8505   -3.7262   11.6784 H   0  0  0  0  0  0
  -10.3289   -5.3636   11.9333 H   0  0  0  0  0  0
   -9.7769   -4.3091   13.8916 H   0  0  0  0  0  0
   -8.1735   -6.1978   10.9684 H   0  0  0  0  0  0
   -6.6463   -6.2053    9.1728 H   0  0  0  0  0  0
   -6.7294   -4.4435    8.9771 H   0  0  0  0  0  0
   -8.5126   -4.7734    7.5240 H   0  0  0  0  0  0
  -10.2181   -6.0734    9.6825 H   0  0  0  0  0  0
  -11.1437   -5.0161    7.9353 H   0  0  0  0  0  0
   -3.7289   -4.1579   17.6388 H   0  0  0  0  0  0
   -8.5050   -2.8350    8.9654 H   0  0  0  0  0  0
   -8.1573   -2.3473   10.5998 H   0  0  0  0  0  0
   -9.8167   -2.3016   10.0009 H   0  0  0  0  0  0
   -8.1941   -2.0350   12.6147 H   0  0  0  0  0  0
   -8.5208   -2.3032   14.2977 H   0  0  0  0  0  0
   -9.4581   -6.7974    7.2803 H   0  0  0  0  0  0
  -10.0144   -0.6053   13.5602 H   0  0  0  0  0  0
  -10.9894   -2.0489   13.8746 H   0  0  0  0  0  0
  -10.6043   -1.5675   12.2077 H   0  0  0  0  0  0
  1  2  2  0  0  0
  1  4  1  0  0  0
  1 24  1  0  0  0
  2  3  1  0  0  0
  2 19  1  0  0  0
  3  6  2  0  0  0
  3 25  1  0  0  0
  4  5  2  0  0  0
  4 26  1  0  0  0
  5  6  1  0  0  0
  5  9  1  0  0  0
  6  7  1  0  0  0
  7  8  1  0  0  0
  7 27  1  0  0  0
  7 28  1  0  0  0
  8 10  1  0  0  0
  8 29  1  0  0  0
  8 30  1  0  0  0
  9 10  1  0  0  0
  9 12  1  0  0  0
  9 31  1  0  0  0
 10 14  1  0  0  0
 10 32  1  0  0  0
 11 12  1  0  0  0
 11 13  1  0  0  0
 11 33  1  0  0  0
 11 34  1  0  0  0
 12 21  1  0  0  0
 12 35  1  0  0  0
 13 14  1  0  0  0
 13 17  1  0  0  0
 13 20  1  0  0  0
 14 15  1  0  0  0
 14 36  1  0  0  0
 15 16  1  0  0  0
 15 37  1  0  0  0
 15 38  1  0  0  0
 16 17  1  0  0  0
 16 22  1  0  0  0
 16 39  1  0  0  0
 17 18  1  0  0  0
 17 40  1  0  0  0
 18 41  1  0  0  0
 19 42  1  0  0  0
 20 43  1  0  0  0
 20 44  1  0  0  0
 20 45  1  0  0  0
 21 23  1  0  0  0
 21 46  1  0  0  0
 21 47  1  0  0  0
 22 48  1  0  0  0
 23 49  1  0  0  0
 23 50  1  0  0  0
 23 51  1  0  0  0
M  END
>  <Name>
lit-77

>  <Family>
A.1

>  <RBA>
28.000000

>  <RBA_avg>
28.000000

>  <Method>
LUC

>  <set>
0

$$$$
lit-78
  Cerius2 12180216403D 1   1.00000                          
 Structure written by MMmdl.
 55 58  0  0  0  0  0  0  0  0999 V2000
   -6.7773   -4.2332   16.7900 C   0  0  0  0  0  0
   -5.3953   -4.2327   16.6959 C   0  0  0  0  0  0
   -4.7722   -4.4445   15.4728 C   0  0  0  0  0  0
   -7.5488   -4.4355   15.6429 C   0  0  0  0  0  0
   -6.9508   -4.6232   14.3824 C   0  0  0  0  0  0
   -5.5406   -4.6609   14.3134 C   0  0  0  0  0  0
   -4.8058   -4.8847   13.0138 C   0  0  0  0  0  0
   -5.6786   -5.4956   11.9240 C   0  0  0  0  0  0
   -7.8079   -4.8815   13.1376 C   0  0  0  0  0  0
   -6.9933   -4.7191   11.8162 C   0  0  0  0  0  0
   -9.9895   -4.4429   11.8083 C   0  0  0  0  0  0
   -9.1578   -4.0907   13.0730 C   0  0  0  0  0  0
   -9.1725   -4.4288   10.5015 C   0  0  0  0  0  0
   -7.8594   -5.2188   10.6559 C   0  0  0  0  0  0
   -7.2875   -5.2319    9.2422 C   0  0  0  0  0  0
   -8.5320   -5.3218    8.3310 C   0  0  0  0  0  0
   -9.7903   -5.1403    9.2484 C   0  0  0  0  0  0
  -10.7113   -4.2239    8.6289 O   0  0  0  0  0  0
   -4.6735   -4.0275   17.8340 O   0  0  0  0  0  0
   -8.9107   -2.9222   10.1396 C   0  0  0  0  0  0
  -10.5568   -6.4544    9.2656 C   0  0  0  0  0  0
  -11.7471   -6.9422    9.6569 C   0  0  0  0  0  0
  -12.9421   -6.3706   10.3392 C   0  0  0  0  0  0
   -8.8773   -2.6811   13.1316 O   0  0  0  0  0  0
  -10.0473   -1.8716   13.0432 C   0  0  0  0  0  0
   -7.2646   -4.0813   17.7505 H   0  0  0  0  0  0
   -3.6856   -4.4506   15.4052 H   0  0  0  0  0  0
   -8.6300   -4.4480   15.7617 H   0  0  0  0  0  0
   -3.9457   -5.5443   13.1815 H   0  0  0  0  0  0
   -4.4179   -3.9170   12.6713 H   0  0  0  0  0  0
   -5.8805   -6.5504   12.1514 H   0  0  0  0  0  0
   -5.1277   -5.4714   10.9772 H   0  0  0  0  0  0
   -8.0807   -5.9448   13.2195 H   0  0  0  0  0  0
   -6.7352   -3.6639   11.6678 H   0  0  0  0  0  0
  -10.8411   -3.7601   11.7090 H   0  0  0  0  0  0
  -10.4337   -5.4223   11.9753 H   0  0  0  0  0  0
   -9.7688   -4.3624   13.9425 H   0  0  0  0  0  0
   -8.0804   -6.2672   10.8737 H   0  0  0  0  0  0
   -6.6198   -6.0846    9.0798 H   0  0  0  0  0  0
   -6.7165   -4.3222    9.0266 H   0  0  0  0  0  0
   -8.5345   -6.2886    7.8126 H   0  0  0  0  0  0
   -8.4804   -4.5531    7.5506 H   0  0  0  0  0  0
  -10.7528   -4.4568    7.6792 H   0  0  0  0  0  0
   -3.7198   -4.0574   17.6054 H   0  0  0  0  0  0
   -8.4733   -2.7912    9.1449 H   0  0  0  0  0  0
   -8.2327   -2.4242   10.8345 H   0  0  0  0  0  0
   -9.8483   -2.3534   10.1462 H   0  0  0  0  0  0
   -9.9291   -7.2463    8.8360 H   0  0  0  0  0  0
  -11.8897   -8.0104    9.4601 H   0  0  0  0  0  0
  -13.8041   -6.4093    9.6656 H   0  0  0  0  0  0
  -12.8291   -5.3481   10.6800 H   0  0  0  0  0  0
  -13.1796   -6.9762   11.2203 H   0  0  0  0  0  0
   -9.7397   -0.8242   13.1056 H   0  0  0  0  0  0
  -10.7221   -2.0841   13.8777 H   0  0  0  0  0  0
  -10.5623   -2.0236   12.0916 H   0  0  0  0  0  0
  1  2  2  0  0  0
  1  4  1  0  0  0
  1 26  1  0  0  0
  2  3  1  0  0  0
  2 19  1  0  0  0
  3  6  2  0  0  0
  3 27  1  0  0  0
  4  5  2  0  0  0
  4 28  1  0  0  0
  5  6  1  0  0  0
  5  9  1  0  0  0
  6  7  1  0  0  0
  7  8  1  0  0  0
  7 29  1  0  0  0
  7 30  1  0  0  0
  8 10  1  0  0  0
  8 31  1  0  0  0
  8 32  1  0  0  0
  9 10  1  0  0  0
  9 12  1  0  0  0
  9 33  1  0  0  0
 10 14  1  0  0  0
 10 34  1  0  0  0
 11 12  1  0  0  0
 11 13  1  0  0  0
 11 35  1  0  0  0
 11 36  1  0  0  0
 12 24  1  0  0  0
 12 37  1  0  0  0
 13 14  1  0  0  0
 13 17  1  0  0  0
 13 20  1  0  0  0
 14 15  1  0  0  0
 14 38  1  0  0  0
 15 16  1  0  0  0
 15 39  1  0  0  0
 15 40  1  0  0  0
 16 17  1  0  0  0
 16 41  1  0  0  0
 16 42  1  0  0  0
 17 18  1  0  0  0
 17 21  1  0  0  0
 18 43  1  0  0  0
 19 44  1  0  0  0
 20 45  1  0  0  0
 20 46  1  0  0  0
 20 47  1  0  0  0
 21 22  2  0  0  0
 21 48  1  0  0  0
 22 23  1  0  0  0
 22 49  1  0  0  0
 23 50  1  0  0  0
 23 51  1  0  0  0
 23 52  1  0  0  0
 24 25  1  0  0  0
 25 53  1  0  0  0
 25 54  1  0  0  0
 25 55  1  0  0  0
M  END
>  <Name>
lit-78

>  <Family>
A.1

>  <RBA>
26.000000

>  <RBA_avg>
26.000000

>  <Method>
LUC

>  <set>
1

$$$$
lit-79
  Cerius2 12180216403D 1   1.00000                          
 Structure written by MMmdl.
 47 50  0  0  0  0  0  0  0  0999 V2000
   -6.7816   -4.0902   16.7453 C   0  0  0  0  0  0
   -5.3996   -4.1248   16.6559 C   0  0  0  0  0  0
   -4.7787   -4.4373   15.4533 C   0  0  0  0  0  0
   -7.5558   -4.3633   15.6147 C   0  0  0  0  0  0
   -6.9595   -4.6608   14.3757 C   0  0  0  0  0  0
   -5.5492   -4.7225   14.3105 C   0  0  0  0  0  0
   -4.8139   -5.0365   13.0281 C   0  0  0  0  0  0
   -5.6995   -5.6193   11.9310 C   0  0  0  0  0  0
   -7.8089   -5.0041   13.1516 C   0  0  0  0  0  0
   -7.0004   -4.8186   11.8317 C   0  0  0  0  0  0
   -9.9879   -4.6171   11.8111 C   0  0  0  0  0  0
   -9.1784   -4.2781   13.0789 C   0  0  0  0  0  0
   -9.1655   -4.4199   10.5235 C   0  0  0  0  0  0
   -7.8700   -5.2574   10.6495 C   0  0  0  0  0  0
   -7.2655   -5.2359    9.2423 C   0  0  0  0  0  0
   -8.4715   -5.0812    8.2898 C   0  0  0  0  0  0
   -9.7532   -5.0098    9.2007 C   0  0  0  0  0  0
  -10.7333   -4.1401    8.6322 O   0  0  0  0  0  0
   -4.6757   -3.8496   17.7777 O   0  0  0  0  0  0
   -8.9070   -2.8936   10.3486 C   0  0  0  0  0  0
  -10.3845   -6.3400    9.3757 C   0  0  0  0  0  0
  -10.9070   -7.4141    9.5101 C   0  0  0  0  0  0
   -8.4727   -6.1256    7.3124 O   0  0  0  0  0  0
   -7.2672   -3.8566   17.6901 H   0  0  0  0  0  0
   -3.6922   -4.4655   15.3884 H   0  0  0  0  0  0
   -8.6374   -4.3444   15.7302 H   0  0  0  0  0  0
   -3.9986   -5.7414   13.2313 H   0  0  0  0  0  0
   -4.3608   -4.1051   12.6648 H   0  0  0  0  0  0
   -5.9215   -6.6718   12.1496 H   0  0  0  0  0  0
   -5.1471   -5.6004   10.9850 H   0  0  0  0  0  0
   -8.0337   -6.0771   13.2551 H   0  0  0  0  0  0
   -6.7269   -3.7624   11.7123 H   0  0  0  0  0  0
  -10.8992   -4.0077   11.7824 H   0  0  0  0  0  0
  -10.3171   -5.6584   11.9061 H   0  0  0  0  0  0
   -9.0313   -3.1945   13.1561 H   0  0  0  0  0  0
   -9.8002   -4.5592   13.9370 H   0  0  0  0  0  0
   -8.1443   -6.3066   10.8435 H   0  0  0  0  0  0
   -6.6887   -6.1446    9.0400 H   0  0  0  0  0  0
   -6.5899   -4.3805    9.1259 H   0  0  0  0  0  0
   -8.3621   -4.1469    7.7257 H   0  0  0  0  0  0
  -11.0460   -4.5727    7.8123 H   0  0  0  0  0  0
   -3.7225   -3.9152   17.5550 H   0  0  0  0  0  0
   -8.3093   -2.6642    9.4617 H   0  0  0  0  0  0
   -8.3813   -2.4497   11.1977 H   0  0  0  0  0  0
   -9.8549   -2.3518   10.2502 H   0  0  0  0  0  0
  -11.3708   -8.3678    9.6293 H   0  0  0  0  0  0
   -9.2805   -6.0008    6.7721 H   0  0  0  0  0  0
  1  2  2  0  0  0
  1  4  1  0  0  0
  1 24  1  0  0  0
  2  3  1  0  0  0
  2 19  1  0  0  0
  3  6  2  0  0  0
  3 25  1  0  0  0
  4  5  2  0  0  0
  4 26  1  0  0  0
  5  6  1  0  0  0
  5  9  1  0  0  0
  6  7  1  0  0  0
  7  8  1  0  0  0
  7 27  1  0  0  0
  7 28  1  0  0  0
  8 10  1  0  0  0
  8 29  1  0  0  0
  8 30  1  0  0  0
  9 10  1  0  0  0
  9 12  1  0  0  0
  9 31  1  0  0  0
 10 14  1  0  0  0
 10 32  1  0  0  0
 11 12  1  0  0  0
 11 13  1  0  0  0
 11 33  1  0  0  0
 11 34  1  0  0  0
 12 35  1  0  0  0
 12 36  1  0  0  0
 13 14  1  0  0  0
 13 17  1  0  0  0
 13 20  1  0  0  0
 14 15  1  0  0  0
 14 37  1  0  0  0
 15 16  1  0  0  0
 15 38  1  0  0  0
 15 39  1  0  0  0
 16 17  1  0  0  0
 16 23  1  0  0  0
 16 40  1  0  0  0
 17 18  1  0  0  0
 17 21  1  0  0  0
 18 41  1  0  0  0
 19 42  1  0  0  0
 20 43  1  0  0  0
 20 44  1  0  0  0
 20 45  1  0  0  0
 21 22  3  0  0  0
 22 46  1  0  0  0
 23 47  1  0  0  0
M  END
>  <Name>
lit-79

>  <Family>
A.1

>  <RBA>
20.000000

>  <RBA_avg>
20.000000

>  <Method>
LUC

>  <set>
1

$$$$
lit-80
  Cerius2 12180216403D 1   1.00000                          
 Structure written by MMmdl.
 56 59  0  0  0  0  0  0  0  0999 V2000
   -6.7711   -4.3440   16.8166 C   0  0  0  0  0  0
   -5.3897   -4.3049   16.7180 C   0  0  0  0  0  0
   -4.7665   -4.4364   15.4832 C   0  0  0  0  0  0
   -7.5414   -4.4977   15.6619 C   0  0  0  0  0  0
   -6.9434   -4.5926   14.3911 C   0  0  0  0  0  0
   -5.5345   -4.6064   14.3166 C   0  0  0  0  0  0
   -4.8072   -4.7733   13.0052 C   0  0  0  0  0  0
   -5.6716   -5.4183   11.9271 C   0  0  0  0  0  0
   -7.8034   -4.7898   13.1423 C   0  0  0  0  0  0
   -6.9968   -4.6624   11.8107 C   0  0  0  0  0  0
   -9.9631   -4.3559   11.7983 C   0  0  0  0  0  0
   -9.1444   -3.9722   13.0724 C   0  0  0  0  0  0
   -9.1649   -4.3716   10.4718 C   0  0  0  0  0  0
   -7.8778   -5.2039   10.6787 C   0  0  0  0  0  0
   -7.2996   -5.3583    9.2713 C   0  0  0  0  0  0
   -8.5374   -5.3969    8.3448 C   0  0  0  0  0  0
   -9.7967   -5.1549    9.2675 C   0  0  0  0  0  0
  -10.7779   -4.3657    8.5922 O   0  0  0  0  0  0
   -4.6678   -4.1474   17.8637 O   0  0  0  0  0  0
   -8.8999   -2.9072   10.0187 C   0  0  0  0  0  0
  -10.4475   -6.4283    9.6604 C   0  0  0  0  0  0
   -8.9391   -2.4567   13.3102 C   0  0  0  0  0  0
  -10.9863   -7.4571    9.9717 C   0  0  0  0  0  0
  -11.6410   -8.7095   10.3559 C   0  0  0  0  0  0
   -8.5558   -6.6156    7.5951 O   0  0  0  0  0  0
  -10.2125   -1.6272   13.2193 C   0  0  0  0  0  0
   -7.2578   -4.2589   17.7853 H   0  0  0  0  0  0
   -3.6801   -4.4206   15.4133 H   0  0  0  0  0  0
   -8.6232   -4.5423   15.7743 H   0  0  0  0  0  0
   -3.9144   -5.3934   13.1506 H   0  0  0  0  0  0
   -4.4719   -3.7842   12.6692 H   0  0  0  0  0  0
   -5.8563   -6.4727   12.1704 H   0  0  0  0  0  0
   -5.1237   -5.3976   10.9785 H   0  0  0  0  0  0
   -8.1087   -5.8467   13.2182 H   0  0  0  0  0  0
   -6.7495   -3.6111   11.6258 H   0  0  0  0  0  0
  -10.8598   -3.7351   11.6983 H   0  0  0  0  0  0
  -10.3451   -5.3655   11.9955 H   0  0  0  0  0  0
   -9.7734   -4.3075   13.9097 H   0  0  0  0  0  0
   -8.1634   -6.2230   10.9858 H   0  0  0  0  0  0
   -6.6850   -6.2603    9.1833 H   0  0  0  0  0  0
   -6.6706   -4.4969    9.0188 H   0  0  0  0  0  0
   -8.4532   -4.5938    7.6028 H   0  0  0  0  0  0
  -11.1102   -4.9114    7.8514 H   0  0  0  0  0  0
   -3.7148   -4.1414   17.6308 H   0  0  0  0  0  0
   -8.4829   -2.8425    9.0090 H   0  0  0  0  0  0
   -8.1945   -2.3782   10.6554 H   0  0  0  0  0  0
   -9.8325   -2.3322   10.0066 H   0  0  0  0  0  0
   -8.1811   -2.0379   12.6462 H   0  0  0  0  0  0
   -8.5419   -2.3070   14.3207 H   0  0  0  0  0  0
  -12.3963   -8.5321   11.1273 H   0  0  0  0  0  0
  -10.9121   -9.4233   10.7514 H   0  0  0  0  0  0
  -12.1353   -9.1696    9.4950 H   0  0  0  0  0  0
   -9.3863   -6.6107    7.0753 H   0  0  0  0  0  0
  -10.0161   -0.6041   13.5568 H   0  0  0  0  0  0
  -11.0004   -2.0451   13.8538 H   0  0  0  0  0  0
  -10.5851   -1.5644   12.1940 H   0  0  0  0  0  0
  1  2  2  0  0  0
  1  4  1  0  0  0
  1 27  1  0  0  0
  2  3  1  0  0  0
  2 19  1  0  0  0
  3  6  2  0  0  0
  3 28  1  0  0  0
  4  5  2  0  0  0
  4 29  1  0  0  0
  5  6  1  0  0  0
  5  9  1  0  0  0
  6  7  1  0  0  0
  7  8  1  0  0  0
  7 30  1  0  0  0
  7 31  1  0  0  0
  8 10  1  0  0  0
  8 32  1  0  0  0
  8 33  1  0  0  0
  9 10  1  0  0  0
  9 12  1  0  0  0
  9 34  1  0  0  0
 10 14  1  0  0  0
 10 35  1  0  0  0
 11 12  1  0  0  0
 11 13  1  0  0  0
 11 36  1  0  0  0
 11 37  1  0  0  0
 12 22  1  0  0  0
 12 38  1  0  0  0
 13 14  1  0  0  0
 13 17  1  0  0  0
 13 20  1  0  0  0
 14 15  1  0  0  0
 14 39  1  0  0  0
 15 16  1  0  0  0
 15 40  1  0  0  0
 15 41  1  0  0  0
 16 17  1  0  0  0
 16 25  1  0  0  0
 16 42  1  0  0  0
 17 18  1  0  0  0
 17 21  1  0  0  0
 18 43  1  0  0  0
 19 44  1  0  0  0
 20 45  1  0  0  0
 20 46  1  0  0  0
 20 47  1  0  0  0
 21 23  3  0  0  0
 22 26  1  0  0  0
 22 48  1  0  0  0
 22 49  1  0  0  0
 23 24  1  0  0  0
 24 50  1  0  0  0
 24 51  1  0  0  0
 24 52  1  0  0  0
 25 53  1  0  0  0
 26 54  1  0  0  0
 26 55  1  0  0  0
 26 56  1  0  0  0
M  END
>  <Name>
lit-80

>  <Family>
A.1

>  <RBA>
18.000000

>  <RBA_avg>
18.000000

>  <Method>
LUC

>  <set>
1

$$$$
lit-81
  Cerius2 12180216403D 1   1.00000                          
 Structure written by MMmdl.
 53 56  0  0  0  0  0  0  0  0999 V2000
   -6.7706   -4.2146   16.7901 C   0  0  0  0  0  0
   -5.3887   -4.2214   16.6935 C   0  0  0  0  0  0
   -4.7690   -4.4462   15.4710 C   0  0  0  0  0  0
   -7.5453   -4.4231   15.6464 C   0  0  0  0  0  0
   -6.9503   -4.6258   14.3869 C   0  0  0  0  0  0
   -5.5404   -4.6690   14.3150 C   0  0  0  0  0  0
   -4.8088   -4.9037   13.0152 C   0  0  0  0  0  0
   -5.6863   -5.5086   11.9253 C   0  0  0  0  0  0
   -7.8088   -4.8944   13.1462 C   0  0  0  0  0  0
   -6.9987   -4.7277   11.8224 C   0  0  0  0  0  0
   -9.9816   -4.4976   11.8102 C   0  0  0  0  0  0
   -9.1700   -4.1226   13.0809 C   0  0  0  0  0  0
   -9.1687   -4.3954   10.4980 C   0  0  0  0  0  0
   -7.8719   -5.2193   10.6630 C   0  0  0  0  0  0
   -7.2918   -5.2543    9.2520 C   0  0  0  0  0  0
   -8.5277   -5.3020    8.3274 C   0  0  0  0  0  0
   -9.7732   -5.0848    9.2319 C   0  0  0  0  0  0
  -10.7227   -4.2467    8.5793 O   0  0  0  0  0  0
   -4.6638   -4.0095   17.8284 O   0  0  0  0  0  0
   -8.9166   -2.8932   10.1689 C   0  0  0  0  0  0
  -10.4357   -6.3792    9.5080 C   0  0  0  0  0  0
   -8.9169   -2.7098   13.1474 O   0  0  0  0  0  0
  -10.9763   -7.4319    9.7193 C   0  0  0  0  0  0
  -11.6338   -8.7144    9.9799 C   0  0  0  0  0  0
  -10.1012   -1.9213   13.0586 C   0  0  0  0  0  0
   -7.2553   -4.0517   17.7502 H   0  0  0  0  0  0
   -3.6824   -4.4569   15.4013 H   0  0  0  0  0  0
   -8.6265   -4.4283   15.7667 H   0  0  0  0  0  0
   -3.9546   -5.5705   13.1845 H   0  0  0  0  0  0
   -4.4123   -3.9404   12.6703 H   0  0  0  0  0  0
   -5.8913   -6.5632   12.1504 H   0  0  0  0  0  0
   -5.1370   -5.4841   10.9777 H   0  0  0  0  0  0
   -8.0713   -5.9613   13.2286 H   0  0  0  0  0  0
   -6.7397   -3.6721   11.6771 H   0  0  0  0  0  0
  -10.8835   -3.8814   11.7278 H   0  0  0  0  0  0
  -10.3260   -5.5281   11.9569 H   0  0  0  0  0  0
   -9.7790   -4.4102   13.9469 H   0  0  0  0  0  0
   -8.1409   -6.2604   10.9039 H   0  0  0  0  0  0
   -6.6497   -6.1273    9.0963 H   0  0  0  0  0  0
   -6.6929   -4.3610    9.0417 H   0  0  0  0  0  0
   -8.5666   -6.2604    7.7956 H   0  0  0  0  0  0
   -8.4465   -4.5234    7.5594 H   0  0  0  0  0  0
  -10.9681   -4.7103    7.7528 H   0  0  0  0  0  0
   -3.7108   -4.0451   17.5983 H   0  0  0  0  0  0
   -8.4672   -2.7482    9.1811 H   0  0  0  0  0  0
   -8.2493   -2.4005   10.8772 H   0  0  0  0  0  0
   -9.8608   -2.3357   10.1722 H   0  0  0  0  0  0
  -11.8232   -9.2507    9.0454 H   0  0  0  0  0  0
  -12.5919   -8.5639   10.4862 H   0  0  0  0  0  0
  -11.0090   -9.3488   10.6158 H   0  0  0  0  0  0
   -9.8145   -0.8698   13.1461 H   0  0  0  0  0  0
  -10.7843   -2.1630   13.8784 H   0  0  0  0  0  0
  -10.5983   -2.0630   12.0960 H   0  0  0  0  0  0
  1  2  2  0  0  0
  1  4  1  0  0  0
  1 26  1  0  0  0
  2  3  1  0  0  0
  2 19  1  0  0  0
  3  6  2  0  0  0
  3 27  1  0  0  0
  4  5  2  0  0  0
  4 28  1  0  0  0
  5  6  1  0  0  0
  5  9  1  0  0  0
  6  7  1  0  0  0
  7  8  1  0  0  0
  7 29  1  0  0  0
  7 30  1  0  0  0
  8 10  1  0  0  0
  8 31  1  0  0  0
  8 32  1  0  0  0
  9 10  1  0  0  0
  9 12  1  0  0  0
  9 33  1  0  0  0
 10 14  1  0  0  0
 10 34  1  0  0  0
 11 12  1  0  0  0
 11 13  1  0  0  0
 11 35  1  0  0  0
 11 36  1  0  0  0
 12 22  1  0  0  0
 12 37  1  0  0  0
 13 14  1  0  0  0
 13 17  1  0  0  0
 13 20  1  0  0  0
 14 15  1  0  0  0
 14 38  1  0  0  0
 15 16  1  0  0  0
 15 39  1  0  0  0
 15 40  1  0  0  0
 16 17  1  0  0  0
 16 41  1  0  0  0
 16 42  1  0  0  0
 17 18  1  0  0  0
 17 21  1  0  0  0
 18 43  1  0  0  0
 19 44  1  0  0  0
 20 45  1  0  0  0
 20 46  1  0  0  0
 20 47  1  0  0  0
 21 23  3  0  0  0
 22 25  1  0  0  0
 23 24  1  0  0  0
 24 48  1  0  0  0
 24 49  1  0  0  0
 24 50  1  0  0  0
 25 51  1  0  0  0
 25 52  1  0  0  0
 25 53  1  0  0  0
M  END
>  <Name>
lit-81

>  <Family>
A.1

>  <RBA>
18.000000

>  <RBA_avg>
18.000000

>  <Method>
LUC

>  <set>
2

$$$$
lit-82
  Cerius2 12180216403D 1   1.00000                          
 Structure written by MMmdl.
 58 62  0  0  0  0  0  0  0  0999 V2000
   -6.7733   -4.2394   16.7933 C   0  0  0  0  0  0
   -5.3915   -4.2303   16.6964 C   0  0  0  0  0  0
   -4.7696   -4.4352   15.4716 C   0  0  0  0  0  0
   -7.5458   -4.4430   15.6470 C   0  0  0  0  0  0
   -6.9491   -4.6243   14.3850 C   0  0  0  0  0  0
   -5.5388   -4.6532   14.3131 C   0  0  0  0  0  0
   -4.8053   -4.8689   13.0114 C   0  0  0  0  0  0
   -5.6762   -5.4834   11.9221 C   0  0  0  0  0  0
   -7.8068   -4.8846   13.1415 C   0  0  0  0  0  0
   -6.9960   -4.7149   11.8179 C   0  0  0  0  0  0
   -9.9909   -4.4689   11.8160 C   0  0  0  0  0  0
   -9.1634   -4.1042   13.0814 C   0  0  0  0  0  0
   -9.1794   -4.4282   10.5012 C   0  0  0  0  0  0
   -7.8655   -5.2220   10.6616 C   0  0  0  0  0  0
   -7.2974   -5.2499    9.2478 C   0  0  0  0  0  0
   -8.5378   -5.3752    8.3338 C   0  0  0  0  0  0
   -9.8056   -5.1185    9.2229 C   0  0  0  0  0  0
  -10.6879   -4.1734    8.5862 O   0  0  0  0  0  0
   -4.6688   -4.0237   17.8337 O   0  0  0  0  0  0
   -8.9056   -2.9188   10.1682 C   0  0  0  0  0  0
  -10.6186   -6.4262    9.2970 C   0  0  0  0  0  0
   -8.8999   -2.6928   13.1479 O   0  0  0  0  0  0
  -10.0789   -1.8962   13.0638 C   0  0  0  0  0  0
  -11.9139   -6.5409    9.8247 C   0  0  0  0  0  0
  -12.5751   -7.7754    9.8958 C   0  0  0  0  0  0
  -11.9516   -8.9364    9.4552 C   0  0  0  0  0  0
  -10.6613   -8.8659    8.9494 C   0  0  0  0  0  0
  -10.0061   -7.6321    8.8795 C   0  0  0  0  0  0
   -7.2596   -4.0929   17.7551 H   0  0  0  0  0  0
   -3.6831   -4.4345   15.4020 H   0  0  0  0  0  0
   -8.6269   -4.4620   15.7677 H   0  0  0  0  0  0
   -3.9403   -5.5228   13.1758 H   0  0  0  0  0  0
   -4.4248   -3.8978   12.6704 H   0  0  0  0  0  0
   -5.8707   -6.5399   12.1478 H   0  0  0  0  0  0
   -5.1272   -5.4535   10.9743 H   0  0  0  0  0  0
   -8.0744   -5.9505   13.2194 H   0  0  0  0  0  0
   -6.7434   -3.6587   11.6695 H   0  0  0  0  0  0
  -10.8624   -3.8116   11.7220 H   0  0  0  0  0  0
  -10.3944   -5.4668   11.9927 H   0  0  0  0  0  0
   -9.7704   -4.3865   13.9505 H   0  0  0  0  0  0
   -8.0842   -6.2665   10.9032 H   0  0  0  0  0  0
   -6.6146   -6.0926    9.0974 H   0  0  0  0  0  0
   -6.7415   -4.3342    9.0182 H   0  0  0  0  0  0
   -8.5483   -6.3746    7.8817 H   0  0  0  0  0  0
   -8.4579   -4.6622    7.5052 H   0  0  0  0  0  0
  -10.1429   -3.5659    8.0502 H   0  0  0  0  0  0
   -3.7155   -4.0467   17.6032 H   0  0  0  0  0  0
   -8.4348   -2.7806    9.1895 H   0  0  0  0  0  0
   -8.2472   -2.4268   10.8848 H   0  0  0  0  0  0
   -9.8425   -2.3490   10.1565 H   0  0  0  0  0  0
   -9.7838   -0.8461   13.1378 H   0  0  0  0  0  0
  -10.7543   -2.1249   13.8935 H   0  0  0  0  0  0
  -10.5884   -2.0443   12.1086 H   0  0  0  0  0  0
  -12.4622   -5.6858   10.2041 H   0  0  0  0  0  0
  -13.5833   -7.8241   10.3051 H   0  0  0  0  0  0
  -12.4674   -9.8926    9.5140 H   0  0  0  0  0  0
  -10.1564   -9.7690    8.6114 H   0  0  0  0  0  0
   -8.9868   -7.6227    8.4911 H   0  0  0  0  0  0
  1  2  2  0  0  0
  1  4  1  0  0  0
  1 29  1  0  0  0
  2  3  1  0  0  0
  2 19  1  0  0  0
  3  6  2  0  0  0
  3 30  1  0  0  0
  4  5  2  0  0  0
  4 31  1  0  0  0
  5  6  1  0  0  0
  5  9  1  0  0  0
  6  7  1  0  0  0
  7  8  1  0  0  0
  7 32  1  0  0  0
  7 33  1  0  0  0
  8 10  1  0  0  0
  8 34  1  0  0  0
  8 35  1  0  0  0
  9 10  1  0  0  0
  9 12  1  0  0  0
  9 36  1  0  0  0
 10 14  1  0  0  0
 10 37  1  0  0  0
 11 12  1  0  0  0
 11 13  1  0  0  0
 11 38  1  0  0  0
 11 39  1  0  0  0
 12 22  1  0  0  0
 12 40  1  0  0  0
 13 14  1  0  0  0
 13 17  1  0  0  0
 13 20  1  0  0  0
 14 15  1  0  0  0
 14 41  1  0  0  0
 15 16  1  0  0  0
 15 42  1  0  0  0
 15 43  1  0  0  0
 16 17  1  0  0  0
 16 44  1  0  0  0
 16 45  1  0  0  0
 17 18  1  0  0  0
 17 21  1  0  0  0
 18 46  1  0  0  0
 19 47  1  0  0  0
 20 48  1  0  0  0
 20 49  1  0  0  0
 20 50  1  0  0  0
 21 24  2  0  0  0
 21 28  1  0  0  0
 22 23  1  0  0  0
 23 51  1  0  0  0
 23 52  1  0  0  0
 23 53  1  0  0  0
 24 25  1  0  0  0
 24 54  1  0  0  0
 25 26  2  0  0  0
 25 55  1  0  0  0
 26 27  1  0  0  0
 26 56  1  0  0  0
 27 28  2  0  0  0
 27 57  1  0  0  0
 28 58  1  0  0  0
M  END
>  <Name>
lit-82

>  <Family>
A.1

>  <RBA>
15.000000

>  <RBA_avg>
15.000000

>  <Method>
LUC

>  <set>
0

$$$$
lit-83
  Cerius2 12180216403D 1   1.00000                          
 Structure written by MMmdl.
 48 51  0  0  0  0  0  0  0  0999 V2000
   -6.7808   -4.0838   16.7431 C   0  0  0  0  0  0
   -5.3989   -4.1187   16.6532 C   0  0  0  0  0  0
   -4.7783   -4.4350   15.4515 C   0  0  0  0  0  0
   -7.5554   -4.3608   15.6138 C   0  0  0  0  0  0
   -6.9595   -4.6627   14.3757 C   0  0  0  0  0  0
   -5.5492   -4.7238   14.3099 C   0  0  0  0  0  0
   -4.8143   -5.0400   13.0277 C   0  0  0  0  0  0
   -5.7002   -5.6208   11.9296 C   0  0  0  0  0  0
   -7.8084   -5.0110   13.1531 C   0  0  0  0  0  0
   -7.0022   -4.8213   11.8327 C   0  0  0  0  0  0
   -9.9865   -4.6404   11.8118 C   0  0  0  0  0  0
   -9.1825   -4.2943   13.0807 C   0  0  0  0  0  0
   -9.1691   -4.4236   10.5263 C   0  0  0  0  0  0
   -7.8727   -5.2575   10.6493 C   0  0  0  0  0  0
   -7.2692   -5.2210    9.2450 C   0  0  0  0  0  0
   -8.4787   -5.1065    8.2938 C   0  0  0  0  0  0
   -9.7571   -5.0065    9.1992 C   0  0  0  0  0  0
  -10.7044   -4.0963    8.6214 O   0  0  0  0  0  0
   -4.6745   -3.8395   17.7738 O   0  0  0  0  0  0
   -8.9131   -2.8965   10.3603 C   0  0  0  0  0  0
  -10.4888   -6.3493    9.3475 C   0  0  0  0  0  0
   -8.4960   -6.2126    7.3928 O   0  0  0  0  0  0
   -7.2660   -3.8466   17.6872 H   0  0  0  0  0  0
   -3.6918   -4.4629   15.3862 H   0  0  0  0  0  0
   -8.6371   -4.3412   15.7295 H   0  0  0  0  0  0
   -4.0005   -5.7465   13.2314 H   0  0  0  0  0  0
   -4.3593   -4.1095   12.6643 H   0  0  0  0  0  0
   -5.9210   -6.6742   12.1457 H   0  0  0  0  0  0
   -5.1481   -5.5992   10.9835 H   0  0  0  0  0  0
   -8.0266   -6.0853   13.2570 H   0  0  0  0  0  0
   -6.7288   -3.7648   11.7162 H   0  0  0  0  0  0
  -10.9084   -4.0473   11.7860 H   0  0  0  0  0  0
  -10.2940   -5.6890   11.9003 H   0  0  0  0  0  0
   -9.0439   -3.2096   13.1582 H   0  0  0  0  0  0
   -9.8026   -4.5812   13.9382 H   0  0  0  0  0  0
   -8.1404   -6.3080   10.8383 H   0  0  0  0  0  0
   -6.6627   -6.1107    9.0447 H   0  0  0  0  0  0
   -6.6219   -4.3439    9.1288 H   0  0  0  0  0  0
   -8.3689   -4.2056    7.6780 H   0  0  0  0  0  0
  -10.9817   -4.4736    7.7611 H   0  0  0  0  0  0
   -3.7213   -3.9054   17.5508 H   0  0  0  0  0  0
   -8.3368   -2.6618    9.4603 H   0  0  0  0  0  0
   -8.3687   -2.4595   11.2010 H   0  0  0  0  0  0
   -9.8626   -2.3533   10.2880 H   0  0  0  0  0  0
  -10.8563   -6.7013    8.3764 H   0  0  0  0  0  0
  -11.3829   -6.2392    9.9710 H   0  0  0  0  0  0
   -9.8592   -7.1353    9.7721 H   0  0  0  0  0  0
   -9.1930   -6.0214    6.7309 H   0  0  0  0  0  0
  1  2  2  0  0  0
  1  4  1  0  0  0
  1 23  1  0  0  0
  2  3  1  0  0  0
  2 19  1  0  0  0
  3  6  2  0  0  0
  3 24  1  0  0  0
  4  5  2  0  0  0
  4 25  1  0  0  0
  5  6  1  0  0  0
  5  9  1  0  0  0
  6  7  1  0  0  0
  7  8  1  0  0  0
  7 26  1  0  0  0
  7 27  1  0  0  0
  8 10  1  0  0  0
  8 28  1  0  0  0
  8 29  1  0  0  0
  9 10  1  0  0  0
  9 12  1  0  0  0
  9 30  1  0  0  0
 10 14  1  0  0  0
 10 31  1  0  0  0
 11 12  1  0  0  0
 11 13  1  0  0  0
 11 32  1  0  0  0
 11 33  1  0  0  0
 12 34  1  0  0  0
 12 35  1  0  0  0
 13 14  1  0  0  0
 13 17  1  0  0  0
 13 20  1  0  0  0
 14 15  1  0  0  0
 14 36  1  0  0  0
 15 16  1  0  0  0
 15 37  1  0  0  0
 15 38  1  0  0  0
 16 17  1  0  0  0
 16 22  1  0  0  0
 16 39  1  0  0  0
 17 18  1  0  0  0
 17 21  1  0  0  0
 18 40  1  0  0  0
 19 41  1  0  0  0
 20 42  1  0  0  0
 20 43  1  0  0  0
 20 44  1  0  0  0
 21 45  1  0  0  0
 21 46  1  0  0  0
 21 47  1  0  0  0
 22 48  1  0  0  0
M  END
>  <Name>
lit-83

>  <Family>
A.1

>  <RBA>
14.000000

>  <RBA_avg>
14.000000

>  <Method>
LUC

>  <set>
1

$$$$
lit-84
  Cerius2 12180216403D 1   1.00000                          
 Structure written by MMmdl.
 50 53  0  0  0  0  0  0  0  0999 V2000
   -6.7706   -4.2144   16.7901 C   0  0  0  0  0  0
   -5.3887   -4.2209   16.6934 C   0  0  0  0  0  0
   -4.7689   -4.4461   15.4710 C   0  0  0  0  0  0
   -7.5454   -4.4234   15.6464 C   0  0  0  0  0  0
   -6.9503   -4.6261   14.3869 C   0  0  0  0  0  0
   -5.5403   -4.6691   14.3150 C   0  0  0  0  0  0
   -4.8089   -4.9040   13.0152 C   0  0  0  0  0  0
   -5.6864   -5.5089   11.9254 C   0  0  0  0  0  0
   -7.8089   -4.8946   13.1462 C   0  0  0  0  0  0
   -6.9988   -4.7281   11.8224 C   0  0  0  0  0  0
   -9.9816   -4.4978   11.8101 C   0  0  0  0  0  0
   -9.1701   -4.1230   13.0810 C   0  0  0  0  0  0
   -9.1687   -4.3957   10.4980 C   0  0  0  0  0  0
   -7.8719   -5.2195   10.6629 C   0  0  0  0  0  0
   -7.2917   -5.2544    9.2519 C   0  0  0  0  0  0
   -8.5275   -5.3012    8.3272 C   0  0  0  0  0  0
   -9.7732   -5.0847    9.2318 C   0  0  0  0  0  0
  -10.7225   -4.2459    8.5797 O   0  0  0  0  0  0
   -4.6639   -4.0087   17.8282 O   0  0  0  0  0  0
   -8.9166   -2.8933   10.1692 C   0  0  0  0  0  0
  -10.4356   -6.3795    9.5068 C   0  0  0  0  0  0
   -8.9172   -2.7101   13.1476 O   0  0  0  0  0  0
  -10.9763   -7.4325    9.7152 C   0  0  0  0  0  0
  -10.1015   -1.9218   13.0590 C   0  0  0  0  0  0
   -7.2553   -4.0513   17.7500 H   0  0  0  0  0  0
   -3.6824   -4.4565   15.4012 H   0  0  0  0  0  0
   -8.6265   -4.4287   15.7668 H   0  0  0  0  0  0
   -3.9546   -5.5707   13.1847 H   0  0  0  0  0  0
   -4.4123   -3.9407   12.6701 H   0  0  0  0  0  0
   -5.8913   -6.5636   12.1505 H   0  0  0  0  0  0
   -5.1370   -5.4845   10.9778 H   0  0  0  0  0  0
   -8.0713   -5.9616   13.2287 H   0  0  0  0  0  0
   -6.7396   -3.6725   11.6772 H   0  0  0  0  0  0
  -10.8834   -3.8815   11.7278 H   0  0  0  0  0  0
  -10.3259   -5.5282   11.9567 H   0  0  0  0  0  0
   -9.7790   -4.4108   13.9468 H   0  0  0  0  0  0
   -8.1409   -6.2607   10.9038 H   0  0  0  0  0  0
   -6.6500   -6.1277    9.0961 H   0  0  0  0  0  0
   -6.6924   -4.3614    9.0420 H   0  0  0  0  0  0
   -8.5663   -6.2591    7.7944 H   0  0  0  0  0  0
   -8.4462   -4.5219    7.5599 H   0  0  0  0  0  0
  -10.9642   -4.7062    7.7502 H   0  0  0  0  0  0
   -3.7107   -4.0444   17.5982 H   0  0  0  0  0  0
   -8.4672   -2.7481    9.1814 H   0  0  0  0  0  0
   -8.2491   -2.4010   10.8776 H   0  0  0  0  0  0
   -9.8606   -2.3358   10.1730 H   0  0  0  0  0  0
  -11.4569   -8.3673    9.9003 H   0  0  0  0  0  0
   -9.8150   -0.8702   13.1460 H   0  0  0  0  0  0
  -10.7842   -2.1632   13.8791 H   0  0  0  0  0  0
  -10.5990   -2.0640   12.0966 H   0  0  0  0  0  0
  1  2  2  0  0  0
  1  4  1  0  0  0
  1 25  1  0  0  0
  2  3  1  0  0  0
  2 19  1  0  0  0
  3  6  2  0  0  0
  3 26  1  0  0  0
  4  5  2  0  0  0
  4 27  1  0  0  0
  5  6  1  0  0  0
  5  9  1  0  0  0
  6  7  1  0  0  0
  7  8  1  0  0  0
  7 28  1  0  0  0
  7 29  1  0  0  0
  8 10  1  0  0  0
  8 30  1  0  0  0
  8 31  1  0  0  0
  9 10  1  0  0  0
  9 12  1  0  0  0
  9 32  1  0  0  0
 10 14  1  0  0  0
 10 33  1  0  0  0
 11 12  1  0  0  0
 11 13  1  0  0  0
 11 34  1  0  0  0
 11 35  1  0  0  0
 12 22  1  0  0  0
 12 36  1  0  0  0
 13 14  1  0  0  0
 13 17  1  0  0  0
 13 20  1  0  0  0
 14 15  1  0  0  0
 14 37  1  0  0  0
 15 16  1  0  0  0
 15 38  1  0  0  0
 15 39  1  0  0  0
 16 17  1  0  0  0
 16 40  1  0  0  0
 16 41  1  0  0  0
 17 18  1  0  0  0
 17 21  1  0  0  0
 18 42  1  0  0  0
 19 43  1  0  0  0
 20 44  1  0  0  0
 20 45  1  0  0  0
 20 46  1  0  0  0
 21 23  3  0  0  0
 22 24  1  0  0  0
 23 47  1  0  0  0
 24 48  1  0  0  0
 24 49  1  0  0  0
 24 50  1  0  0  0
M  END
>  <Name>
lit-84

>  <Family>
A.1

>  <RBA>
14.000000

>  <RBA_avg>
14.000000

>  <Method>
LUC

>  <set>
0

$$$$
lit-85
  Cerius2 12180216403D 1   1.00000                          
 Structure written by MMmdl.
 55 59  0  0  0  0  0  0  0  0999 V2000
   -6.7741   -4.0756   16.7439 C   0  0  0  0  0  0
   -5.3923   -4.1122   16.6513 C   0  0  0  0  0  0
   -4.7745   -4.4328   15.4493 C   0  0  0  0  0  0
   -7.5513   -4.3556   15.6171 C   0  0  0  0  0  0
   -6.9582   -4.6625   14.3789 C   0  0  0  0  0  0
   -5.5480   -4.7247   14.3103 C   0  0  0  0  0  0
   -4.8160   -5.0455   13.0275 C   0  0  0  0  0  0
   -5.7049   -5.6271   11.9321 C   0  0  0  0  0  0
   -7.8094   -5.0150   13.1590 C   0  0  0  0  0  0
   -7.0061   -4.8255   11.8362 C   0  0  0  0  0  0
   -9.9938   -4.6470   11.8211 C   0  0  0  0  0  0
   -9.1881   -4.3065   13.0918 C   0  0  0  0  0  0
   -9.1800   -4.4273   10.5299 C   0  0  0  0  0  0
   -7.8801   -5.2633   10.6558 C   0  0  0  0  0  0
   -7.2703   -5.2656    9.2495 C   0  0  0  0  0  0
   -8.4566   -5.0373    8.2920 C   0  0  0  0  0  0
   -9.7661   -5.0047    9.1799 C   0  0  0  0  0  0
  -10.7062   -4.1042    8.5628 O   0  0  0  0  0  0
   -4.6654   -3.8300   17.7695 O   0  0  0  0  0  0
   -8.9137   -2.8976   10.3942 C   0  0  0  0  0  0
  -10.5252   -6.3347    9.3405 C   0  0  0  0  0  0
  -10.0132   -7.5742    8.9196 C   0  0  0  0  0  0
  -10.7300   -8.7618    9.1055 C   0  0  0  0  0  0
  -11.9774   -8.7397    9.7204 C   0  0  0  0  0  0
  -12.5092   -7.5302   10.1520 C   0  0  0  0  0  0
  -11.7913   -6.3453    9.9653 C   0  0  0  0  0  0
   -8.4603   -5.9581    7.2037 O   0  0  0  0  0  0
   -7.2571   -3.8349   17.6882 H   0  0  0  0  0  0
   -3.6882   -4.4618   15.3818 H   0  0  0  0  0  0
   -8.6326   -4.3343   15.7349 H   0  0  0  0  0  0
   -4.0033   -5.7531   13.2315 H   0  0  0  0  0  0
   -4.3597   -4.1168   12.6611 H   0  0  0  0  0  0
   -5.9270   -6.6797   12.1509 H   0  0  0  0  0  0
   -5.1545   -5.6088   10.9850 H   0  0  0  0  0  0
   -8.0228   -6.0901   13.2655 H   0  0  0  0  0  0
   -6.7317   -3.7698   11.7173 H   0  0  0  0  0  0
  -10.9152   -4.0528   11.8003 H   0  0  0  0  0  0
  -10.2994   -5.6955   11.9125 H   0  0  0  0  0  0
   -9.0578   -3.2219   13.1811 H   0  0  0  0  0  0
   -9.8050   -4.6051   13.9478 H   0  0  0  0  0  0
   -8.1551   -6.3070   10.8660 H   0  0  0  0  0  0
   -6.7438   -6.2030    9.0414 H   0  0  0  0  0  0
   -6.5459   -4.4501    9.1395 H   0  0  0  0  0  0
   -8.3149   -4.0586    7.8171 H   0  0  0  0  0  0
  -11.0301   -4.5155    7.7385 H   0  0  0  0  0  0
   -3.7128   -3.8975   17.5448 H   0  0  0  0  0  0
   -8.2994   -2.6497    9.5242 H   0  0  0  0  0  0
   -8.3987   -2.4722   11.2590 H   0  0  0  0  0  0
   -9.8588   -2.3508   10.2983 H   0  0  0  0  0  0
   -9.0397   -7.6471    8.4382 H   0  0  0  0  0  0
  -10.3077   -9.7070    8.7680 H   0  0  0  0  0  0
  -12.5327   -9.6644    9.8645 H   0  0  0  0  0  0
  -13.4831   -7.5044   10.6374 H   0  0  0  0  0  0
  -12.2315   -5.4142   10.3235 H   0  0  0  0  0  0
   -9.3309   -5.8490    6.7645 H   0  0  0  0  0  0
  1  2  2  0  0  0
  1  4  1  0  0  0
  1 28  1  0  0  0
  2  3  1  0  0  0
  2 19  1  0  0  0
  3  6  2  0  0  0
  3 29  1  0  0  0
  4  5  2  0  0  0
  4 30  1  0  0  0
  5  6  1  0  0  0
  5  9  1  0  0  0
  6  7  1  0  0  0
  7  8  1  0  0  0
  7 31  1  0  0  0
  7 32  1  0  0  0
  8 10  1  0  0  0
  8 33  1  0  0  0
  8 34  1  0  0  0
  9 10  1  0  0  0
  9 12  1  0  0  0
  9 35  1  0  0  0
 10 14  1  0  0  0
 10 36  1  0  0  0
 11 12  1  0  0  0
 11 13  1  0  0  0
 11 37  1  0  0  0
 11 38  1  0  0  0
 12 39  1  0  0  0
 12 40  1  0  0  0
 13 14  1  0  0  0
 13 17  1  0  0  0
 13 20  1  0  0  0
 14 15  1  0  0  0
 14 41  1  0  0  0
 15 16  1  0  0  0
 15 42  1  0  0  0
 15 43  1  0  0  0
 16 17  1  0  0  0
 16 27  1  0  0  0
 16 44  1  0  0  0
 17 18  1  0  0  0
 17 21  1  0  0  0
 18 45  1  0  0  0
 19 46  1  0  0  0
 20 47  1  0  0  0
 20 48  1  0  0  0
 20 49  1  0  0  0
 21 22  2  0  0  0
 21 26  1  0  0  0
 22 23  1  0  0  0
 22 50  1  0  0  0
 23 24  2  0  0  0
 23 51  1  0  0  0
 24 25  1  0  0  0
 24 52  1  0  0  0
 25 26  2  0  0  0
 25 53  1  0  0  0
 26 54  1  0  0  0
 27 55  1  0  0  0
M  END
>  <Name>
lit-85

>  <Family>
A.1

>  <RBA>
7.900000

>  <RBA_avg>
7.900000

>  <Method>
LUC

>  <set>
1

$$$$
lit-86
  Cerius2 12180216403D 1   1.00000                          
 Structure written by MMmdl.
 48 51  0  0  0  0  0  0  0  0999 V2000
   -6.7800   -4.2231   16.7867 C   0  0  0  0  0  0
   -5.3977   -4.2338   16.6953 C   0  0  0  0  0  0
   -4.7738   -4.4558   15.4745 C   0  0  0  0  0  0
   -7.5509   -4.4250   15.6391 C   0  0  0  0  0  0
   -6.9515   -4.6250   14.3815 C   0  0  0  0  0  0
   -5.5413   -4.6717   14.3145 C   0  0  0  0  0  0
   -4.8054   -4.9026   13.0163 C   0  0  0  0  0  0
   -5.6801   -5.4990   11.9192 C   0  0  0  0  0  0
   -7.8058   -4.8871   13.1368 C   0  0  0  0  0  0
   -6.9896   -4.7147   11.8164 C   0  0  0  0  0  0
   -9.9709   -4.4744   11.7880 C   0  0  0  0  0  0
   -9.1683   -4.1163   13.0690 C   0  0  0  0  0  0
   -9.1437   -4.3546   10.4934 C   0  0  0  0  0  0
   -7.8634   -5.1980   10.6568 C   0  0  0  0  0  0
   -7.2930   -5.2539    9.2432 C   0  0  0  0  0  0
   -8.5446   -5.3324    8.3474 C   0  0  0  0  0  0
   -9.7540   -5.0779    9.2722 C   0  0  0  0  0  0
  -10.7649   -4.3226    8.6232 O   0  0  0  0  0  0
   -4.6767   -4.0285   17.8339 O   0  0  0  0  0  0
   -8.8995   -2.8635   10.1445 C   0  0  0  0  0  0
   -8.9136   -2.7036   13.1469 O   0  0  0  0  0  0
  -10.0995   -1.9146   13.0920 C   0  0  0  0  0  0
   -7.2679   -4.0621   17.7454 H   0  0  0  0  0  0
   -3.6870   -4.4692   15.4089 H   0  0  0  0  0  0
   -8.6326   -4.4271   15.7549 H   0  0  0  0  0  0
   -3.9540   -5.5729   13.1858 H   0  0  0  0  0  0
   -4.4042   -3.9389   12.6779 H   0  0  0  0  0  0
   -5.8881   -6.5545   12.1371 H   0  0  0  0  0  0
   -5.1275   -5.4698   10.9736 H   0  0  0  0  0  0
   -8.0685   -5.9545   13.2135 H   0  0  0  0  0  0
   -6.7301   -3.6584   11.6766 H   0  0  0  0  0  0
  -10.8706   -3.8551   11.7057 H   0  0  0  0  0  0
  -10.3201   -5.5101   11.8953 H   0  0  0  0  0  0
   -9.7832   -4.4111   13.9283 H   0  0  0  0  0  0
   -8.1576   -6.2337   10.8980 H   0  0  0  0  0  0
   -6.6436   -6.1224    9.0941 H   0  0  0  0  0  0
   -6.7090   -4.3569    9.0096 H   0  0  0  0  0  0
   -8.6301   -6.3227    7.8860 H   0  0  0  0  0  0
   -8.4867   -4.6043    7.5307 H   0  0  0  0  0  0
  -10.1935   -6.0377    9.5723 H   0  0  0  0  0  0
  -11.0242   -4.8367    7.8294 H   0  0  0  0  0  0
   -3.7228   -4.0669   17.6075 H   0  0  0  0  0  0
   -8.4456   -2.7336    9.1567 H   0  0  0  0  0  0
   -8.2400   -2.3594   10.8529 H   0  0  0  0  0  0
   -9.8465   -2.3113   10.1327 H   0  0  0  0  0  0
   -9.8114   -0.8641   13.1856 H   0  0  0  0  0  0
  -10.7652   -2.1661   13.9229 H   0  0  0  0  0  0
  -10.6167   -2.0455   12.1385 H   0  0  0  0  0  0
  1  2  2  0  0  0
  1  4  1  0  0  0
  1 23  1  0  0  0
  2  3  1  0  0  0
  2 19  1  0  0  0
  3  6  2  0  0  0
  3 24  1  0  0  0
  4  5  2  0  0  0
  4 25  1  0  0  0
  5  6  1  0  0  0
  5  9  1  0  0  0
  6  7  1  0  0  0
  7  8  1  0  0  0
  7 26  1  0  0  0
  7 27  1  0  0  0
  8 10  1  0  0  0
  8 28  1  0  0  0
  8 29  1  0  0  0
  9 10  1  0  0  0
  9 12  1  0  0  0
  9 30  1  0  0  0
 10 14  1  0  0  0
 10 31  1  0  0  0
 11 12  1  0  0  0
 11 13  1  0  0  0
 11 32  1  0  0  0
 11 33  1  0  0  0
 12 21  1  0  0  0
 12 34  1  0  0  0
 13 14  1  0  0  0
 13 17  1  0  0  0
 13 20  1  0  0  0
 14 15  1  0  0  0
 14 35  1  0  0  0
 15 16  1  0  0  0
 15 36  1  0  0  0
 15 37  1  0  0  0
 16 17  1  0  0  0
 16 38  1  0  0  0
 16 39  1  0  0  0
 17 18  1  0  0  0
 17 40  1  0  0  0
 18 41  1  0  0  0
 19 42  1  0  0  0
 20 43  1  0  0  0
 20 44  1  0  0  0
 20 45  1  0  0  0
 21 22  1  0  0  0
 22 46  1  0  0  0
 22 47  1  0  0  0
 22 48  1  0  0  0
M  END
>  <Name>
lit-86

>  <Family>
A.1

>  <RBA>
8,7,10

>  <RBA_avg>
8.300000

>  <Method>
LUC,MMEC,RUC

>  <set>
0

$$$$
lit-87
  Cerius2 12180216403D 1   1.00000                          
 Structure written by MMmdl.
 51 54  0  0  0  0  0  0  0  0999 V2000
   -6.7687   -4.2130   16.7899 C   0  0  0  0  0  0
   -5.3869   -4.2167   16.6916 C   0  0  0  0  0  0
   -4.7680   -4.4415   15.4688 C   0  0  0  0  0  0
   -7.5442   -4.4247   15.6473 C   0  0  0  0  0  0
   -6.9502   -4.6278   14.3874 C   0  0  0  0  0  0
   -5.5402   -4.6674   14.3139 C   0  0  0  0  0  0
   -4.8096   -4.9012   13.0133 C   0  0  0  0  0  0
   -5.6871   -5.5062   11.9233 C   0  0  0  0  0  0
   -7.8089   -4.9002   13.1480 C   0  0  0  0  0  0
   -7.0016   -4.7284   11.8231 C   0  0  0  0  0  0
   -9.9822   -4.5171   11.8113 C   0  0  0  0  0  0
   -9.1757   -4.1385   13.0846 C   0  0  0  0  0  0
   -9.1734   -4.3969   10.5005 C   0  0  0  0  0  0
   -7.8758   -5.2194   10.6634 C   0  0  0  0  0  0
   -7.2968   -5.2497    9.2538 C   0  0  0  0  0  0
   -8.5326   -5.3316    8.3359 C   0  0  0  0  0  0
   -9.7802   -5.0799    9.2298 C   0  0  0  0  0  0
  -10.6916   -4.2040    8.5599 O   0  0  0  0  0  0
   -4.6612   -4.0019   17.8255 O   0  0  0  0  0  0
   -8.9203   -2.8937   10.1809 C   0  0  0  0  0  0
   -8.9343   -2.7240   13.1569 O   0  0  0  0  0  0
  -10.1276   -1.9461   13.1051 C   0  0  0  0  0  0
  -10.5395   -6.3891    9.4807 C   0  0  0  0  0  0
   -7.2527   -4.0499   17.7502 H   0  0  0  0  0  0
   -3.6815   -4.4495   15.3978 H   0  0  0  0  0  0
   -8.6253   -4.4320   15.7686 H   0  0  0  0  0  0
   -3.9547   -5.5672   13.1818 H   0  0  0  0  0  0
   -4.4140   -3.9374   12.6684 H   0  0  0  0  0  0
   -5.8891   -6.5618   12.1466 H   0  0  0  0  0  0
   -5.1386   -5.4785   10.9753 H   0  0  0  0  0  0
   -8.0643   -5.9689   13.2299 H   0  0  0  0  0  0
   -6.7446   -3.6720   11.6804 H   0  0  0  0  0  0
  -10.8931   -3.9141   11.7328 H   0  0  0  0  0  0
  -10.3089   -5.5547   11.9500 H   0  0  0  0  0  0
   -9.7828   -4.4345   13.9490 H   0  0  0  0  0  0
   -8.1404   -6.2605   10.9034 H   0  0  0  0  0  0
   -6.6347   -6.1079    9.1003 H   0  0  0  0  0  0
   -6.7193   -4.3439    9.0377 H   0  0  0  0  0  0
   -8.5779   -6.3151    7.8540 H   0  0  0  0  0  0
   -8.4521   -4.5916    7.5311 H   0  0  0  0  0  0
  -10.9191   -4.6281    7.7062 H   0  0  0  0  0  0
   -3.7083   -4.0361   17.5944 H   0  0  0  0  0  0
   -8.4753   -2.7448    9.1914 H   0  0  0  0  0  0
   -8.2493   -2.4057   10.8892 H   0  0  0  0  0  0
   -9.8634   -2.3348   10.1928 H   0  0  0  0  0  0
   -9.8486   -0.8928   13.1953 H   0  0  0  0  0  0
  -10.7877   -2.2016   13.9394 H   0  0  0  0  0  0
  -10.6474   -2.0836   12.1540 H   0  0  0  0  0  0
  -10.8690   -6.8285    8.5313 H   0  0  0  0  0  0
  -11.4542   -6.2068   10.0555 H   0  0  0  0  0  0
   -9.9388   -7.1386   10.0028 H   0  0  0  0  0  0
  1  2  2  0  0  0
  1  4  1  0  0  0
  1 24  1  0  0  0
  2  3  1  0  0  0
  2 19  1  0  0  0
  3  6  2  0  0  0
  3 25  1  0  0  0
  4  5  2  0  0  0
  4 26  1  0  0  0
  5  6  1  0  0  0
  5  9  1  0  0  0
  6  7  1  0  0  0
  7  8  1  0  0  0
  7 27  1  0  0  0
  7 28  1  0  0  0
  8 10  1  0  0  0
  8 29  1  0  0  0
  8 30  1  0  0  0
  9 10  1  0  0  0
  9 12  1  0  0  0
  9 31  1  0  0  0
 10 14  1  0  0  0
 10 32  1  0  0  0
 11 12  1  0  0  0
 11 13  1  0  0  0
 11 33  1  0  0  0
 11 34  1  0  0  0
 12 21  1  0  0  0
 12 35  1  0  0  0
 13 14  1  0  0  0
 13 17  1  0  0  0
 13 20  1  0  0  0
 14 15  1  0  0  0
 14 36  1  0  0  0
 15 16  1  0  0  0
 15 37  1  0  0  0
 15 38  1  0  0  0
 16 17  1  0  0  0
 16 39  1  0  0  0
 16 40  1  0  0  0
 17 18  1  0  0  0
 17 23  1  0  0  0
 18 41  1  0  0  0
 19 42  1  0  0  0
 20 43  1  0  0  0
 20 44  1  0  0  0
 20 45  1  0  0  0
 21 22  1  0  0  0
 22 46  1  0  0  0
 22 47  1  0  0  0
 22 48  1  0  0  0
 23 49  1  0  0  0
 23 50  1  0  0  0
 23 51  1  0  0  0
M  END
>  <Name>
lit-87

>  <Family>
A.1

>  <RBA>
6.000000

>  <RBA_avg>
6.000000

>  <Method>
LUC

>  <set>
1

$$$$
lit-88
  Cerius2 12180216403D 1   1.00000                          
 Structure written by MMmdl.
 50 53  0  0  0  0  0  0  0  0999 V2000
   -6.7816   -4.0904   16.7452 C   0  0  0  0  0  0
   -5.3996   -4.1244   16.6556 C   0  0  0  0  0  0
   -4.7787   -4.4368   15.4530 C   0  0  0  0  0  0
   -7.5559   -4.3638   15.6148 C   0  0  0  0  0  0
   -6.9595   -4.6613   14.3757 C   0  0  0  0  0  0
   -5.5494   -4.7227   14.3104 C   0  0  0  0  0  0
   -4.8140   -5.0369   13.0280 C   0  0  0  0  0  0
   -5.6996   -5.6197   11.9310 C   0  0  0  0  0  0
   -7.8090   -5.0046   13.1517 C   0  0  0  0  0  0
   -7.0005   -4.8191   11.8318 C   0  0  0  0  0  0
   -9.9879   -4.6175   11.8112 C   0  0  0  0  0  0
   -9.1784   -4.2786   13.0791 C   0  0  0  0  0  0
   -9.1654   -4.4197   10.5236 C   0  0  0  0  0  0
   -7.8700   -5.2574   10.6496 C   0  0  0  0  0  0
   -7.2654   -5.2354    9.2424 C   0  0  0  0  0  0
   -8.4716   -5.0816    8.2900 C   0  0  0  0  0  0
   -9.7531   -5.0091    9.2007 C   0  0  0  0  0  0
  -10.7328   -4.1395    8.6317 O   0  0  0  0  0  0
   -4.6756   -3.8483   17.7773 O   0  0  0  0  0  0
   -8.9068   -2.8933   10.3492 C   0  0  0  0  0  0
  -10.3856   -6.3386    9.3762 C   0  0  0  0  0  0
  -10.9093   -7.4122    9.5129 C   0  0  0  0  0  0
   -8.4727   -6.1272    7.3138 O   0  0  0  0  0  0
  -11.5460   -8.7199    9.6841 C   0  0  0  0  0  0
   -7.2671   -3.8567   17.6901 H   0  0  0  0  0  0
   -3.6923   -4.4646   15.3879 H   0  0  0  0  0  0
   -8.6374   -4.3452   15.7305 H   0  0  0  0  0  0
   -3.9987   -5.7418   13.2313 H   0  0  0  0  0  0
   -4.3610   -4.1055   12.6645 H   0  0  0  0  0  0
   -5.9216   -6.6723   12.1495 H   0  0  0  0  0  0
   -5.1472   -5.6007   10.9850 H   0  0  0  0  0  0
   -8.0337   -6.0775   13.2551 H   0  0  0  0  0  0
   -6.7270   -3.7628   11.7127 H   0  0  0  0  0  0
  -10.8993   -4.0081   11.7827 H   0  0  0  0  0  0
  -10.3171   -5.6588   11.9060 H   0  0  0  0  0  0
   -9.0315   -3.1950   13.1566 H   0  0  0  0  0  0
   -9.8003   -4.5598   13.9370 H   0  0  0  0  0  0
   -8.1446   -6.3067   10.8429 H   0  0  0  0  0  0
   -6.6879   -6.1436    9.0400 H   0  0  0  0  0  0
   -6.5905   -4.3794    9.1262 H   0  0  0  0  0  0
   -8.3621   -4.1479    7.7247 H   0  0  0  0  0  0
  -11.0498   -4.5753    7.8153 H   0  0  0  0  0  0
   -3.7224   -3.9124   17.5542 H   0  0  0  0  0  0
   -8.3097   -2.6638    9.4619 H   0  0  0  0  0  0
   -8.3805   -2.4499   11.1981 H   0  0  0  0  0  0
   -9.8547   -2.3515   10.2514 H   0  0  0  0  0  0
   -9.2844   -6.0076    6.7781 H   0  0  0  0  0  0
  -12.3583   -8.6636   10.4151 H   0  0  0  0  0  0
  -10.8223   -9.4611   10.0362 H   0  0  0  0  0  0
  -11.9641   -9.0754    8.7376 H   0  0  0  0  0  0
  1  2  2  0  0  0
  1  4  1  0  0  0
  1 25  1  0  0  0
  2  3  1  0  0  0
  2 19  1  0  0  0
  3  6  2  0  0  0
  3 26  1  0  0  0
  4  5  2  0  0  0
  4 27  1  0  0  0
  5  6  1  0  0  0
  5  9  1  0  0  0
  6  7  1  0  0  0
  7  8  1  0  0  0
  7 28  1  0  0  0
  7 29  1  0  0  0
  8 10  1  0  0  0
  8 30  1  0  0  0
  8 31  1  0  0  0
  9 10  1  0  0  0
  9 12  1  0  0  0
  9 32  1  0  0  0
 10 14  1  0  0  0
 10 33  1  0  0  0
 11 12  1  0  0  0
 11 13  1  0  0  0
 11 34  1  0  0  0
 11 35  1  0  0  0
 12 36  1  0  0  0
 12 37  1  0  0  0
 13 14  1  0  0  0
 13 17  1  0  0  0
 13 20  1  0  0  0
 14 15  1  0  0  0
 14 38  1  0  0  0
 15 16  1  0  0  0
 15 39  1  0  0  0
 15 40  1  0  0  0
 16 17  1  0  0  0
 16 23  1  0  0  0
 16 41  1  0  0  0
 17 18  1  0  0  0
 17 21  1  0  0  0
 18 42  1  0  0  0
 19 43  1  0  0  0
 20 44  1  0  0  0
 20 45  1  0  0  0
 20 46  1  0  0  0
 21 22  3  0  0  0
 22 24  1  0  0  0
 23 47  1  0  0  0
 24 48  1  0  0  0
 24 49  1  0  0  0
 24 50  1  0  0  0
M  END
>  <Name>
lit-88

>  <Family>
A.1

>  <RBA>
5.000000

>  <RBA_avg>
5.000000

>  <Method>
LUC

>  <set>
0

$$$$
lit-89
  Cerius2 12180216403D 1   1.00000                          
 Structure written by MMmdl.
 59 63  0  0  0  0  0  0  0  0999 V2000
   -6.7630   -4.2022   16.7919 C   0  0  0  0  0  0
   -5.3814   -4.2111   16.6919 C   0  0  0  0  0  0
   -4.7648   -4.4418   15.4689 C   0  0  0  0  0  0
   -7.5408   -4.4153   15.6510 C   0  0  0  0  0  0
   -6.9491   -4.6247   14.3910 C   0  0  0  0  0  0
   -5.5393   -4.6689   14.3158 C   0  0  0  0  0  0
   -4.8113   -4.9092   13.0151 C   0  0  0  0  0  0
   -5.6920   -5.5163   11.9289 C   0  0  0  0  0  0
   -7.8102   -4.9002   13.1538 C   0  0  0  0  0  0
   -7.0045   -4.7344   11.8261 C   0  0  0  0  0  0
   -9.9873   -4.5146   11.8167 C   0  0  0  0  0  0
   -9.1802   -4.1436   13.0932 C   0  0  0  0  0  0
   -9.1805   -4.4001   10.4989 C   0  0  0  0  0  0
   -7.8830   -5.2285   10.6692 C   0  0  0  0  0  0
   -7.2869   -5.3267    9.2613 C   0  0  0  0  0  0
   -8.4913   -5.2052    8.3042 C   0  0  0  0  0  0
   -9.7887   -5.0899    9.2080 C   0  0  0  0  0  0
  -10.7363   -4.2388    8.5346 O   0  0  0  0  0  0
   -4.6534   -3.9953   17.8241 O   0  0  0  0  0  0
   -8.9110   -2.8932   10.2072 C   0  0  0  0  0  0
  -10.5513   -6.3987    9.4887 C   0  0  0  0  0  0
   -8.9471   -2.7292   13.1829 O   0  0  0  0  0  0
  -10.1439   -1.9564   13.1348 C   0  0  0  0  0  0
  -10.0489   -7.6717    9.1676 C   0  0  0  0  0  0
  -10.7669   -8.8364    9.4624 C   0  0  0  0  0  0
  -12.0062   -8.7574   10.0888 C   0  0  0  0  0  0
  -12.5287   -7.5135   10.4228 C   0  0  0  0  0  0
  -11.8098   -6.3515   10.1275 C   0  0  0  0  0  0
   -8.5040   -6.2343    7.3177 O   0  0  0  0  0  0
   -7.2451   -4.0341   17.7523 H   0  0  0  0  0  0
   -3.6785   -4.4537   15.3965 H   0  0  0  0  0  0
   -8.6216   -4.4182   15.7739 H   0  0  0  0  0  0
   -3.9576   -5.5765   13.1848 H   0  0  0  0  0  0
   -4.4143   -3.9474   12.6660 H   0  0  0  0  0  0
   -5.8975   -6.5702   12.1573 H   0  0  0  0  0  0
   -5.1440   -5.4955   10.9804 H   0  0  0  0  0  0
   -8.0640   -5.9691   13.2400 H   0  0  0  0  0  0
   -6.7447   -3.6796   11.6777 H   0  0  0  0  0  0
  -10.8953   -3.9071   11.7397 H   0  0  0  0  0  0
  -10.3155   -5.5500   11.9623 H   0  0  0  0  0  0
   -9.7860   -4.4515   13.9546 H   0  0  0  0  0  0
   -8.1612   -6.2567   10.9415 H   0  0  0  0  0  0
   -6.7385   -6.2641    9.1199 H   0  0  0  0  0  0
   -6.5869   -4.5026    9.0808 H   0  0  0  0  0  0
   -8.3640   -4.2815    7.7270 H   0  0  0  0  0  0
  -10.2573   -3.4704    8.1693 H   0  0  0  0  0  0
   -3.7009   -4.0346   17.5922 H   0  0  0  0  0  0
   -8.3942   -2.7276    9.2579 H   0  0  0  0  0  0
   -8.2893   -2.4086   10.9604 H   0  0  0  0  0  0
   -9.8545   -2.3369   10.1648 H   0  0  0  0  0  0
   -9.8707   -0.9033   13.2439 H   0  0  0  0  0  0
  -10.8093   -2.2283   13.9596 H   0  0  0  0  0  0
  -10.6555   -2.0810   12.1774 H   0  0  0  0  0  0
   -9.0822   -7.7897    8.6814 H   0  0  0  0  0  0
  -10.3518   -9.8085    9.2007 H   0  0  0  0  0  0
  -12.5626   -9.6643   10.3174 H   0  0  0  0  0  0
  -13.4963   -7.4428   10.9164 H   0  0  0  0  0  0
  -12.2435   -5.3921   10.4112 H   0  0  0  0  0  0
   -9.3787   -6.1721    6.8774 H   0  0  0  0  0  0
  1  2  2  0  0  0
  1  4  1  0  0  0
  1 30  1  0  0  0
  2  3  1  0  0  0
  2 19  1  0  0  0
  3  6  2  0  0  0
  3 31  1  0  0  0
  4  5  2  0  0  0
  4 32  1  0  0  0
  5  6  1  0  0  0
  5  9  1  0  0  0
  6  7  1  0  0  0
  7  8  1  0  0  0
  7 33  1  0  0  0
  7 34  1  0  0  0
  8 10  1  0  0  0
  8 35  1  0  0  0
  8 36  1  0  0  0
  9 10  1  0  0  0
  9 12  1  0  0  0
  9 37  1  0  0  0
 10 14  1  0  0  0
 10 38  1  0  0  0
 11 12  1  0  0  0
 11 13  1  0  0  0
 11 39  1  0  0  0
 11 40  1  0  0  0
 12 22  1  0  0  0
 12 41  1  0  0  0
 13 14  1  0  0  0
 13 17  1  0  0  0
 13 20  1  0  0  0
 14 15  1  0  0  0
 14 42  1  0  0  0
 15 16  1  0  0  0
 15 43  1  0  0  0
 15 44  1  0  0  0
 16 17  1  0  0  0
 16 29  1  0  0  0
 16 45  1  0  0  0
 17 18  1  0  0  0
 17 21  1  0  0  0
 18 46  1  0  0  0
 19 47  1  0  0  0
 20 48  1  0  0  0
 20 49  1  0  0  0
 20 50  1  0  0  0
 21 24  2  0  0  0
 21 28  1  0  0  0
 22 23  1  0  0  0
 23 51  1  0  0  0
 23 52  1  0  0  0
 23 53  1  0  0  0
 24 25  1  0  0  0
 24 54  1  0  0  0
 25 26  2  0  0  0
 25 55  1  0  0  0
 26 27  1  0  0  0
 26 56  1  0  0  0
 27 28  2  0  0  0
 27 57  1  0  0  0
 28 58  1  0  0  0
 29 59  1  0  0  0
M  END
>  <Name>
lit-89

>  <Family>
A.1

>  <RBA>
5.000000

>  <RBA_avg>
5.000000

>  <Method>
LUC

>  <set>
2

$$$$
lit-90
  Cerius2 12180216403D 1   1.00000                          
 Structure written by MMmdl.
 52 55  0  0  0  0  0  0  0  0999 V2000
   -6.7698   -4.2059   16.7890 C   0  0  0  0  0  0
   -5.3879   -4.2136   16.6917 C   0  0  0  0  0  0
   -4.7688   -4.4435   15.4699 C   0  0  0  0  0  0
   -7.5451   -4.4188   15.6464 C   0  0  0  0  0  0
   -6.9507   -4.6268   14.3876 C   0  0  0  0  0  0
   -5.5408   -4.6706   14.3151 C   0  0  0  0  0  0
   -4.8100   -4.9099   13.0157 C   0  0  0  0  0  0
   -5.6885   -5.5156   11.9269 C   0  0  0  0  0  0
   -7.8094   -4.9004   13.1482 C   0  0  0  0  0  0
   -7.0008   -4.7341   11.8231 C   0  0  0  0  0  0
   -9.9802   -4.5156   11.8093 C   0  0  0  0  0  0
   -9.1741   -4.1356   13.0826 C   0  0  0  0  0  0
   -9.1715   -4.3985   10.4970 C   0  0  0  0  0  0
   -7.8754   -5.2243   10.6619 C   0  0  0  0  0  0
   -7.2849   -5.2731    9.2535 C   0  0  0  0  0  0
   -8.5110   -5.2729    8.3147 C   0  0  0  0  0  0
   -9.7792   -5.0881    9.2266 C   0  0  0  0  0  0
  -10.7281   -4.2200    8.5884 O   0  0  0  0  0  0
   -4.6624   -3.9974   17.8254 O   0  0  0  0  0  0
   -8.9163   -2.8953   10.1789 C   0  0  0  0  0  0
  -10.5211   -6.4076    9.4900 C   0  0  0  0  0  0
   -8.9300   -2.7218   13.1527 O   0  0  0  0  0  0
  -10.1214   -1.9413   13.0988 C   0  0  0  0  0  0
   -8.5289   -6.4730    7.5428 O   0  0  0  0  0  0
   -7.2539   -4.0388   17.7485 H   0  0  0  0  0  0
   -3.6823   -4.4545   15.3997 H   0  0  0  0  0  0
   -8.6263   -4.4227   15.7672 H   0  0  0  0  0  0
   -3.9569   -5.5778   13.1868 H   0  0  0  0  0  0
   -4.4116   -3.9482   12.6686 H   0  0  0  0  0  0
   -5.8939   -6.5699   12.1533 H   0  0  0  0  0  0
   -5.1388   -5.4926   10.9795 H   0  0  0  0  0  0
   -8.0673   -5.9683   13.2327 H   0  0  0  0  0  0
   -6.7407   -3.6788   11.6780 H   0  0  0  0  0  0
  -10.8910   -3.9125   11.7296 H   0  0  0  0  0  0
  -10.3067   -5.5526   11.9515 H   0  0  0  0  0  0
   -9.7826   -4.4288   13.9470 H   0  0  0  0  0  0
   -8.1449   -6.2627   10.9075 H   0  0  0  0  0  0
   -6.6504   -6.1543    9.1115 H   0  0  0  0  0  0
   -6.6713   -4.3843    9.0661 H   0  0  0  0  0  0
   -8.4194   -4.4454    7.6011 H   0  0  0  0  0  0
  -11.0114   -4.6590    7.7601 H   0  0  0  0  0  0
   -3.7094   -4.0348   17.5951 H   0  0  0  0  0  0
   -8.4614   -2.7431    9.1951 H   0  0  0  0  0  0
   -8.2516   -2.4076   10.8931 H   0  0  0  0  0  0
   -9.8597   -2.3367   10.1830 H   0  0  0  0  0  0
  -10.8963   -6.8362    8.5531 H   0  0  0  0  0  0
  -11.4121   -6.2385   10.1047 H   0  0  0  0  0  0
   -9.8963   -7.1610    9.9763 H   0  0  0  0  0  0
   -9.8403   -0.8886   13.1881 H   0  0  0  0  0  0
  -10.7831   -2.1945   13.9324 H   0  0  0  0  0  0
  -10.6403   -2.0786   12.1470 H   0  0  0  0  0  0
   -9.2323   -6.3605    6.8696 H   0  0  0  0  0  0
  1  2  2  0  0  0
  1  4  1  0  0  0
  1 25  1  0  0  0
  2  3  1  0  0  0
  2 19  1  0  0  0
  3  6  2  0  0  0
  3 26  1  0  0  0
  4  5  2  0  0  0
  4 27  1  0  0  0
  5  6  1  0  0  0
  5  9  1  0  0  0
  6  7  1  0  0  0
  7  8  1  0  0  0
  7 28  1  0  0  0
  7 29  1  0  0  0
  8 10  1  0  0  0
  8 30  1  0  0  0
  8 31  1  0  0  0
  9 10  1  0  0  0
  9 12  1  0  0  0
  9 32  1  0  0  0
 10 14  1  0  0  0
 10 33  1  0  0  0
 11 12  1  0  0  0
 11 13  1  0  0  0
 11 34  1  0  0  0
 11 35  1  0  0  0
 12 22  1  0  0  0
 12 36  1  0  0  0
 13 14  1  0  0  0
 13 17  1  0  0  0
 13 20  1  0  0  0
 14 15  1  0  0  0
 14 37  1  0  0  0
 15 16  1  0  0  0
 15 38  1  0  0  0
 15 39  1  0  0  0
 16 17  1  0  0  0
 16 24  1  0  0  0
 16 40  1  0  0  0
 17 18  1  0  0  0
 17 21  1  0  0  0
 18 41  1  0  0  0
 19 42  1  0  0  0
 20 43  1  0  0  0
 20 44  1  0  0  0
 20 45  1  0  0  0
 21 46  1  0  0  0
 21 47  1  0  0  0
 21 48  1  0  0  0
 22 23  1  0  0  0
 23 49  1  0  0  0
 23 50  1  0  0  0
 23 51  1  0  0  0
 24 52  1  0  0  0
M  END
>  <Name>
lit-90

>  <Family>
A.1

>  <RBA>
4.000000

>  <RBA_avg>
4.000000

>  <Method>
LUC

>  <set>
0

$$$$
lit-91
  Cerius2 12180216403D 1   1.00000                          
 Structure written by MMmdl.
 49 52  0  0  0  0  0  0  0  0999 V2000
   -6.7815   -4.2215   16.7863 C   0  0  0  0  0  0
   -5.3993   -4.2335   16.6959 C   0  0  0  0  0  0
   -4.7748   -4.4567   15.4755 C   0  0  0  0  0  0
   -7.5519   -4.4235   15.6384 C   0  0  0  0  0  0
   -6.9519   -4.6246   14.3812 C   0  0  0  0  0  0
   -5.5417   -4.6728   14.3152 C   0  0  0  0  0  0
   -4.8051   -4.9054   13.0178 C   0  0  0  0  0  0
   -5.6797   -5.5019   11.9206 C   0  0  0  0  0  0
   -7.8056   -4.8865   13.1360 C   0  0  0  0  0  0
   -6.9885   -4.7165   11.8158 C   0  0  0  0  0  0
   -9.9689   -4.4714   11.7866 C   0  0  0  0  0  0
   -9.1661   -4.1125   13.0670 C   0  0  0  0  0  0
   -9.1422   -4.3541   10.4910 C   0  0  0  0  0  0
   -7.8620   -5.1990   10.6546 C   0  0  0  0  0  0
   -7.2843   -5.2612    9.2404 C   0  0  0  0  0  0
   -8.5346   -5.3173    8.3363 C   0  0  0  0  0  0
   -9.7545   -5.0817    9.2739 C   0  0  0  0  0  0
  -10.7854   -4.3280    8.6445 O   0  0  0  0  0  0
   -4.6788   -4.0282   17.8348 O   0  0  0  0  0  0
   -8.8981   -2.8637   10.1401 C   0  0  0  0  0  0
   -8.9075   -2.7003   13.1406 O   0  0  0  0  0  0
  -10.0915   -1.9085   13.0842 C   0  0  0  0  0  0
   -8.6187   -6.5977    7.7062 O   0  0  0  0  0  0
   -7.2699   -4.0597   17.7446 H   0  0  0  0  0  0
   -3.6880   -4.4713   15.4107 H   0  0  0  0  0  0
   -8.6337   -4.4248   15.7535 H   0  0  0  0  0  0
   -3.9546   -5.5765   13.1885 H   0  0  0  0  0  0
   -4.4028   -3.9425   12.6788 H   0  0  0  0  0  0
   -5.8890   -6.5570   12.1391 H   0  0  0  0  0  0
   -5.1260   -5.4739   10.9756 H   0  0  0  0  0  0
   -8.0705   -5.9531   13.2134 H   0  0  0  0  0  0
   -6.7277   -3.6605   11.6751 H   0  0  0  0  0  0
  -10.8681   -3.8514   11.7039 H   0  0  0  0  0  0
  -10.3192   -5.5067   11.8952 H   0  0  0  0  0  0
   -9.7819   -4.4035   13.9268 H   0  0  0  0  0  0
   -8.1581   -6.2341   10.8965 H   0  0  0  0  0  0
   -6.6297   -6.1281    9.1053 H   0  0  0  0  0  0
   -6.7025   -4.3576    9.0258 H   0  0  0  0  0  0
   -8.4720   -4.5657    7.5418 H   0  0  0  0  0  0
  -10.1927   -6.0432    9.5713 H   0  0  0  0  0  0
  -11.1089   -4.8686    7.8940 H   0  0  0  0  0  0
   -3.7248   -4.0672   17.6090 H   0  0  0  0  0  0
   -8.4460   -2.7342    9.1515 H   0  0  0  0  0  0
   -8.2365   -2.3596   10.8465 H   0  0  0  0  0  0
   -9.8446   -2.3108   10.1297 H   0  0  0  0  0  0
   -9.8005   -0.8584   13.1733 H   0  0  0  0  0  0
  -10.7566   -2.1550   13.9173 H   0  0  0  0  0  0
  -10.6104   -2.0420   12.1320 H   0  0  0  0  0  0
   -9.4015   -6.5651    7.1165 H   0  0  0  0  0  0
  1  2  2  0  0  0
  1  4  1  0  0  0
  1 24  1  0  0  0
  2  3  1  0  0  0
  2 19  1  0  0  0
  3  6  2  0  0  0
  3 25  1  0  0  0
  4  5  2  0  0  0
  4 26  1  0  0  0
  5  6  1  0  0  0
  5  9  1  0  0  0
  6  7  1  0  0  0
  7  8  1  0  0  0
  7 27  1  0  0  0
  7 28  1  0  0  0
  8 10  1  0  0  0
  8 29  1  0  0  0
  8 30  1  0  0  0
  9 10  1  0  0  0
  9 12  1  0  0  0
  9 31  1  0  0  0
 10 14  1  0  0  0
 10 32  1  0  0  0
 11 12  1  0  0  0
 11 13  1  0  0  0
 11 33  1  0  0  0
 11 34  1  0  0  0
 12 21  1  0  0  0
 12 35  1  0  0  0
 13 14  1  0  0  0
 13 17  1  0  0  0
 13 20  1  0  0  0
 14 15  1  0  0  0
 14 36  1  0  0  0
 15 16  1  0  0  0
 15 37  1  0  0  0
 15 38  1  0  0  0
 16 17  1  0  0  0
 16 23  1  0  0  0
 16 39  1  0  0  0
 17 18  1  0  0  0
 17 40  1  0  0  0
 18 41  1  0  0  0
 19 42  1  0  0  0
 20 43  1  0  0  0
 20 44  1  0  0  0
 20 45  1  0  0  0
 21 22  1  0  0  0
 22 46  1  0  0  0
 22 47  1  0  0  0
 22 48  1  0  0  0
 23 49  1  0  0  0
M  END
>  <Name>
lit-91

>  <Family>
A.1

>  <RBA>
1.000000

>  <RBA_avg>
1.000000

>  <Method>
LUC

>  <set>
0

$$$$
lit-92
  Cerius2 12180216403D 1   1.00000                          
 Structure written by MMmdl.
 51 54  0  0  0  0  0  0  0  0999 V2000
   -6.7719   -4.2101   16.7894 C   0  0  0  0  0  0
   -5.3900   -4.2190   16.6935 C   0  0  0  0  0  0
   -4.7698   -4.4471   15.4719 C   0  0  0  0  0  0
   -7.5463   -4.4197   15.6456 C   0  0  0  0  0  0
   -6.9509   -4.6254   14.3867 C   0  0  0  0  0  0
   -5.5410   -4.6709   14.3158 C   0  0  0  0  0  0
   -4.8090   -4.9095   13.0170 C   0  0  0  0  0  0
   -5.6869   -5.5152   11.9280 C   0  0  0  0  0  0
   -7.8091   -4.8942   13.1459 C   0  0  0  0  0  0
   -6.9978   -4.7318   11.8217 C   0  0  0  0  0  0
   -9.9807   -4.4924   11.8076 C   0  0  0  0  0  0
   -9.1692   -4.1205   13.0797 C   0  0  0  0  0  0
   -9.1668   -4.3944   10.4945 C   0  0  0  0  0  0
   -7.8715   -5.2232   10.6615 C   0  0  0  0  0  0
   -7.2800   -5.2858    9.2513 C   0  0  0  0  0  0
   -8.5042   -5.2469    8.3081 C   0  0  0  0  0  0
   -9.7744   -5.0909    9.2301 C   0  0  0  0  0  0
  -10.7586   -4.2644    8.6068 O   0  0  0  0  0  0
   -4.6654   -4.0060   17.8284 O   0  0  0  0  0  0
   -8.9115   -2.8924   10.1684 C   0  0  0  0  0  0
   -8.9145   -2.7083   13.1482 O   0  0  0  0  0  0
  -10.1005   -1.9194   13.0937 C   0  0  0  0  0  0
   -8.5079   -6.3940    7.4531 O   0  0  0  0  0  0
  -10.4115   -6.3979    9.5212 C   0  0  0  0  0  0
  -10.9391   -7.4537    9.7487 C   0  0  0  0  0  0
   -7.2569   -4.0446   17.7488 H   0  0  0  0  0  0
   -3.6832   -4.4596   15.4028 H   0  0  0  0  0  0
   -8.6274   -4.4230   15.7653 H   0  0  0  0  0  0
   -3.9559   -5.5773   13.1883 H   0  0  0  0  0  0
   -4.4106   -3.9475   12.6702 H   0  0  0  0  0  0
   -5.8944   -6.5689   12.1554 H   0  0  0  0  0  0
   -5.1364   -5.4943   10.9810 H   0  0  0  0  0  0
   -8.0736   -5.9606   13.2299 H   0  0  0  0  0  0
   -6.7366   -3.6769   11.6742 H   0  0  0  0  0  0
  -10.8798   -3.8724   11.7242 H   0  0  0  0  0  0
  -10.3297   -5.5210   11.9553 H   0  0  0  0  0  0
   -9.7793   -4.4085   13.9447 H   0  0  0  0  0  0
   -8.1470   -6.2604   10.9113 H   0  0  0  0  0  0
   -6.6725   -6.1857    9.1084 H   0  0  0  0  0  0
   -6.6394   -4.4161    9.0653 H   0  0  0  0  0  0
   -8.4139   -4.3806    7.6418 H   0  0  0  0  0  0
  -11.0757   -4.7546    7.8217 H   0  0  0  0  0  0
   -3.7123   -4.0434   17.5989 H   0  0  0  0  0  0
   -8.4420   -2.7432    9.1915 H   0  0  0  0  0  0
   -8.2580   -2.3989   10.8889 H   0  0  0  0  0  0
   -9.8562   -2.3365   10.1549 H   0  0  0  0  0  0
   -9.8117   -0.8683   13.1785 H   0  0  0  0  0  0
  -10.7622   -2.1648   13.9299 H   0  0  0  0  0  0
  -10.6225   -2.0569   12.1438 H   0  0  0  0  0  0
   -9.3268   -6.3403    6.9178 H   0  0  0  0  0  0
  -11.4073   -8.3913    9.9503 H   0  0  0  0  0  0
  1  2  2  0  0  0
  1  4  1  0  0  0
  1 26  1  0  0  0
  2  3  1  0  0  0
  2 19  1  0  0  0
  3  6  2  0  0  0
  3 27  1  0  0  0
  4  5  2  0  0  0
  4 28  1  0  0  0
  5  6  1  0  0  0
  5  9  1  0  0  0
  6  7  1  0  0  0
  7  8  1  0  0  0
  7 29  1  0  0  0
  7 30  1  0  0  0
  8 10  1  0  0  0
  8 31  1  0  0  0
  8 32  1  0  0  0
  9 10  1  0  0  0
  9 12  1  0  0  0
  9 33  1  0  0  0
 10 14  1  0  0  0
 10 34  1  0  0  0
 11 12  1  0  0  0
 11 13  1  0  0  0
 11 35  1  0  0  0
 11 36  1  0  0  0
 12 21  1  0  0  0
 12 37  1  0  0  0
 13 14  1  0  0  0
 13 17  1  0  0  0
 13 20  1  0  0  0
 14 15  1  0  0  0
 14 38  1  0  0  0
 15 16  1  0  0  0
 15 39  1  0  0  0
 15 40  1  0  0  0
 16 17  1  0  0  0
 16 23  1  0  0  0
 16 41  1  0  0  0
 17 18  1  0  0  0
 17 24  1  0  0  0
 18 42  1  0  0  0
 19 43  1  0  0  0
 20 44  1  0  0  0
 20 45  1  0  0  0
 20 46  1  0  0  0
 21 22  1  0  0  0
 22 47  1  0  0  0
 22 48  1  0  0  0
 22 49  1  0  0  0
 23 50  1  0  0  0
 24 25  3  0  0  0
 25 51  1  0  0  0
M  END
>  <Name>
lit-92

>  <Family>
A.1

>  <RBA>
1.000000

>  <RBA_avg>
1.000000

>  <Method>
LUC

>  <set>
0

$$$$
lit-93
  Cerius2 12180216403D 1   1.00000                          
 Structure written by MMmdl.
 54 57  0  0  0  0  0  0  0  0999 V2000
   -6.7718   -4.2100   16.7894 C   0  0  0  0  0  0
   -5.3899   -4.2190   16.6935 C   0  0  0  0  0  0
   -4.7699   -4.4471   15.4718 C   0  0  0  0  0  0
   -7.5462   -4.4194   15.6455 C   0  0  0  0  0  0
   -6.9509   -4.6254   14.3867 C   0  0  0  0  0  0
   -5.5409   -4.6709   14.3157 C   0  0  0  0  0  0
   -4.8090   -4.9095   13.0170 C   0  0  0  0  0  0
   -5.6871   -5.5153   11.9280 C   0  0  0  0  0  0
   -7.8092   -4.8943   13.1459 C   0  0  0  0  0  0
   -6.9979   -4.7318   11.8218 C   0  0  0  0  0  0
   -9.9808   -4.4929   11.8076 C   0  0  0  0  0  0
   -9.1694   -4.1209   13.0797 C   0  0  0  0  0  0
   -9.1668   -4.3943   10.4946 C   0  0  0  0  0  0
   -7.8715   -5.2230   10.6616 C   0  0  0  0  0  0
   -7.2800   -5.2855    9.2514 C   0  0  0  0  0  0
   -8.5042   -5.2475    8.3082 C   0  0  0  0  0  0
   -9.7743   -5.0905    9.2302 C   0  0  0  0  0  0
  -10.7583   -4.2643    8.6063 O   0  0  0  0  0  0
   -4.6653   -4.0061   17.8284 O   0  0  0  0  0  0
   -8.9115   -2.8923   10.1686 C   0  0  0  0  0  0
   -8.9151   -2.7087   13.1482 O   0  0  0  0  0  0
  -10.1014   -1.9200   13.0936 C   0  0  0  0  0  0
   -8.5079   -6.3955    7.4546 O   0  0  0  0  0  0
  -10.4122   -6.3969    9.5219 C   0  0  0  0  0  0
  -10.9404   -7.4523    9.7518 C   0  0  0  0  0  0
  -11.5824   -8.7377   10.0356 C   0  0  0  0  0  0
   -7.2568   -4.0445   17.7487 H   0  0  0  0  0  0
   -3.6833   -4.4595   15.4027 H   0  0  0  0  0  0
   -8.6274   -4.4228   15.7653 H   0  0  0  0  0  0
   -3.9561   -5.5774   13.1883 H   0  0  0  0  0  0
   -4.4106   -3.9477   12.6701 H   0  0  0  0  0  0
   -5.8946   -6.5689   12.1554 H   0  0  0  0  0  0
   -5.1366   -5.4945   10.9810 H   0  0  0  0  0  0
   -8.0734   -5.9607   13.2299 H   0  0  0  0  0  0
   -6.7367   -3.6770   11.6744 H   0  0  0  0  0  0
  -10.8802   -3.8734   11.7243 H   0  0  0  0  0  0
  -10.3295   -5.5217   11.9551 H   0  0  0  0  0  0
   -9.7796   -4.4091   13.9447 H   0  0  0  0  0  0
   -8.1471   -6.2604   10.9111 H   0  0  0  0  0  0
   -6.6719   -6.1849    9.1086 H   0  0  0  0  0  0
   -6.6399   -4.4153    9.0654 H   0  0  0  0  0  0
   -8.4140   -4.3819    7.6410 H   0  0  0  0  0  0
  -11.0789   -4.7572    7.8244 H   0  0  0  0  0  0
   -3.7123   -4.0438   17.5989 H   0  0  0  0  0  0
   -8.4425   -2.7429    9.1916 H   0  0  0  0  0  0
   -8.2577   -2.3989   10.8889 H   0  0  0  0  0  0
   -9.8563   -2.3363   10.1557 H   0  0  0  0  0  0
   -9.8127   -0.8688   13.1780 H   0  0  0  0  0  0
  -10.7628   -2.1653   13.9298 H   0  0  0  0  0  0
  -10.6234   -2.0580   12.1437 H   0  0  0  0  0  0
   -9.3300   -6.3459    6.9238 H   0  0  0  0  0  0
  -12.3582   -8.6241   10.7987 H   0  0  0  0  0  0
  -10.8507   -9.4650   10.4000 H   0  0  0  0  0  0
  -12.0489   -9.1465    9.1343 H   0  0  0  0  0  0
  1  2  2  0  0  0
  1  4  1  0  0  0
  1 27  1  0  0  0
  2  3  1  0  0  0
  2 19  1  0  0  0
  3  6  2  0  0  0
  3 28  1  0  0  0
  4  5  2  0  0  0
  4 29  1  0  0  0
  5  6  1  0  0  0
  5  9  1  0  0  0
  6  7  1  0  0  0
  7  8  1  0  0  0
  7 30  1  0  0  0
  7 31  1  0  0  0
  8 10  1  0  0  0
  8 32  1  0  0  0
  8 33  1  0  0  0
  9 10  1  0  0  0
  9 12  1  0  0  0
  9 34  1  0  0  0
 10 14  1  0  0  0
 10 35  1  0  0  0
 11 12  1  0  0  0
 11 13  1  0  0  0
 11 36  1  0  0  0
 11 37  1  0  0  0
 12 21  1  0  0  0
 12 38  1  0  0  0
 13 14  1  0  0  0
 13 17  1  0  0  0
 13 20  1  0  0  0
 14 15  1  0  0  0
 14 39  1  0  0  0
 15 16  1  0  0  0
 15 40  1  0  0  0
 15 41  1  0  0  0
 16 17  1  0  0  0
 16 23  1  0  0  0
 16 42  1  0  0  0
 17 18  1  0  0  0
 17 24  1  0  0  0
 18 43  1  0  0  0
 19 44  1  0  0  0
 20 45  1  0  0  0
 20 46  1  0  0  0
 20 47  1  0  0  0
 21 22  1  0  0  0
 22 48  1  0  0  0
 22 49  1  0  0  0
 22 50  1  0  0  0
 23 51  1  0  0  0
 24 25  3  0  0  0
 25 26  1  0  0  0
 26 52  1  0  0  0
 26 53  1  0  0  0
 26 54  1  0  0  0
M  END
>  <Name>
lit-93

>  <Family>
A.1

>  <RBA>
0.800000

>  <RBA_avg>
0.790000

>  <Method>
LUC

>  <set>
0

$$$$
lit-94
  Cerius2 12180216403D 1   1.00000                          
 Structure written by MMmdl.
 78 81  0  0  0  0  0  0  0  0999 V2000
   -6.7996   -4.2165   16.7674 C   0  0  0  0  0  0
   -5.4204   -4.1387   16.6627 C   0  0  0  0  0  0
   -4.7925   -4.3500   15.4416 C   0  0  0  0  0  0
   -7.5646   -4.4958   15.6326 C   0  0  0  0  0  0
   -6.9630   -4.6870   14.3749 C   0  0  0  0  0  0
   -5.5532   -4.6455   14.2953 C   0  0  0  0  0  0
   -4.8157   -4.8618   12.9921 C   0  0  0  0  0  0
   -5.6346   -5.6283   11.9283 C   0  0  0  0  0  0
   -7.8146   -5.0209   13.1493 C   0  0  0  0  0  0
   -6.9963   -4.8958   11.8260 C   0  0  0  0  0  0
   -9.9662   -4.5135   11.7989 C   0  0  0  0  0  0
   -9.1403   -4.2136   13.0642 C   0  0  0  0  0  0
   -9.1282   -4.3642   10.5227 C   0  0  0  0  0  0
   -7.8927   -5.2866   10.6501 C   0  0  0  0  0  0
   -7.3164   -5.2882    9.2369 C   0  0  0  0  0  0
   -8.5578   -5.2323    8.3272 C   0  0  0  0  0  0
   -9.7616   -4.9731    9.2546 C   0  0  0  0  0  0
  -10.7230   -4.1267    8.6438 O   0  0  0  0  0  0
   -4.7052   -3.8579   17.7890 O   0  0  0  0  0  0
   -8.8088   -2.8639   10.2944 C   0  0  0  0  0  0
   -5.6488   -7.1401   12.2737 C   0  0  0  0  0  0
   -5.9519   -8.0663   11.0934 C   0  0  0  0  0  0
   -5.7484   -9.5362   11.4740 C   0  0  0  0  0  0
   -6.0714  -10.4617   10.2996 C   0  0  0  0  0  0
   -5.8667  -11.9303   10.6737 C   0  0  0  0  0  0
   -6.1993  -12.8533    9.5003 C   0  0  0  0  0  0
   -5.9936  -14.3227    9.8716 C   0  0  0  0  0  0
   -6.3330  -15.2448    8.6994 C   0  0  0  0  0  0
   -6.1273  -16.7144    9.0699 C   0  0  0  0  0  0
   -6.4704  -17.6358    7.9010 C   0  0  0  0  0  0
   -6.2688  -19.1011    8.2616 C   0  0  0  0  0  0
   -6.6062  -19.9045    7.1318 O   0  0  0  0  0  0
   -7.2892   -4.0651   17.7268 H   0  0  0  0  0  0
   -3.7078   -4.2937   15.3667 H   0  0  0  0  0  0
   -8.6434   -4.5691   15.7557 H   0  0  0  0  0  0
   -3.8697   -5.3852   13.1790 H   0  0  0  0  0  0
   -4.5515   -3.8719   12.5961 H   0  0  0  0  0  0
   -5.0965   -5.5113   10.9784 H   0  0  0  0  0  0
   -8.1077   -6.0735   13.2689 H   0  0  0  0  0  0
   -6.7400   -3.8354   11.6933 H   0  0  0  0  0  0
  -10.8425   -3.8548   11.7662 H   0  0  0  0  0  0
  -10.3544   -5.5377   11.8743 H   0  0  0  0  0  0
   -8.9239   -3.1401   13.1247 H   0  0  0  0  0  0
   -9.7796   -4.4402   13.9251 H   0  0  0  0  0  0
   -8.2637   -6.3023   10.8470 H   0  0  0  0  0  0
   -6.7158   -6.1775    9.0284 H   0  0  0  0  0  0
   -6.6781   -4.4144    9.0643 H   0  0  0  0  0  0
   -8.6933   -6.1809    7.7956 H   0  0  0  0  0  0
   -8.4476   -4.4526    7.5651 H   0  0  0  0  0  0
  -10.2547   -5.9248    9.4902 H   0  0  0  0  0  0
  -11.0014   -4.5784    7.8192 H   0  0  0  0  0  0
   -3.7529   -3.8393   17.5542 H   0  0  0  0  0  0
   -8.2319   -2.6928    9.3802 H   0  0  0  0  0  0
   -8.2420   -2.4193   11.1164 H   0  0  0  0  0  0
   -9.7346   -2.2838   10.2025 H   0  0  0  0  0  0
   -6.3393   -7.3569   13.0950 H   0  0  0  0  0  0
   -4.6527   -7.4152   12.6460 H   0  0  0  0  0  0
   -5.2957   -7.8175   10.2513 H   0  0  0  0  0  0
   -6.9828   -7.9383   10.7587 H   0  0  0  0  0  0
   -6.3904   -9.7870   12.3272 H   0  0  0  0  0  0
   -4.7105   -9.6946   11.7914 H   0  0  0  0  0  0
   -5.4322  -10.2078    9.4452 H   0  0  0  0  0  0
   -7.1101  -10.3047    9.9838 H   0  0  0  0  0  0
   -6.5017  -12.1832   11.5315 H   0  0  0  0  0  0
   -4.8265  -12.0890   10.9832 H   0  0  0  0  0  0
   -5.5657  -12.5994    8.6418 H   0  0  0  0  0  0
   -7.2400  -12.6946    9.1922 H   0  0  0  0  0  0
   -6.6243  -14.5759   10.7325 H   0  0  0  0  0  0
   -4.9519  -14.4825   10.1754 H   0  0  0  0  0  0
   -5.7026  -14.9916    7.8382 H   0  0  0  0  0  0
   -7.3747  -15.0849    8.3959 H   0  0  0  0  0  0
   -6.7552  -16.9672    9.9329 H   0  0  0  0  0  0
   -5.0847  -16.8751    9.3703 H   0  0  0  0  0  0
   -5.8530  -17.3887    7.0283 H   0  0  0  0  0  0
   -7.5098  -17.4794    7.5864 H   0  0  0  0  0  0
   -6.9133  -19.3910    9.0976 H   0  0  0  0  0  0
   -5.2256  -19.2988    8.5281 H   0  0  0  0  0  0
   -6.4598  -20.8330    7.4163 H   0  0  0  0  0  0
  1  2  2  0  0  0
  1  4  1  0  0  0
  1 33  1  0  0  0
  2  3  1  0  0  0
  2 19  1  0  0  0
  3  6  2  0  0  0
  3 34  1  0  0  0
  4  5  2  0  0  0
  4 35  1  0  0  0
  5  6  1  0  0  0
  5  9  1  0  0  0
  6  7  1  0  0  0
  7  8  1  0  0  0
  7 36  1  0  0  0
  7 37  1  0  0  0
  8 10  1  0  0  0
  8 21  1  0  0  0
  8 38  1  0  0  0
  9 10  1  0  0  0
  9 12  1  0  0  0
  9 39  1  0  0  0
 10 14  1  0  0  0
 10 40  1  0  0  0
 11 12  1  0  0  0
 11 13  1  0  0  0
 11 41  1  0  0  0
 11 42  1  0  0  0
 12 43  1  0  0  0
 12 44  1  0  0  0
 13 14  1  0  0  0
 13 17  1  0  0  0
 13 20  1  0  0  0
 14 15  1  0  0  0
 14 45  1  0  0  0
 15 16  1  0  0  0
 15 46  1  0  0  0
 15 47  1  0  0  0
 16 17  1  0  0  0
 16 48  1  0  0  0
 16 49  1  0  0  0
 17 18  1  0  0  0
 17 50  1  0  0  0
 18 51  1  0  0  0
 19 52  1  0  0  0
 20 53  1  0  0  0
 20 54  1  0  0  0
 20 55  1  0  0  0
 21 22  1  0  0  0
 21 56  1  0  0  0
 21 57  1  0  0  0
 22 23  1  0  0  0
 22 58  1  0  0  0
 22 59  1  0  0  0
 23 24  1  0  0  0
 23 60  1  0  0  0
 23 61  1  0  0  0
 24 25  1  0  0  0
 24 62  1  0  0  0
 24 63  1  0  0  0
 25 26  1  0  0  0
 25 64  1  0  0  0
 25 65  1  0  0  0
 26 27  1  0  0  0
 26 66  1  0  0  0
 26 67  1  0  0  0
 27 28  1  0  0  0
 27 68  1  0  0  0
 27 69  1  0  0  0
 28 29  1  0  0  0
 28 70  1  0  0  0
 28 71  1  0  0  0
 29 30  1  0  0  0
 29 72  1  0  0  0
 29 73  1  0  0  0
 30 31  1  0  0  0
 30 74  1  0  0  0
 30 75  1  0  0  0
 31 32  1  0  0  0
 31 76  1  0  0  0
 31 77  1  0  0  0
 32 78  1  0  0  0
M  END
>  <Name>
lit-94

>  <Family>
A.1

>  <RBA>
2.000000

>  <RBA_avg>
2.000000

>  <Method>
CUC

>  <set>
1

$$$$
lit-95
  Cerius2 12180216403D 1   1.00000                          
 Structure written by MMmdl.
 77 80  0  0  0  0  0  0  0  0999 V2000
   -6.7996   -4.2174   16.7679 C   0  0  0  0  0  0
   -5.4202   -4.1397   16.6632 C   0  0  0  0  0  0
   -4.7924   -4.3501   15.4419 C   0  0  0  0  0  0
   -7.5646   -4.4958   15.6328 C   0  0  0  0  0  0
   -6.9630   -4.6863   14.3750 C   0  0  0  0  0  0
   -5.5532   -4.6448   14.2954 C   0  0  0  0  0  0
   -4.8159   -4.8603   12.9920 C   0  0  0  0  0  0
   -5.6345   -5.6273   11.9283 C   0  0  0  0  0  0
   -7.8146   -5.0197   13.1492 C   0  0  0  0  0  0
   -6.9963   -4.8951   11.8257 C   0  0  0  0  0  0
   -9.9660   -4.5129   11.7990 C   0  0  0  0  0  0
   -9.1400   -4.2119   13.0640 C   0  0  0  0  0  0
   -9.1283   -4.3644   10.5225 C   0  0  0  0  0  0
   -7.8927   -5.2867   10.6500 C   0  0  0  0  0  0
   -7.3165   -5.2885    9.2368 C   0  0  0  0  0  0
   -8.5582   -5.2336    8.3274 C   0  0  0  0  0  0
   -9.7620   -4.9738    9.2546 C   0  0  0  0  0  0
  -10.7232   -4.1276    8.6436 O   0  0  0  0  0  0
   -4.7051   -3.8597   17.7896 O   0  0  0  0  0  0
   -8.8086   -2.8643   10.2932 C   0  0  0  0  0  0
   -5.6491   -7.1388   12.2739 C   0  0  0  0  0  0
   -5.9483   -8.0654   11.0928 C   0  0  0  0  0  0
   -5.7462   -9.5349   11.4756 C   0  0  0  0  0  0
   -6.0594  -10.4619   10.2998 C   0  0  0  0  0  0
   -5.8548  -11.9295   10.6783 C   0  0  0  0  0  0
   -6.1744  -12.8558    9.5039 C   0  0  0  0  0  0
   -5.9695  -14.3237    9.8810 C   0  0  0  0  0  0
   -6.2952  -15.2496    8.7079 C   0  0  0  0  0  0
   -6.0895  -16.7177    9.0841 C   0  0  0  0  0  0
   -6.4176  -17.6419    7.9141 C   0  0  0  0  0  0
   -6.2162  -19.1018    8.2780 C   0  0  0  0  0  0
   -6.5271  -19.8658    7.1902 F   0  0  0  0  0  0
   -7.2891   -4.0665   17.7274 H   0  0  0  0  0  0
   -3.7077   -4.2937   15.3670 H   0  0  0  0  0  0
   -8.6433   -4.5692   15.7559 H   0  0  0  0  0  0
   -3.8694   -5.3831   13.1784 H   0  0  0  0  0  0
   -4.5526   -3.8701   12.5962 H   0  0  0  0  0  0
   -5.0962   -5.5103   10.9786 H   0  0  0  0  0  0
   -8.1082   -6.0721   13.2689 H   0  0  0  0  0  0
   -6.7402   -3.8347   11.6926 H   0  0  0  0  0  0
  -10.8424   -3.8544   11.7659 H   0  0  0  0  0  0
  -10.3540   -5.5371   11.8752 H   0  0  0  0  0  0
   -8.9232   -3.1385   13.1234 H   0  0  0  0  0  0
   -9.7792   -4.4375   13.9252 H   0  0  0  0  0  0
   -8.2632   -6.3025   10.8473 H   0  0  0  0  0  0
   -6.7156   -6.1775    9.0283 H   0  0  0  0  0  0
   -6.6787   -4.4146    9.0638 H   0  0  0  0  0  0
   -8.6937   -6.1827    7.7967 H   0  0  0  0  0  0
   -8.4483   -4.4547    7.5646 H   0  0  0  0  0  0
  -10.2552   -5.9253    9.4908 H   0  0  0  0  0  0
  -11.0011   -4.5789    7.8187 H   0  0  0  0  0  0
   -3.7529   -3.8382   17.5546 H   0  0  0  0  0  0
   -8.2328   -2.6937    9.3783 H   0  0  0  0  0  0
   -8.2409   -2.4194   11.1143 H   0  0  0  0  0  0
   -9.7343   -2.2839   10.2019 H   0  0  0  0  0  0
   -6.3418   -7.3558   13.0931 H   0  0  0  0  0  0
   -4.6539   -7.4134   12.6492 H   0  0  0  0  0  0
   -5.2891   -7.8170   10.2529 H   0  0  0  0  0  0
   -6.9780   -7.9374   10.7544 H   0  0  0  0  0  0
   -6.3940   -9.7855   12.3243 H   0  0  0  0  0  0
   -4.7106   -9.6919   11.8006 H   0  0  0  0  0  0
   -5.4142  -10.2084    9.4499 H   0  0  0  0  0  0
   -7.0959  -10.3071    9.9762 H   0  0  0  0  0  0
   -6.4972  -12.1822   11.5307 H   0  0  0  0  0  0
   -4.8172  -12.0854   10.9978 H   0  0  0  0  0  0
   -5.5328  -12.6026    8.6511 H   0  0  0  0  0  0
   -7.2122  -12.6998    9.1852 H   0  0  0  0  0  0
   -6.6081  -14.5760   10.7362 H   0  0  0  0  0  0
   -4.9306  -14.4807   10.1957 H   0  0  0  0  0  0
   -5.6573  -14.9968    7.8521 H   0  0  0  0  0  0
   -7.3343  -15.0929    8.3940 H   0  0  0  0  0  0
   -6.7257  -16.9702    9.9411 H   0  0  0  0  0  0
   -5.0498  -16.8749    9.3961 H   0  0  0  0  0  0
   -5.7898  -17.3988    7.0486 H   0  0  0  0  0  0
   -7.4547  -17.4935    7.5905 H   0  0  0  0  0  0
   -6.8700  -19.4074    9.0999 H   0  0  0  0  0  0
   -5.1774  -19.3113    8.5489 H   0  0  0  0  0  0
  1  2  2  0  0  0
  1  4  1  0  0  0
  1 33  1  0  0  0
  2  3  1  0  0  0
  2 19  1  0  0  0
  3  6  2  0  0  0
  3 34  1  0  0  0
  4  5  2  0  0  0
  4 35  1  0  0  0
  5  6  1  0  0  0
  5  9  1  0  0  0
  6  7  1  0  0  0
  7  8  1  0  0  0
  7 36  1  0  0  0
  7 37  1  0  0  0
  8 10  1  0  0  0
  8 21  1  0  0  0
  8 38  1  0  0  0
  9 10  1  0  0  0
  9 12  1  0  0  0
  9 39  1  0  0  0
 10 14  1  0  0  0
 10 40  1  0  0  0
 11 12  1  0  0  0
 11 13  1  0  0  0
 11 41  1  0  0  0
 11 42  1  0  0  0
 12 43  1  0  0  0
 12 44  1  0  0  0
 13 14  1  0  0  0
 13 17  1  0  0  0
 13 20  1  0  0  0
 14 15  1  0  0  0
 14 45  1  0  0  0
 15 16  1  0  0  0
 15 46  1  0  0  0
 15 47  1  0  0  0
 16 17  1  0  0  0
 16 48  1  0  0  0
 16 49  1  0  0  0
 17 18  1  0  0  0
 17 50  1  0  0  0
 18 51  1  0  0  0
 19 52  1  0  0  0
 20 53  1  0  0  0
 20 54  1  0  0  0
 20 55  1  0  0  0
 21 22  1  0  0  0
 21 56  1  0  0  0
 21 57  1  0  0  0
 22 23  1  0  0  0
 22 58  1  0  0  0
 22 59  1  0  0  0
 23 24  1  0  0  0
 23 60  1  0  0  0
 23 61  1  0  0  0
 24 25  1  0  0  0
 24 62  1  0  0  0
 24 63  1  0  0  0
 25 26  1  0  0  0
 25 64  1  0  0  0
 25 65  1  0  0  0
 26 27  1  0  0  0
 26 66  1  0  0  0
 26 67  1  0  0  0
 27 28  1  0  0  0
 27 68  1  0  0  0
 27 69  1  0  0  0
 28 29  1  0  0  0
 28 70  1  0  0  0
 28 71  1  0  0  0
 29 30  1  0  0  0
 29 72  1  0  0  0
 29 73  1  0  0  0
 30 31  1  0  0  0
 30 74  1  0  0  0
 30 75  1  0  0  0
 31 32  1  0  0  0
 31 76  1  0  0  0
 31 77  1  0  0  0
M  END
>  <Name>
lit-95

>  <Family>
A.1

>  <RBA>
1.500000

>  <RBA_avg>
1.500000

>  <Method>
CUC

>  <set>
1

$$$$
lit-96
  Cerius2 12180216403D 1   1.00000                          
 Structure written by MMmdl.
 77 80  0  0  0  0  0  0  0  0999 V2000
   -6.7994   -4.2173   16.7679 C   0  0  0  0  0  0
   -5.4202   -4.1396   16.6630 C   0  0  0  0  0  0
   -4.7923   -4.3499   15.4417 C   0  0  0  0  0  0
   -7.5645   -4.4959   15.6329 C   0  0  0  0  0  0
   -6.9630   -4.6864   14.3750 C   0  0  0  0  0  0
   -5.5533   -4.6447   14.2953 C   0  0  0  0  0  0
   -4.8161   -4.8601   12.9919 C   0  0  0  0  0  0
   -5.6346   -5.6273   11.9283 C   0  0  0  0  0  0
   -7.8147   -5.0200   13.1494 C   0  0  0  0  0  0
   -6.9964   -4.8953   11.8258 C   0  0  0  0  0  0
   -9.9662   -4.5132   11.7989 C   0  0  0  0  0  0
   -9.1403   -4.2124   13.0640 C   0  0  0  0  0  0
   -9.1283   -4.3644   10.5225 C   0  0  0  0  0  0
   -7.8928   -5.2869   10.6501 C   0  0  0  0  0  0
   -7.3167   -5.2888    9.2369 C   0  0  0  0  0  0
   -8.5581   -5.2337    8.3274 C   0  0  0  0  0  0
   -9.7619   -4.9735    9.2545 C   0  0  0  0  0  0
  -10.7228   -4.1269    8.6435 O   0  0  0  0  0  0
   -4.7051   -3.8594   17.7895 O   0  0  0  0  0  0
   -8.8083   -2.8643   10.2936 C   0  0  0  0  0  0
   -5.6487   -7.1388   12.2741 C   0  0  0  0  0  0
   -5.9486   -8.0656   11.0936 C   0  0  0  0  0  0
   -5.7466   -9.5350   11.4766 C   0  0  0  0  0  0
   -6.0633  -10.4623   10.3019 C   0  0  0  0  0  0
   -5.8604  -11.9300   10.6807 C   0  0  0  0  0  0
   -6.1844  -12.8562    9.5075 C   0  0  0  0  0  0
   -5.9816  -14.3244    9.8849 C   0  0  0  0  0  0
   -6.3118  -15.2501    8.7130 C   0  0  0  0  0  0
   -6.1087  -16.7185    9.0896 C   0  0  0  0  0  0
   -6.4434  -17.6450    7.9193 C   0  0  0  0  0  0
   -6.2397  -19.1051    8.3010 C   0  0  0  0  0  0
   -6.6368  -20.1674    6.9244 Cl  0  0  0  0  0  0
   -7.2889   -4.0664   17.7273 H   0  0  0  0  0  0
   -3.7077   -4.2935   15.3668 H   0  0  0  0  0  0
   -8.6433   -4.5692   15.7560 H   0  0  0  0  0  0
   -3.8694   -5.3825   13.1781 H   0  0  0  0  0  0
   -4.5531   -3.8698   12.5959 H   0  0  0  0  0  0
   -5.0964   -5.5105   10.9785 H   0  0  0  0  0  0
   -8.1082   -6.0724   13.2691 H   0  0  0  0  0  0
   -6.7404   -3.8349   11.6927 H   0  0  0  0  0  0
  -10.8425   -3.8547   11.7657 H   0  0  0  0  0  0
  -10.3541   -5.5374   11.8748 H   0  0  0  0  0  0
   -8.9236   -3.1389   13.1237 H   0  0  0  0  0  0
   -9.7795   -4.4383   13.9251 H   0  0  0  0  0  0
   -8.2635   -6.3027   10.8474 H   0  0  0  0  0  0
   -6.7157   -6.1779    9.0286 H   0  0  0  0  0  0
   -6.6786   -4.4149    9.0639 H   0  0  0  0  0  0
   -8.6938   -6.1828    7.7968 H   0  0  0  0  0  0
   -8.4482   -4.4548    7.5646 H   0  0  0  0  0  0
  -10.2555   -5.9249    9.4905 H   0  0  0  0  0  0
  -11.0007   -4.5778    7.8184 H   0  0  0  0  0  0
   -3.7529   -3.8368   17.5544 H   0  0  0  0  0  0
   -8.2320   -2.6937    9.3790 H   0  0  0  0  0  0
   -8.2410   -2.4195   11.1150 H   0  0  0  0  0  0
   -9.7340   -2.2838   10.2018 H   0  0  0  0  0  0
   -6.3409   -7.3557   13.0939 H   0  0  0  0  0  0
   -4.6533   -7.4132   12.6489 H   0  0  0  0  0  0
   -5.2897   -7.8177   10.2532 H   0  0  0  0  0  0
   -6.9784   -7.9376   10.7556 H   0  0  0  0  0  0
   -6.3928   -9.7850   12.3269 H   0  0  0  0  0  0
   -4.7103   -9.6927   11.7994 H   0  0  0  0  0  0
   -5.4192  -10.2101    9.4507 H   0  0  0  0  0  0
   -7.1002  -10.3060    9.9800 H   0  0  0  0  0  0
   -6.5012  -12.1810   11.5348 H   0  0  0  0  0  0
   -4.8223  -12.0875   10.9978 H   0  0  0  0  0  0
   -5.5445  -12.6046    8.6530 H   0  0  0  0  0  0
   -7.2228  -12.6983    9.1913 H   0  0  0  0  0  0
   -6.6187  -14.5749   10.7417 H   0  0  0  0  0  0
   -4.9422  -14.4831   10.1972 H   0  0  0  0  0  0
   -5.6752  -14.9992    7.8558 H   0  0  0  0  0  0
   -7.3513  -15.0912    8.4013 H   0  0  0  0  0  0
   -6.7430  -16.9687    9.9487 H   0  0  0  0  0  0
   -5.0683  -16.8780    9.3984 H   0  0  0  0  0  0
   -5.8087  -17.3931    7.0607 H   0  0  0  0  0  0
   -7.4837  -17.4830    7.6110 H   0  0  0  0  0  0
   -6.8864  -19.3903    9.1360 H   0  0  0  0  0  0
   -5.2001  -19.3005    8.5802 H   0  0  0  0  0  0
  1  2  2  0  0  0
  1  4  1  0  0  0
  1 33  1  0  0  0
  2  3  1  0  0  0
  2 19  1  0  0  0
  3  6  2  0  0  0
  3 34  1  0  0  0
  4  5  2  0  0  0
  4 35  1  0  0  0
  5  6  1  0  0  0
  5  9  1  0  0  0
  6  7  1  0  0  0
  7  8  1  0  0  0
  7 36  1  0  0  0
  7 37  1  0  0  0
  8 10  1  0  0  0
  8 21  1  0  0  0
  8 38  1  0  0  0
  9 10  1  0  0  0
  9 12  1  0  0  0
  9 39  1  0  0  0
 10 14  1  0  0  0
 10 40  1  0  0  0
 11 12  1  0  0  0
 11 13  1  0  0  0
 11 41  1  0  0  0
 11 42  1  0  0  0
 12 43  1  0  0  0
 12 44  1  0  0  0
 13 14  1  0  0  0
 13 17  1  0  0  0
 13 20  1  0  0  0
 14 15  1  0  0  0
 14 45  1  0  0  0
 15 16  1  0  0  0
 15 46  1  0  0  0
 15 47  1  0  0  0
 16 17  1  0  0  0
 16 48  1  0  0  0
 16 49  1  0  0  0
 17 18  1  0  0  0
 17 50  1  0  0  0
 18 51  1  0  0  0
 19 52  1  0  0  0
 20 53  1  0  0  0
 20 54  1  0  0  0
 20 55  1  0  0  0
 21 22  1  0  0  0
 21 56  1  0  0  0
 21 57  1  0  0  0
 22 23  1  0  0  0
 22 58  1  0  0  0
 22 59  1  0  0  0
 23 24  1  0  0  0
 23 60  1  0  0  0
 23 61  1  0  0  0
 24 25  1  0  0  0
 24 62  1  0  0  0
 24 63  1  0  0  0
 25 26  1  0  0  0
 25 64  1  0  0  0
 25 65  1  0  0  0
 26 27  1  0  0  0
 26 66  1  0  0  0
 26 67  1  0  0  0
 27 28  1  0  0  0
 27 68  1  0  0  0
 27 69  1  0  0  0
 28 29  1  0  0  0
 28 70  1  0  0  0
 28 71  1  0  0  0
 29 30  1  0  0  0
 29 72  1  0  0  0
 29 73  1  0  0  0
 30 31  1  0  0  0
 30 74  1  0  0  0
 30 75  1  0  0  0
 31 32  1  0  0  0
 31 76  1  0  0  0
 31 77  1  0  0  0
M  END
>  <Name>
lit-96

>  <Family>
A.1

>  <RBA>
0.700000

>  <RBA_avg>
0.690000

>  <Method>
CUC

>  <set>
0

$$$$
lit-97
  Cerius2 12180216403D 1   1.00000                          
 Structure written by MMmdl.
 77 80  0  0  0  0  0  0  0  0999 V2000
   -6.7996   -4.2172   16.7677 C   0  0  0  0  0  0
   -5.4204   -4.1392   16.6629 C   0  0  0  0  0  0
   -4.7923   -4.3499   15.4418 C   0  0  0  0  0  0
   -7.5645   -4.4961   15.6327 C   0  0  0  0  0  0
   -6.9628   -4.6867   14.3750 C   0  0  0  0  0  0
   -5.5531   -4.6451   14.2953 C   0  0  0  0  0  0
   -4.8158   -4.8609   12.9920 C   0  0  0  0  0  0
   -5.6346   -5.6278   11.9283 C   0  0  0  0  0  0
   -7.8145   -5.0203   13.1493 C   0  0  0  0  0  0
   -6.9963   -4.8955   11.8257 C   0  0  0  0  0  0
   -9.9661   -4.5132   11.7990 C   0  0  0  0  0  0
   -9.1401   -4.2126   13.0641 C   0  0  0  0  0  0
   -9.1283   -4.3642   10.5226 C   0  0  0  0  0  0
   -7.8928   -5.2868   10.6501 C   0  0  0  0  0  0
   -7.3166   -5.2887    9.2369 C   0  0  0  0  0  0
   -8.5581   -5.2328    8.3274 C   0  0  0  0  0  0
   -9.7619   -4.9735    9.2545 C   0  0  0  0  0  0
  -10.7231   -4.1271    8.6436 O   0  0  0  0  0  0
   -4.7055   -3.8586   17.7895 O   0  0  0  0  0  0
   -8.8085   -2.8641   10.2937 C   0  0  0  0  0  0
   -5.6490   -7.1393   12.2742 C   0  0  0  0  0  0
   -5.9494   -8.0661   11.0936 C   0  0  0  0  0  0
   -5.7477   -9.5357   11.4764 C   0  0  0  0  0  0
   -6.0667  -10.4626   10.3022 C   0  0  0  0  0  0
   -5.8647  -11.9307   10.6804 C   0  0  0  0  0  0
   -6.1920  -12.8561    9.5074 C   0  0  0  0  0  0
   -5.9901  -14.3247    9.8836 C   0  0  0  0  0  0
   -6.3230  -15.2496    8.7118 C   0  0  0  0  0  0
   -6.1211  -16.7185    9.0873 C   0  0  0  0  0  0
   -6.4590  -17.6436    7.9174 C   0  0  0  0  0  0
   -6.2563  -19.1004    8.2979 C   0  0  0  0  0  0
   -6.6997  -20.2444    6.7817 Br  0  0  0  0  0  0
   -7.2892   -4.0659   17.7270 H   0  0  0  0  0  0
   -3.7077   -4.2935   15.3670 H   0  0  0  0  0  0
   -8.6432   -4.5698   15.7558 H   0  0  0  0  0  0
   -3.8694   -5.3838   13.1784 H   0  0  0  0  0  0
   -4.5522   -3.8709   12.5959 H   0  0  0  0  0  0
   -5.0965   -5.5109   10.9785 H   0  0  0  0  0  0
   -8.1079   -6.0728   13.2690 H   0  0  0  0  0  0
   -6.7401   -3.8350   11.6929 H   0  0  0  0  0  0
  -10.8424   -3.8546   11.7661 H   0  0  0  0  0  0
  -10.3541   -5.5374   11.8748 H   0  0  0  0  0  0
   -8.9234   -3.1392   13.1239 H   0  0  0  0  0  0
   -9.7793   -4.4387   13.9251 H   0  0  0  0  0  0
   -8.2637   -6.3025   10.8474 H   0  0  0  0  0  0
   -6.7162   -6.1781    9.0287 H   0  0  0  0  0  0
   -6.6783   -4.4151    9.0641 H   0  0  0  0  0  0
   -8.6935   -6.1814    7.7957 H   0  0  0  0  0  0
   -8.4479   -4.4532    7.5654 H   0  0  0  0  0  0
  -10.2551   -5.9250    9.4906 H   0  0  0  0  0  0
  -11.0014   -4.5788    7.8190 H   0  0  0  0  0  0
   -3.7533   -3.8358   17.5545 H   0  0  0  0  0  0
   -8.2324   -2.6934    9.3789 H   0  0  0  0  0  0
   -8.2409   -2.4193   11.1150 H   0  0  0  0  0  0
   -9.7342   -2.2838   10.2021 H   0  0  0  0  0  0
   -6.3409   -7.3561   13.0942 H   0  0  0  0  0  0
   -4.6535   -7.4139   12.6485 H   0  0  0  0  0  0
   -5.2907   -7.8184   10.2531 H   0  0  0  0  0  0
   -6.9793   -7.9377   10.7560 H   0  0  0  0  0  0
   -6.3927   -9.7852   12.3276 H   0  0  0  0  0  0
   -4.7110   -9.6939   11.7977 H   0  0  0  0  0  0
   -5.4234  -10.2108    9.4502 H   0  0  0  0  0  0
   -7.1038  -10.3054    9.9817 H   0  0  0  0  0  0
   -6.5043  -12.1812   11.5355 H   0  0  0  0  0  0
   -4.8263  -12.0895   10.9957 H   0  0  0  0  0  0
   -5.5532  -12.6049    8.6519 H   0  0  0  0  0  0
   -7.2307  -12.6969    9.1931 H   0  0  0  0  0  0
   -6.6261  -14.5751   10.7412 H   0  0  0  0  0  0
   -4.9505  -14.4848   10.1944 H   0  0  0  0  0  0
   -5.6873  -14.9991    7.8539 H   0  0  0  0  0  0
   -7.3627  -15.0894    8.4016 H   0  0  0  0  0  0
   -6.7544  -16.9682    9.9474 H   0  0  0  0  0  0
   -5.0804  -16.8796    9.3942 H   0  0  0  0  0  0
   -5.8291  -17.3903    7.0555 H   0  0  0  0  0  0
   -7.4986  -17.4784    7.6078 H   0  0  0  0  0  0
   -6.9100  -19.4053    9.1195 H   0  0  0  0  0  0
   -5.2162  -19.3163    8.5570 H   0  0  0  0  0  0
  1  2  2  0  0  0
  1  4  1  0  0  0
  1 33  1  0  0  0
  2  3  1  0  0  0
  2 19  1  0  0  0
  3  6  2  0  0  0
  3 34  1  0  0  0
  4  5  2  0  0  0
  4 35  1  0  0  0
  5  6  1  0  0  0
  5  9  1  0  0  0
  6  7  1  0  0  0
  7  8  1  0  0  0
  7 36  1  0  0  0
  7 37  1  0  0  0
  8 10  1  0  0  0
  8 21  1  0  0  0
  8 38  1  0  0  0
  9 10  1  0  0  0
  9 12  1  0  0  0
  9 39  1  0  0  0
 10 14  1  0  0  0
 10 40  1  0  0  0
 11 12  1  0  0  0
 11 13  1  0  0  0
 11 41  1  0  0  0
 11 42  1  0  0  0
 12 43  1  0  0  0
 12 44  1  0  0  0
 13 14  1  0  0  0
 13 17  1  0  0  0
 13 20  1  0  0  0
 14 15  1  0  0  0
 14 45  1  0  0  0
 15 16  1  0  0  0
 15 46  1  0  0  0
 15 47  1  0  0  0
 16 17  1  0  0  0
 16 48  1  0  0  0
 16 49  1  0  0  0
 17 18  1  0  0  0
 17 50  1  0  0  0
 18 51  1  0  0  0
 19 52  1  0  0  0
 20 53  1  0  0  0
 20 54  1  0  0  0
 20 55  1  0  0  0
 21 22  1  0  0  0
 21 56  1  0  0  0
 21 57  1  0  0  0
 22 23  1  0  0  0
 22 58  1  0  0  0
 22 59  1  0  0  0
 23 24  1  0  0  0
 23 60  1  0  0  0
 23 61  1  0  0  0
 24 25  1  0  0  0
 24 62  1  0  0  0
 24 63  1  0  0  0
 25 26  1  0  0  0
 25 64  1  0  0  0
 25 65  1  0  0  0
 26 27  1  0  0  0
 26 66  1  0  0  0
 26 67  1  0  0  0
 27 28  1  0  0  0
 27 68  1  0  0  0
 27 69  1  0  0  0
 28 29  1  0  0  0
 28 70  1  0  0  0
 28 71  1  0  0  0
 29 30  1  0  0  0
 29 72  1  0  0  0
 29 73  1  0  0  0
 30 31  1  0  0  0
 30 74  1  0  0  0
 30 75  1  0  0  0
 31 32  1  0  0  0
 31 76  1  0  0  0
 31 77  1  0  0  0
M  END
>  <Name>
lit-97

>  <Family>
A.1

>  <RBA>
0.200000

>  <RBA_avg>
0.200000

>  <Method>
CUC

>  <set>
0

$$$$
lit-98
  Cerius2 12180216403D 1   1.00000                          
 Structure written by MMmdl.
 77 80  0  0  0  0  0  0  0  0999 V2000
   -6.7997   -4.2170   16.7676 C   0  0  0  0  0  0
   -5.4203   -4.1390   16.6629 C   0  0  0  0  0  0
   -4.7923   -4.3500   15.4418 C   0  0  0  0  0  0
   -7.5645   -4.4961   15.6327 C   0  0  0  0  0  0
   -6.9628   -4.6868   14.3749 C   0  0  0  0  0  0
   -5.5531   -4.6452   14.2953 C   0  0  0  0  0  0
   -4.8158   -4.8611   12.9920 C   0  0  0  0  0  0
   -5.6346   -5.6279   11.9283 C   0  0  0  0  0  0
   -7.8146   -5.0205   13.1493 C   0  0  0  0  0  0
   -6.9963   -4.8955   11.8259 C   0  0  0  0  0  0
   -9.9661   -4.5132   11.7989 C   0  0  0  0  0  0
   -9.1402   -4.2129   13.0641 C   0  0  0  0  0  0
   -9.1282   -4.3642   10.5226 C   0  0  0  0  0  0
   -7.8927   -5.2866   10.6501 C   0  0  0  0  0  0
   -7.3166   -5.2886    9.2369 C   0  0  0  0  0  0
   -8.5582   -5.2325    8.3273 C   0  0  0  0  0  0
   -9.7618   -4.9733    9.2546 C   0  0  0  0  0  0
  -10.7233   -4.1272    8.6437 O   0  0  0  0  0  0
   -4.7055   -3.8584   17.7893 O   0  0  0  0  0  0
   -8.8084   -2.8640   10.2937 C   0  0  0  0  0  0
   -5.6490   -7.1396   12.2739 C   0  0  0  0  0  0
   -5.9496   -8.0662   11.0932 C   0  0  0  0  0  0
   -5.7473   -9.5358   11.4754 C   0  0  0  0  0  0
   -6.0662  -10.4623   10.3008 C   0  0  0  0  0  0
   -5.8631  -11.9305   10.6780 C   0  0  0  0  0  0
   -6.1901  -12.8555    9.5046 C   0  0  0  0  0  0
   -5.9866  -14.3241    9.8796 C   0  0  0  0  0  0
   -6.3194  -15.2485    8.7074 C   0  0  0  0  0  0
   -6.1158  -16.7175    9.0817 C   0  0  0  0  0  0
   -6.4537  -17.6424    7.9105 C   0  0  0  0  0  0
   -6.2487  -19.1084    8.2893 C   0  0  0  0  0  0
   -6.7288  -20.3877    6.6386 I   0  0  0  0  0  0
   -7.2894   -4.0656   17.7269 H   0  0  0  0  0  0
   -3.7077   -4.2937   15.3670 H   0  0  0  0  0  0
   -8.6432   -4.5697   15.7558 H   0  0  0  0  0  0
   -3.8694   -5.3842   13.1784 H   0  0  0  0  0  0
   -4.5521   -3.8711   12.5959 H   0  0  0  0  0  0
   -5.0966   -5.5110   10.9784 H   0  0  0  0  0  0
   -8.1078   -6.0730   13.2690 H   0  0  0  0  0  0
   -6.7401   -3.8351   11.6930 H   0  0  0  0  0  0
  -10.8424   -3.8547   11.7661 H   0  0  0  0  0  0
  -10.3540   -5.5375   11.8745 H   0  0  0  0  0  0
   -8.9236   -3.1394   13.1241 H   0  0  0  0  0  0
   -9.7795   -4.4391   13.9250 H   0  0  0  0  0  0
   -8.2636   -6.3024   10.8473 H   0  0  0  0  0  0
   -6.7161   -6.1780    9.0286 H   0  0  0  0  0  0
   -6.6782   -4.4150    9.0640 H   0  0  0  0  0  0
   -8.6936   -6.1810    7.7954 H   0  0  0  0  0  0
   -8.4479   -4.4527    7.5654 H   0  0  0  0  0  0
  -10.2550   -5.9250    9.4906 H   0  0  0  0  0  0
  -11.0017   -4.5790    7.8192 H   0  0  0  0  0  0
   -3.7533   -3.8355   17.5545 H   0  0  0  0  0  0
   -8.2324   -2.6934    9.3789 H   0  0  0  0  0  0
   -8.2410   -2.4193   11.1151 H   0  0  0  0  0  0
   -9.7342   -2.2838   10.2021 H   0  0  0  0  0  0
   -6.3410   -7.3564   13.0938 H   0  0  0  0  0  0
   -4.6535   -7.4143   12.6484 H   0  0  0  0  0  0
   -5.2912   -7.8180   10.2526 H   0  0  0  0  0  0
   -6.9796   -7.9379   10.7561 H   0  0  0  0  0  0
   -6.3920   -9.7859   12.3266 H   0  0  0  0  0  0
   -4.7104   -9.6938   11.7963 H   0  0  0  0  0  0
   -5.4235  -10.2097    9.4488 H   0  0  0  0  0  0
   -7.1035  -10.3057    9.9808 H   0  0  0  0  0  0
   -6.5020  -12.1821   11.5332 H   0  0  0  0  0  0
   -4.8244  -12.0887   10.9928 H   0  0  0  0  0  0
   -5.5522  -12.6030    8.6488 H   0  0  0  0  0  0
   -7.2291  -12.6970    9.1911 H   0  0  0  0  0  0
   -6.6218  -14.5757   10.7375 H   0  0  0  0  0  0
   -4.9466  -14.4834   10.1895 H   0  0  0  0  0  0
   -5.6846  -14.9967    7.8491 H   0  0  0  0  0  0
   -7.3596  -15.0890    8.3981 H   0  0  0  0  0  0
   -6.7484  -16.9683    9.9419 H   0  0  0  0  0  0
   -5.0748  -16.8775    9.3878 H   0  0  0  0  0  0
   -5.8228  -17.3856    7.0502 H   0  0  0  0  0  0
   -7.4942  -17.4762    7.6043 H   0  0  0  0  0  0
   -6.8821  -19.3692    9.1446 H   0  0  0  0  0  0
   -5.2084  -19.2788    8.5878 H   0  0  0  0  0  0
  1  2  2  0  0  0
  1  4  1  0  0  0
  1 33  1  0  0  0
  2  3  1  0  0  0
  2 19  1  0  0  0
  3  6  2  0  0  0
  3 34  1  0  0  0
  4  5  2  0  0  0
  4 35  1  0  0  0
  5  6  1  0  0  0
  5  9  1  0  0  0
  6  7  1  0  0  0
  7  8  1  0  0  0
  7 36  1  0  0  0
  7 37  1  0  0  0
  8 10  1  0  0  0
  8 21  1  0  0  0
  8 38  1  0  0  0
  9 10  1  0  0  0
  9 12  1  0  0  0
  9 39  1  0  0  0
 10 14  1  0  0  0
 10 40  1  0  0  0
 11 12  1  0  0  0
 11 13  1  0  0  0
 11 41  1  0  0  0
 11 42  1  0  0  0
 12 43  1  0  0  0
 12 44  1  0  0  0
 13 14  1  0  0  0
 13 17  1  0  0  0
 13 20  1  0  0  0
 14 15  1  0  0  0
 14 45  1  0  0  0
 15 16  1  0  0  0
 15 46  1  0  0  0
 15 47  1  0  0  0
 16 17  1  0  0  0
 16 48  1  0  0  0
 16 49  1  0  0  0
 17 18  1  0  0  0
 17 50  1  0  0  0
 18 51  1  0  0  0
 19 52  1  0  0  0
 20 53  1  0  0  0
 20 54  1  0  0  0
 20 55  1  0  0  0
 21 22  1  0  0  0
 21 56  1  0  0  0
 21 57  1  0  0  0
 22 23  1  0  0  0
 22 58  1  0  0  0
 22 59  1  0  0  0
 23 24  1  0  0  0
 23 60  1  0  0  0
 23 61  1  0  0  0
 24 25  1  0  0  0
 24 62  1  0  0  0
 24 63  1  0  0  0
 25 26  1  0  0  0
 25 64  1  0  0  0
 25 65  1  0  0  0
 26 27  1  0  0  0
 26 66  1  0  0  0
 26 67  1  0  0  0
 27 28  1  0  0  0
 27 68  1  0  0  0
 27 69  1  0  0  0
 28 29  1  0  0  0
 28 70  1  0  0  0
 28 71  1  0  0  0
 29 30  1  0  0  0
 29 72  1  0  0  0
 29 73  1  0  0  0
 30 31  1  0  0  0
 30 74  1  0  0  0
 30 75  1  0  0  0
 31 32  1  0  0  0
 31 76  1  0  0  0
 31 77  1  0  0  0
M  END
>  <Name>
lit-98

>  <Family>
A.1

>  <RBA>
0.100000

>  <RBA_avg>
0.100000

>  <Method>
CUC

>  <set>
0

$$$$
lit-99
  Cerius2 12180216403D 1   1.00000                          
 Structure written by MMmdl.
 88 92  0  0  0  0  0  0  0  0999 V2000
   -6.7991   -4.2149   16.7668 C   0  0  0  0  0  0
   -5.4197   -4.1380   16.6617 C   0  0  0  0  0  0
   -4.7921   -4.3491   15.4405 C   0  0  0  0  0  0
   -7.5646   -4.4939   15.6322 C   0  0  0  0  0  0
   -6.9632   -4.6863   14.3748 C   0  0  0  0  0  0
   -5.5533   -4.6450   14.2945 C   0  0  0  0  0  0
   -4.8161   -4.8631   12.9913 C   0  0  0  0  0  0
   -5.6359   -5.6313   11.9296 C   0  0  0  0  0  0
   -7.8155   -5.0216   13.1498 C   0  0  0  0  0  0
   -6.9970   -4.8968   11.8268 C   0  0  0  0  0  0
   -9.9673   -4.5147   11.7987 C   0  0  0  0  0  0
   -9.1424   -4.2159   13.0649 C   0  0  0  0  0  0
   -9.1287   -4.3638   10.5231 C   0  0  0  0  0  0
   -7.8933   -5.2860   10.6507 C   0  0  0  0  0  0
   -7.3151   -5.2870    9.2383 C   0  0  0  0  0  0
   -8.5553   -5.2293    8.3273 C   0  0  0  0  0  0
   -9.7603   -4.9729    9.2539 C   0  0  0  0  0  0
  -10.7225   -4.1280    8.6425 O   0  0  0  0  0  0
   -4.7044   -3.8591   17.7883 O   0  0  0  0  0  0
   -8.8093   -2.8633   10.2963 C   0  0  0  0  0  0
   -5.6521   -7.1421   12.2798 C   0  0  0  0  0  0
   -5.9636   -8.0713   11.1045 C   0  0  0  0  0  0
   -5.8012   -9.5423   11.4993 C   0  0  0  0  0  0
   -6.1547  -10.4668   10.3329 C   0  0  0  0  0  0
   -6.0195  -11.9389   10.7244 C   0  0  0  0  0  0
   -6.4000  -12.8565    9.5617 C   0  0  0  0  0  0
   -6.2780  -14.3302    9.9509 C   0  0  0  0  0  0
   -6.6690  -15.2437    8.7885 C   0  0  0  0  0  0
   -6.5584  -16.7187    9.1766 C   0  0  0  0  0  0
   -6.9511  -17.6271    8.0135 C   0  0  0  0  0  0
   -6.8600  -19.1030    8.3925 C   0  0  0  0  0  0
   -7.2383  -19.8713    7.2447 O   0  0  0  0  0  0
   -7.2262  -21.2322    7.3784 C   0  0  0  0  0  0
   -6.8859  -21.9404    8.5317 C   0  0  0  0  0  0
   -6.9171  -23.3388    8.5320 C   0  0  0  0  0  0
   -7.2874  -24.0340    7.3821 C   0  0  0  0  0  0
   -7.6275  -23.3323    6.2285 C   0  0  0  0  0  0
   -7.5966  -21.9364    6.2288 C   0  0  0  0  0  0
   -7.2885   -4.0632   17.7262 H   0  0  0  0  0  0
   -3.7077   -4.2925   15.3649 H   0  0  0  0  0  0
   -8.6433   -4.5664   15.7555 H   0  0  0  0  0  0
   -3.8703   -5.3866   13.1786 H   0  0  0  0  0  0
   -4.5519   -3.8738   12.5936 H   0  0  0  0  0  0
   -5.0983   -5.5178   10.9789 H   0  0  0  0  0  0
   -8.1078   -6.0742   13.2701 H   0  0  0  0  0  0
   -6.7398   -3.8365   11.6942 H   0  0  0  0  0  0
  -10.8438   -3.8564   11.7660 H   0  0  0  0  0  0
  -10.3550   -5.5391   11.8727 H   0  0  0  0  0  0
   -8.9278   -3.1423   13.1276 H   0  0  0  0  0  0
   -9.7818   -4.4455   13.9250 H   0  0  0  0  0  0
   -8.2656   -6.3011   10.8467 H   0  0  0  0  0  0
   -6.7147   -6.1766    9.0302 H   0  0  0  0  0  0
   -6.6761   -4.4135    9.0673 H   0  0  0  0  0  0
   -8.6897   -6.1763    7.7927 H   0  0  0  0  0  0
   -8.4446   -4.4474    7.5676 H   0  0  0  0  0  0
  -10.2520   -5.9255    9.4887 H   0  0  0  0  0  0
  -11.0030   -4.5829    7.8204 H   0  0  0  0  0  0
   -3.7519   -3.8415   17.5540 H   0  0  0  0  0  0
   -8.2315   -2.6913    9.3829 H   0  0  0  0  0  0
   -8.2435   -2.4195   11.1193 H   0  0  0  0  0  0
   -9.7353   -2.2837   10.2037 H   0  0  0  0  0  0
   -6.3391   -7.3537   13.1053 H   0  0  0  0  0  0
   -4.6553   -7.4195   12.6481 H   0  0  0  0  0  0
   -5.2929   -7.8449   10.2672 H   0  0  0  0  0  0
   -6.9868   -7.9222   10.7568 H   0  0  0  0  0  0
   -6.4499   -9.7662   12.3549 H   0  0  0  0  0  0
   -4.7684   -9.7285   11.8174 H   0  0  0  0  0  0
   -5.4983  -10.2505    9.4811 H   0  0  0  0  0  0
   -7.1830  -10.2679   10.0069 H   0  0  0  0  0  0
   -6.6646  -12.1511   11.5858 H   0  0  0  0  0  0
   -4.9877  -12.1441   11.0339 H   0  0  0  0  0  0
   -5.7516  -12.6487    8.7018 H   0  0  0  0  0  0
   -7.4295  -12.6443    9.2486 H   0  0  0  0  0  0
   -6.9231  -14.5370   10.8136 H   0  0  0  0  0  0
   -5.2475  -14.5459   10.2581 H   0  0  0  0  0  0
   -6.0208  -15.0407    7.9273 H   0  0  0  0  0  0
   -7.6976  -15.0226    8.4778 H   0  0  0  0  0  0
   -7.2071  -16.9220   10.0373 H   0  0  0  0  0  0
   -5.5302  -16.9419    9.4862 H   0  0  0  0  0  0
   -6.3065  -17.4342    7.1469 H   0  0  0  0  0  0
   -7.9729  -17.4014    7.6834 H   0  0  0  0  0  0
   -7.5442  -19.3091    9.2242 H   0  0  0  0  0  0
   -5.8300  -19.3440    8.6815 H   0  0  0  0  0  0
   -6.5914  -21.4397    9.4501 H   0  0  0  0  0  0
   -6.6508  -23.8864    9.4348 H   0  0  0  0  0  0
   -7.3107  -25.1222    7.3863 H   0  0  0  0  0  0
   -7.9171  -23.8701    5.3277 H   0  0  0  0  0  0
   -7.8644  -21.3967    5.3219 H   0  0  0  0  0  0
  1  2  2  0  0  0
  1  4  1  0  0  0
  1 39  1  0  0  0
  2  3  1  0  0  0
  2 19  1  0  0  0
  3  6  2  0  0  0
  3 40  1  0  0  0
  4  5  2  0  0  0
  4 41  1  0  0  0
  5  6  1  0  0  0
  5  9  1  0  0  0
  6  7  1  0  0  0
  7  8  1  0  0  0
  7 42  1  0  0  0
  7 43  1  0  0  0
  8 10  1  0  0  0
  8 21  1  0  0  0
  8 44  1  0  0  0
  9 10  1  0  0  0
  9 12  1  0  0  0
  9 45  1  0  0  0
 10 14  1  0  0  0
 10 46  1  0  0  0
 11 12  1  0  0  0
 11 13  1  0  0  0
 11 47  1  0  0  0
 11 48  1  0  0  0
 12 49  1  0  0  0
 12 50  1  0  0  0
 13 14  1  0  0  0
 13 17  1  0  0  0
 13 20  1  0  0  0
 14 15  1  0  0  0
 14 51  1  0  0  0
 15 16  1  0  0  0
 15 52  1  0  0  0
 15 53  1  0  0  0
 16 17  1  0  0  0
 16 54  1  0  0  0
 16 55  1  0  0  0
 17 18  1  0  0  0
 17 56  1  0  0  0
 18 57  1  0  0  0
 19 58  1  0  0  0
 20 59  1  0  0  0
 20 60  1  0  0  0
 20 61  1  0  0  0
 21 22  1  0  0  0
 21 62  1  0  0  0
 21 63  1  0  0  0
 22 23  1  0  0  0
 22 64  1  0  0  0
 22 65  1  0  0  0
 23 24  1  0  0  0
 23 66  1  0  0  0
 23 67  1  0  0  0
 24 25  1  0  0  0
 24 68  1  0  0  0
 24 69  1  0  0  0
 25 26  1  0  0  0
 25 70  1  0  0  0
 25 71  1  0  0  0
 26 27  1  0  0  0
 26 72  1  0  0  0
 26 73  1  0  0  0
 27 28  1  0  0  0
 27 74  1  0  0  0
 27 75  1  0  0  0
 28 29  1  0  0  0
 28 76  1  0  0  0
 28 77  1  0  0  0
 29 30  1  0  0  0
 29 78  1  0  0  0
 29 79  1  0  0  0
 30 31  1  0  0  0
 30 80  1  0  0  0
 30 81  1  0  0  0
 31 32  1  0  0  0
 31 82  1  0  0  0
 31 83  1  0  0  0
 32 33  1  0  0  0
 33 34  2  0  0  0
 33 38  1  0  0  0
 34 35  1  0  0  0
 34 84  1  0  0  0
 35 36  2  0  0  0
 35 85  1  0  0  0
 36 37  1  0  0  0
 36 86  1  0  0  0
 37 38  2  0  0  0
 37 87  1  0  0  0
 38 88  1  0  0  0
M  END
>  <Name>
lit-99

>  <Family>
A.1

>  <RBA>
0.100000

>  <RBA_avg>
0.100000

>  <Method>
CUC

>  <set>
1

$$$$
lit-100
  Cerius2 12180216403D 1   1.00000                          
 Structure written by MMmdl.
 46 49  0  0  0  0  0  0  0  0999 V2000
   -6.7819   -4.0924   16.7517 C   0  0  0  0  0  0
   -5.4010   -4.1239   16.6603 C   0  0  0  0  0  0
   -4.7911   -4.4363   15.4501 C   0  0  0  0  0  0
   -7.5535   -4.3673   15.6177 C   0  0  0  0  0  0
   -6.9578   -4.6638   14.3751 C   0  0  0  0  0  0
   -5.5476   -4.7239   14.3054 C   0  0  0  0  0  0
   -4.8120   -5.0357   13.0262 C   0  0  0  0  0  0
   -5.6982   -5.6143   11.9270 C   0  0  0  0  0  0
   -7.8082   -5.0062   13.1517 C   0  0  0  0  0  0
   -7.0008   -4.8156   11.8321 C   0  0  0  0  0  0
   -9.9876   -4.6240   11.8141 C   0  0  0  0  0  0
   -9.1777   -4.2808   13.0804 C   0  0  0  0  0  0
   -9.1676   -4.4213   10.5268 C   0  0  0  0  0  0
   -7.8697   -5.2525   10.6495 C   0  0  0  0  0  0
   -7.2754   -5.1970    9.2442 C   0  0  0  0  0  0
   -8.4960   -5.1414    8.3020 C   0  0  0  0  0  0
   -9.7525   -5.0039    9.2031 C   0  0  0  0  0  0
  -10.6953   -4.1175    8.6066 O   0  0  0  0  0  0
   -4.6655   -3.8481   17.7782 O   0  0  0  0  0  0
   -8.9157   -2.8939   10.3498 C   0  0  0  0  0  0
   -3.4500   -4.4616   15.3879 F   0  0  0  0  0  0
  -10.4132   -6.3184    9.3646 C   0  0  0  0  0  0
  -10.9522   -7.3863    9.4816 C   0  0  0  0  0  0
   -7.2685   -3.8603   17.6960 H   0  0  0  0  0  0
   -8.6357   -4.3508   15.7328 H   0  0  0  0  0  0
   -3.9988   -5.7437   13.2273 H   0  0  0  0  0  0
   -4.3565   -4.1049   12.6647 H   0  0  0  0  0  0
   -5.9185   -6.6682   12.1411 H   0  0  0  0  0  0
   -5.1468   -5.5903   10.9806 H   0  0  0  0  0  0
   -8.0315   -6.0796   13.2528 H   0  0  0  0  0  0
   -6.7286   -3.7587   11.7163 H   0  0  0  0  0  0
  -10.9022   -4.0196   11.7871 H   0  0  0  0  0  0
  -10.3103   -5.6675   11.9083 H   0  0  0  0  0  0
   -9.0308   -3.1968   13.1536 H   0  0  0  0  0  0
   -9.7983   -4.5600   13.9398 H   0  0  0  0  0  0
   -8.1362   -6.3060   10.8309 H   0  0  0  0  0  0
   -6.6537   -6.0732    9.0325 H   0  0  0  0  0  0
   -6.6498   -4.3079    9.1069 H   0  0  0  0  0  0
   -8.5337   -6.0387    7.6726 H   0  0  0  0  0  0
   -8.3973   -4.2882    7.6198 H   0  0  0  0  0  0
  -10.9253   -4.5119    7.7405 H   0  0  0  0  0  0
   -3.7181   -3.9187   17.5269 H   0  0  0  0  0  0
   -8.3513   -2.6639    9.4408 H   0  0  0  0  0  0
   -8.3626   -2.4520   11.1822 H   0  0  0  0  0  0
   -9.8671   -2.3530   10.2839 H   0  0  0  0  0  0
  -11.4314   -8.3342    9.5859 H   0  0  0  0  0  0
  1  2  2  0  0  0
  1  4  1  0  0  0
  1 24  1  0  0  0
  2  3  1  0  0  0
  2 19  1  0  0  0
  3  6  2  0  0  0
  3 21  1  0  0  0
  4  5  2  0  0  0
  4 25  1  0  0  0
  5  6  1  0  0  0
  5  9  1  0  0  0
  6  7  1  0  0  0
  7  8  1  0  0  0
  7 26  1  0  0  0
  7 27  1  0  0  0
  8 10  1  0  0  0
  8 28  1  0  0  0
  8 29  1  0  0  0
  9 10  1  0  0  0
  9 12  1  0  0  0
  9 30  1  0  0  0
 10 14  1  0  0  0
 10 31  1  0  0  0
 11 12  1  0  0  0
 11 13  1  0  0  0
 11 32  1  0  0  0
 11 33  1  0  0  0
 12 34  1  0  0  0
 12 35  1  0  0  0
 13 14  1  0  0  0
 13 17  1  0  0  0
 13 20  1  0  0  0
 14 15  1  0  0  0
 14 36  1  0  0  0
 15 16  1  0  0  0
 15 37  1  0  0  0
 15 38  1  0  0  0
 16 17  1  0  0  0
 16 39  1  0  0  0
 16 40  1  0  0  0
 17 18  1  0  0  0
 17 22  1  0  0  0
 18 41  1  0  0  0
 19 42  1  0  0  0
 20 43  1  0  0  0
 20 44  1  0  0  0
 20 45  1  0  0  0
 22 23  3  0  0  0
 23 46  1  0  0  0
M  END
>  <Name>
lit-100

>  <Family>
A.1

>  <RBA>
120.000000

>  <RBA_avg>
120.000000

>  <Method>
MMEC

>  <set>
0

$$$$
lit-101
  Cerius2 12180216403D 1   1.00000                          
 Structure written by MMmdl.
 48 51  0  0  0  0  0  0  0  0999 V2000
   -6.7836   -4.1010   16.7540 C   0  0  0  0  0  0
   -5.4026   -4.1290   16.6626 C   0  0  0  0  0  0
   -4.7921   -4.4351   15.4512 C   0  0  0  0  0  0
   -7.5544   -4.3722   15.6186 C   0  0  0  0  0  0
   -6.9582   -4.6609   14.3743 C   0  0  0  0  0  0
   -5.5480   -4.7191   14.3052 C   0  0  0  0  0  0
   -4.8114   -5.0263   13.0256 C   0  0  0  0  0  0
   -5.6965   -5.6115   11.9296 C   0  0  0  0  0  0
   -7.8095   -4.9969   13.1491 C   0  0  0  0  0  0
   -6.9995   -4.8139   11.8300 C   0  0  0  0  0  0
   -9.9929   -4.5965   11.8166 C   0  0  0  0  0  0
   -9.1700   -4.2549   13.0758 C   0  0  0  0  0  0
   -9.1716   -4.4490   10.5251 C   0  0  0  0  0  0
   -7.8653   -5.2602   10.6482 C   0  0  0  0  0  0
   -7.2717   -5.1952    9.2415 C   0  0  0  0  0  0
   -8.4892   -5.1167    8.2948 C   0  0  0  0  0  0
   -9.7605   -5.0388    9.1955 C   0  0  0  0  0  0
  -10.7001   -4.1101    8.6405 O   0  0  0  0  0  0
   -4.6677   -3.8568   17.7817 O   0  0  0  0  0  0
   -8.9102   -2.9160   10.3319 C   0  0  0  0  0  0
   -3.4509   -4.4580   15.3891 F   0  0  0  0  0  0
  -10.4695   -6.3810    9.1360 C   0  0  0  0  0  0
  -11.6705   -6.7739    9.5819 C   0  0  0  0  0  0
   -7.2707   -3.8745   17.6995 H   0  0  0  0  0  0
   -8.6365   -4.3591   15.7343 H   0  0  0  0  0  0
   -3.9939   -5.7293   13.2258 H   0  0  0  0  0  0
   -4.3622   -4.0930   12.6629 H   0  0  0  0  0  0
   -5.9163   -6.6643   12.1492 H   0  0  0  0  0  0
   -5.1451   -5.5920   10.9830 H   0  0  0  0  0  0
   -8.0439   -6.0679   13.2505 H   0  0  0  0  0  0
   -6.7268   -3.7578   11.7087 H   0  0  0  0  0  0
  -10.8840   -3.9579   11.7794 H   0  0  0  0  0  0
  -10.3647   -5.6142   11.9441 H   0  0  0  0  0  0
   -9.0077   -3.1725   13.1399 H   0  0  0  0  0  0
   -9.7915   -4.5163   13.9401 H   0  0  0  0  0  0
   -8.1046   -6.3157   10.8299 H   0  0  0  0  0  0
   -6.6603   -6.0773    9.0229 H   0  0  0  0  0  0
   -6.6339   -4.3135    9.1124 H   0  0  0  0  0  0
   -8.5011   -5.9867    7.6268 H   0  0  0  0  0  0
   -8.4019   -4.2369    7.6456 H   0  0  0  0  0  0
  -10.7683   -4.3130    7.6853 H   0  0  0  0  0  0
   -3.7201   -3.9239   17.5303 H   0  0  0  0  0  0
   -8.3462   -2.6917    9.4216 H   0  0  0  0  0  0
   -8.3537   -2.4694   11.1595 H   0  0  0  0  0  0
   -9.8582   -2.3689   10.2650 H   0  0  0  0  0  0
   -9.8741   -7.1676    8.6653 H   0  0  0  0  0  0
  -11.9911   -7.8049    9.4460 H   0  0  0  0  0  0
  -12.3667   -6.1296   10.1036 H   0  0  0  0  0  0
  1  2  2  0  0  0
  1  4  1  0  0  0
  1 24  1  0  0  0
  2  3  1  0  0  0
  2 19  1  0  0  0
  3  6  2  0  0  0
  3 21  1  0  0  0
  4  5  2  0  0  0
  4 25  1  0  0  0
  5  6  1  0  0  0
  5  9  1  0  0  0
  6  7  1  0  0  0
  7  8  1  0  0  0
  7 26  1  0  0  0
  7 27  1  0  0  0
  8 10  1  0  0  0
  8 28  1  0  0  0
  8 29  1  0  0  0
  9 10  1  0  0  0
  9 12  1  0  0  0
  9 30  1  0  0  0
 10 14  1  0  0  0
 10 31  1  0  0  0
 11 12  1  0  0  0
 11 13  1  0  0  0
 11 32  1  0  0  0
 11 33  1  0  0  0
 12 34  1  0  0  0
 12 35  1  0  0  0
 13 14  1  0  0  0
 13 17  1  0  0  0
 13 20  1  0  0  0
 14 15  1  0  0  0
 14 36  1  0  0  0
 15 16  1  0  0  0
 15 37  1  0  0  0
 15 38  1  0  0  0
 16 17  1  0  0  0
 16 39  1  0  0  0
 16 40  1  0  0  0
 17 18  1  0  0  0
 17 22  1  0  0  0
 18 41  1  0  0  0
 19 42  1  0  0  0
 20 43  1  0  0  0
 20 44  1  0  0  0
 20 45  1  0  0  0
 22 23  2  0  0  0
 22 46  1  0  0  0
 23 47  1  0  0  0
 23 48  1  0  0  0
M  END
>  <Name>
lit-101

>  <Family>
A.1

>  <RBA>
74.000000

>  <RBA_avg>
74.000000

>  <Method>
MMEC

>  <set>
0

$$$$
lit-102
  Cerius2 12180216403D 1   1.00000                          
 Structure written by MMmdl.
 49 52  0  0  0  0  0  0  0  0999 V2000
   -6.7880   -4.1637   16.7648 C   0  0  0  0  0  0
   -5.4064   -4.1440   16.6678 C   0  0  0  0  0  0
   -4.7817   -4.3988   15.4537 C   0  0  0  0  0  0
   -7.5572   -4.4305   15.6296 C   0  0  0  0  0  0
   -6.9580   -4.6669   14.3783 C   0  0  0  0  0  0
   -5.5472   -4.6799   14.3060 C   0  0  0  0  0  0
   -4.8046   -4.9356   13.0134 C   0  0  0  0  0  0
   -5.6511   -5.5850   11.9078 C   0  0  0  0  0  0
   -7.8113   -4.9985   13.1542 C   0  0  0  0  0  0
   -7.0025   -4.8443   11.8299 C   0  0  0  0  0  0
   -9.9829   -4.5598   11.8180 C   0  0  0  0  0  0
   -9.1539   -4.2211   13.0735 C   0  0  0  0  0  0
   -9.1648   -4.4096   10.5221 C   0  0  0  0  0  0
   -7.8902   -5.2769   10.6564 C   0  0  0  0  0  0
   -7.3018   -5.2661    9.2477 C   0  0  0  0  0  0
   -8.5258   -5.1982    8.3106 C   0  0  0  0  0  0
   -9.7733   -5.0053    9.2142 C   0  0  0  0  0  0
  -10.6942   -4.1069    8.6019 O   0  0  0  0  0  0
   -4.6866   -3.8753   17.7939 O   0  0  0  0  0  0
   -8.8737   -2.8939   10.3081 C   0  0  0  0  0  0
  -10.4694   -6.2969    9.4086 C   0  0  0  0  0  0
  -11.0363   -7.3468    9.5529 C   0  0  0  0  0  0
   -5.7568   -7.1008   12.1107 C   0  0  0  0  0  0
   -7.2766   -3.9772   17.7185 H   0  0  0  0  0  0
   -3.6953   -4.3862   15.3840 H   0  0  0  0  0  0
   -8.6381   -4.4582   15.7502 H   0  0  0  0  0  0
   -3.9196   -5.5541   13.2091 H   0  0  0  0  0  0
   -4.4415   -3.9640   12.6520 H   0  0  0  0  0  0
   -5.1121   -5.4341   10.9632 H   0  0  0  0  0  0
   -8.0810   -6.0584   13.2673 H   0  0  0  0  0  0
   -6.7518   -3.7827   11.7007 H   0  0  0  0  0  0
  -10.8765   -3.9249   11.7848 H   0  0  0  0  0  0
  -10.3409   -5.5894   11.9340 H   0  0  0  0  0  0
   -8.9639   -3.1425   13.1238 H   0  0  0  0  0  0
   -9.7819   -4.4561   13.9405 H   0  0  0  0  0  0
   -8.1975   -6.3144   10.8576 H   0  0  0  0  0  0
   -6.7031   -6.1613    9.0510 H   0  0  0  0  0  0
   -6.6552   -4.3958    9.0888 H   0  0  0  0  0  0
   -8.5917   -6.1085    7.7025 H   0  0  0  0  0  0
   -8.4074   -4.3640    7.6084 H   0  0  0  0  0  0
  -10.9398   -4.5143    7.7462 H   0  0  0  0  0  0
   -3.7330   -3.8982   17.5646 H   0  0  0  0  0  0
   -8.3002   -2.7010    9.3962 H   0  0  0  0  0  0
   -8.3143   -2.4438   11.1317 H   0  0  0  0  0  0
   -9.8110   -2.3311   10.2247 H   0  0  0  0  0  0
  -11.5402   -8.2787    9.6816 H   0  0  0  0  0  0
   -6.3303   -7.5719   11.3071 H   0  0  0  0  0  0
   -6.2234   -7.3649   13.0641 H   0  0  0  0  0  0
   -4.7589   -7.5536   12.1014 H   0  0  0  0  0  0
  1  2  2  0  0  0
  1  4  1  0  0  0
  1 24  1  0  0  0
  2  3  1  0  0  0
  2 19  1  0  0  0
  3  6  2  0  0  0
  3 25  1  0  0  0
  4  5  2  0  0  0
  4 26  1  0  0  0
  5  6  1  0  0  0
  5  9  1  0  0  0
  6  7  1  0  0  0
  7  8  1  0  0  0
  7 27  1  0  0  0
  7 28  1  0  0  0
  8 10  1  0  0  0
  8 23  1  0  0  0
  8 29  1  0  0  0
  9 10  1  0  0  0
  9 12  1  0  0  0
  9 30  1  0  0  0
 10 14  1  0  0  0
 10 31  1  0  0  0
 11 12  1  0  0  0
 11 13  1  0  0  0
 11 32  1  0  0  0
 11 33  1  0  0  0
 12 34  1  0  0  0
 12 35  1  0  0  0
 13 14  1  0  0  0
 13 17  1  0  0  0
 13 20  1  0  0  0
 14 15  1  0  0  0
 14 36  1  0  0  0
 15 16  1  0  0  0
 15 37  1  0  0  0
 15 38  1  0  0  0
 16 17  1  0  0  0
 16 39  1  0  0  0
 16 40  1  0  0  0
 17 18  1  0  0  0
 17 21  1  0  0  0
 18 41  1  0  0  0
 19 42  1  0  0  0
 20 43  1  0  0  0
 20 44  1  0  0  0
 20 45  1  0  0  0
 21 22  3  0  0  0
 22 46  1  0  0  0
 23 47  1  0  0  0
 23 48  1  0  0  0
 23 49  1  0  0  0
M  END
>  <Name>
lit-102

>  <Family>
A.1

>  <RBA>
72.000000

>  <RBA_avg>
72.000000

>  <Method>
MMEC

>  <set>
0

$$$$
lit-103
  Cerius2 12180216403D 1   1.00000                          
 Structure written by MMmdl.
 48 51  0  0  0  0  0  0  0  0999 V2000
   -6.7774   -4.0857   16.7514 C   0  0  0  0  0  0
   -5.3967   -4.1194   16.6578 C   0  0  0  0  0  0
   -4.7891   -4.4358   15.4474 C   0  0  0  0  0  0
   -7.5513   -4.3625   15.6195 C   0  0  0  0  0  0
   -6.9579   -4.6633   14.3769 C   0  0  0  0  0  0
   -5.5481   -4.7252   14.3048 C   0  0  0  0  0  0
   -4.8152   -5.0408   13.0249 C   0  0  0  0  0  0
   -5.7043   -5.6189   11.9276 C   0  0  0  0  0  0
   -7.8103   -5.0086   13.1558 C   0  0  0  0  0  0
   -7.0063   -4.8189   11.8345 C   0  0  0  0  0  0
   -9.9903   -4.6352   11.8209 C   0  0  0  0  0  0
   -9.1810   -4.2864   13.0857 C   0  0  0  0  0  0
   -9.1767   -4.4285   10.5284 C   0  0  0  0  0  0
   -7.8774   -5.2563   10.6531 C   0  0  0  0  0  0
   -7.2774   -5.2045    9.2491 C   0  0  0  0  0  0
   -8.4896   -5.1015    8.3036 C   0  0  0  0  0  0
   -9.7566   -5.0273    9.1943 C   0  0  0  0  0  0
  -10.6662   -4.0992    8.5852 O   0  0  0  0  0  0
   -4.6589   -3.8419   17.7737 O   0  0  0  0  0  0
   -8.9243   -2.9000   10.3574 C   0  0  0  0  0  0
   -3.4483   -4.4632   15.3829 F   0  0  0  0  0  0
  -10.5867   -6.2793    9.3933 C   0  0  0  0  0  0
  -11.7930   -6.5887    9.8919 C   0  0  0  0  0  0
  -13.2691   -5.4274   10.6527 I   0  0  0  0  0  0
   -7.2620   -3.8503   17.6960 H   0  0  0  0  0  0
   -8.6332   -4.3441   15.7363 H   0  0  0  0  0  0
   -4.0034   -5.7503   13.2257 H   0  0  0  0  0  0
   -4.3582   -4.1115   12.6612 H   0  0  0  0  0  0
   -5.9254   -6.6725   12.1424 H   0  0  0  0  0  0
   -5.1544   -5.5964   10.9803 H   0  0  0  0  0  0
   -8.0315   -6.0823   13.2591 H   0  0  0  0  0  0
   -6.7338   -3.7622   11.7175 H   0  0  0  0  0  0
  -10.9098   -4.0381   11.7957 H   0  0  0  0  0  0
  -10.3027   -5.6818   11.9189 H   0  0  0  0  0  0
   -9.0377   -3.2020   13.1585 H   0  0  0  0  0  0
   -9.7997   -4.5670   13.9461 H   0  0  0  0  0  0
   -8.1457   -6.3067   10.8403 H   0  0  0  0  0  0
   -6.6749   -6.0922    9.0336 H   0  0  0  0  0  0
   -6.6265   -4.3317    9.1231 H   0  0  0  0  0  0
   -8.5186   -5.9094    7.5709 H   0  0  0  0  0  0
   -8.3889   -4.1903    7.6984 H   0  0  0  0  0  0
  -10.8674   -4.4580    7.6961 H   0  0  0  0  0  0
   -3.7120   -3.9143   17.5212 H   0  0  0  0  0  0
   -8.3477   -2.6639    9.4582 H   0  0  0  0  0  0
   -8.3817   -2.4596   11.1976 H   0  0  0  0  0  0
   -9.8757   -2.3604   10.2831 H   0  0  0  0  0  0
  -10.0436   -7.1577    9.0273 H   0  0  0  0  0  0
  -12.0637   -7.6443    9.8750 H   0  0  0  0  0  0
  1  2  2  0  0  0
  1  4  1  0  0  0
  1 25  1  0  0  0
  2  3  1  0  0  0
  2 19  1  0  0  0
  3  6  2  0  0  0
  3 21  1  0  0  0
  4  5  2  0  0  0
  4 26  1  0  0  0
  5  6  1  0  0  0
  5  9  1  0  0  0
  6  7  1  0  0  0
  7  8  1  0  0  0
  7 27  1  0  0  0
  7 28  1  0  0  0
  8 10  1  0  0  0
  8 29  1  0  0  0
  8 30  1  0  0  0
  9 10  1  0  0  0
  9 12  1  0  0  0
  9 31  1  0  0  0
 10 14  1  0  0  0
 10 32  1  0  0  0
 11 12  1  0  0  0
 11 13  1  0  0  0
 11 33  1  0  0  0
 11 34  1  0  0  0
 12 35  1  0  0  0
 12 36  1  0  0  0
 13 14  1  0  0  0
 13 17  1  0  0  0
 13 20  1  0  0  0
 14 15  1  0  0  0
 14 37  1  0  0  0
 15 16  1  0  0  0
 15 38  1  0  0  0
 15 39  1  0  0  0
 16 17  1  0  0  0
 16 40  1  0  0  0
 16 41  1  0  0  0
 17 18  1  0  0  0
 17 22  1  0  0  0
 18 42  1  0  0  0
 19 43  1  0  0  0
 20 44  1  0  0  0
 20 45  1  0  0  0
 20 46  1  0  0  0
 22 23  2  0  0  0
 22 47  1  0  0  0
 23 24  1  0  0  0
 23 48  1  0  0  0
M  END
>  <Name>
lit-103

>  <Family>
A.1

>  <RBA>
68.000000

>  <RBA_avg>
68.000000

>  <Method>
MMEC

>  <set>
0

$$$$
lit-104
  Cerius2 12180216403D 1   1.00000                          
 Structure written by MMmdl.
 46 49  0  0  0  0  0  0  0  0999 V2000
   -6.7807   -4.0974   16.7370 C   0  0  0  0  0  0
   -5.3949   -4.1261   16.6614 C   0  0  0  0  0  0
   -4.7771   -4.4359   15.4558 C   0  0  0  0  0  0
   -7.5607   -4.3671   15.6149 C   0  0  0  0  0  0
   -6.9631   -4.6616   14.3766 C   0  0  0  0  0  0
   -5.5511   -4.7204   14.3128 C   0  0  0  0  0  0
   -4.8155   -5.0307   13.0287 C   0  0  0  0  0  0
   -5.7003   -5.6128   11.9307 C   0  0  0  0  0  0
   -7.8109   -5.0043   13.1519 C   0  0  0  0  0  0
   -7.0026   -4.8144   11.8334 C   0  0  0  0  0  0
   -9.9894   -4.6234   11.8126 C   0  0  0  0  0  0
   -9.1807   -4.2794   13.0793 C   0  0  0  0  0  0
   -9.1681   -4.4216   10.5258 C   0  0  0  0  0  0
   -7.8702   -5.2524   10.6503 C   0  0  0  0  0  0
   -7.2747   -5.1980    9.2454 C   0  0  0  0  0  0
   -8.4945   -5.1428    8.3021 C   0  0  0  0  0  0
   -9.7517   -5.0053    9.2020 C   0  0  0  0  0  0
  -10.6944   -4.1195    8.6041 O   0  0  0  0  0  0
   -4.6583   -3.8527   17.7792 O   0  0  0  0  0  0
   -8.9163   -2.8942   10.3480 C   0  0  0  0  0  0
  -10.4121   -6.3199    9.3639 C   0  0  0  0  0  0
  -10.9508   -7.3879    9.4811 C   0  0  0  0  0  0
   -7.3872   -3.8127   17.8993 F   0  0  0  0  0  0
   -3.6908   -4.4630   15.3872 H   0  0  0  0  0  0
   -8.6392   -4.3478   15.7390 H   0  0  0  0  0  0
   -3.9988   -5.7345   13.2302 H   0  0  0  0  0  0
   -4.3644   -4.0976   12.6672 H   0  0  0  0  0  0
   -5.9202   -6.6663   12.1471 H   0  0  0  0  0  0
   -5.1484   -5.5908   10.9845 H   0  0  0  0  0  0
   -8.0343   -6.0778   13.2533 H   0  0  0  0  0  0
   -6.7305   -3.7577   11.7170 H   0  0  0  0  0  0
  -10.9041   -4.0191   11.7842 H   0  0  0  0  0  0
  -10.3121   -5.6669   11.9071 H   0  0  0  0  0  0
   -9.0342   -3.1953   13.1521 H   0  0  0  0  0  0
   -9.8016   -4.5583   13.9386 H   0  0  0  0  0  0
   -8.1367   -6.3058   10.8323 H   0  0  0  0  0  0
   -6.6531   -6.0746    9.0348 H   0  0  0  0  0  0
   -6.6487   -4.3091    9.1080 H   0  0  0  0  0  0
   -8.5315   -6.0402    7.6728 H   0  0  0  0  0  0
   -8.3954   -4.2896    7.6200 H   0  0  0  0  0  0
  -10.9232   -4.5144    7.7380 H   0  0  0  0  0  0
   -3.7075   -3.9179   17.5475 H   0  0  0  0  0  0
   -8.3506   -2.6648    9.4397 H   0  0  0  0  0  0
   -8.3646   -2.4516   11.1809 H   0  0  0  0  0  0
   -9.8677   -2.3536   10.2804 H   0  0  0  0  0  0
  -11.4296   -8.3359    9.5855 H   0  0  0  0  0  0
  1  2  2  0  0  0
  1  4  1  0  0  0
  1 23  1  0  0  0
  2  3  1  0  0  0
  2 19  1  0  0  0
  3  6  2  0  0  0
  3 24  1  0  0  0
  4  5  2  0  0  0
  4 25  1  0  0  0
  5  6  1  0  0  0
  5  9  1  0  0  0
  6  7  1  0  0  0
  7  8  1  0  0  0
  7 26  1  0  0  0
  7 27  1  0  0  0
  8 10  1  0  0  0
  8 28  1  0  0  0
  8 29  1  0  0  0
  9 10  1  0  0  0
  9 12  1  0  0  0
  9 30  1  0  0  0
 10 14  1  0  0  0
 10 31  1  0  0  0
 11 12  1  0  0  0
 11 13  1  0  0  0
 11 32  1  0  0  0
 11 33  1  0  0  0
 12 34  1  0  0  0
 12 35  1  0  0  0
 13 14  1  0  0  0
 13 17  1  0  0  0
 13 20  1  0  0  0
 14 15  1  0  0  0
 14 36  1  0  0  0
 15 16  1  0  0  0
 15 37  1  0  0  0
 15 38  1  0  0  0
 16 17  1  0  0  0
 16 39  1  0  0  0
 16 40  1  0  0  0
 17 18  1  0  0  0
 17 21  1  0  0  0
 18 41  1  0  0  0
 19 42  1  0  0  0
 20 43  1  0  0  0
 20 44  1  0  0  0
 20 45  1  0  0  0
 21 22  3  0  0  0
 22 46  1  0  0  0
M  END
>  <Name>
lit-104

>  <Family>
A.1

>  <RBA>
65.000000

>  <RBA_avg>
65.000000

>  <Method>
MMEC

>  <set>
0

$$$$
lit-105
  Cerius2 12180216403D 1   1.00000                          
 Structure written by MMmdl.
 47 50  0  0  0  0  0  0  0  0999 V2000
   -6.7785   -4.3018   16.8043 C   0  0  0  0  0  0
   -5.3966   -4.2757   16.7086 C   0  0  0  0  0  0
   -4.7714   -4.4407   15.4789 C   0  0  0  0  0  0
   -7.5474   -4.4781   15.6517 C   0  0  0  0  0  0
   -6.9473   -4.6095   14.3856 C   0  0  0  0  0  0
   -5.5377   -4.6324   14.3144 C   0  0  0  0  0  0
   -4.8053   -4.8263   13.0086 C   0  0  0  0  0  0
   -5.6728   -5.4513   11.9208 C   0  0  0  0  0  0
   -7.8021   -4.8349   13.1381 C   0  0  0  0  0  0
   -6.9906   -4.6829   11.8115 C   0  0  0  0  0  0
   -9.9617   -4.3915   11.7788 C   0  0  0  0  0  0
   -9.1589   -4.0537   13.0696 C   0  0  0  0  0  0
   -9.1410   -4.3384   10.4778 C   0  0  0  0  0  0
   -7.8696   -5.1901   10.6664 C   0  0  0  0  0  0
   -7.3058   -5.2992    9.2539 C   0  0  0  0  0  0
   -8.5641   -5.4131    8.3704 C   0  0  0  0  0  0
   -9.7666   -5.1066    9.2901 C   0  0  0  0  0  0
  -10.7733   -4.3691    8.6137 O   0  0  0  0  0  0
   -4.6764   -4.0958   17.8521 O   0  0  0  0  0  0
   -8.8878   -2.8690   10.0566 C   0  0  0  0  0  0
   -9.0028   -2.5427   13.2873 C   0  0  0  0  0  0
   -7.2669   -4.1899   17.7695 H   0  0  0  0  0  0
   -3.6848   -4.4328   15.4111 H   0  0  0  0  0  0
   -8.6295   -4.5134   15.7639 H   0  0  0  0  0  0
   -3.9294   -5.4675   13.1651 H   0  0  0  0  0  0
   -4.4420   -3.8472   12.6718 H   0  0  0  0  0  0
   -5.8671   -6.5065   12.1524 H   0  0  0  0  0  0
   -5.1229   -5.4255   10.9735 H   0  0  0  0  0  0
   -8.0808   -5.8992   13.2108 H   0  0  0  0  0  0
   -6.7355   -3.6294   11.6498 H   0  0  0  0  0  0
  -10.8488   -3.7505   11.7024 H   0  0  0  0  0  0
  -10.3502   -5.4122   11.9033 H   0  0  0  0  0  0
   -9.7959   -4.4054   13.8928 H   0  0  0  0  0  0
   -8.1746   -6.2147   10.9398 H   0  0  0  0  0  0
   -6.6564   -6.1721    9.1335 H   0  0  0  0  0  0
   -6.7250   -4.4105    8.9831 H   0  0  0  0  0  0
   -8.6586   -6.4247    7.9598 H   0  0  0  0  0  0
   -8.5071   -4.7271    7.5181 H   0  0  0  0  0  0
  -10.2145   -6.0482    9.6320 H   0  0  0  0  0  0
  -11.0417   -4.9142    7.8441 H   0  0  0  0  0  0
   -3.7228   -4.1020   17.6215 H   0  0  0  0  0  0
   -8.4949   -2.7879    9.0375 H   0  0  0  0  0  0
   -8.1705   -2.3548   10.6945 H   0  0  0  0  0  0
   -9.8210   -2.2943   10.0792 H   0  0  0  0  0  0
   -9.8956   -1.9994   12.9614 H   0  0  0  0  0  0
   -8.1349   -2.1272   12.7721 H   0  0  0  0  0  0
   -8.8696   -2.3188   14.3509 H   0  0  0  0  0  0
  1  2  2  0  0  0
  1  4  1  0  0  0
  1 22  1  0  0  0
  2  3  1  0  0  0
  2 19  1  0  0  0
  3  6  2  0  0  0
  3 23  1  0  0  0
  4  5  2  0  0  0
  4 24  1  0  0  0
  5  6  1  0  0  0
  5  9  1  0  0  0
  6  7  1  0  0  0
  7  8  1  0  0  0
  7 25  1  0  0  0
  7 26  1  0  0  0
  8 10  1  0  0  0
  8 27  1  0  0  0
  8 28  1  0  0  0
  9 10  1  0  0  0
  9 12  1  0  0  0
  9 29  1  0  0  0
 10 14  1  0  0  0
 10 30  1  0  0  0
 11 12  1  0  0  0
 11 13  1  0  0  0
 11 31  1  0  0  0
 11 32  1  0  0  0
 12 21  1  0  0  0
 12 33  1  0  0  0
 13 14  1  0  0  0
 13 17  1  0  0  0
 13 20  1  0  0  0
 14 15  1  0  0  0
 14 34  1  0  0  0
 15 16  1  0  0  0
 15 35  1  0  0  0
 15 36  1  0  0  0
 16 17  1  0  0  0
 16 37  1  0  0  0
 16 38  1  0  0  0
 17 18  1  0  0  0
 17 39  1  0  0  0
 18 40  1  0  0  0
 19 41  1  0  0  0
 20 42  1  0  0  0
 20 43  1  0  0  0
 20 44  1  0  0  0
 21 45  1  0  0  0
 21 46  1  0  0  0
 21 47  1  0  0  0
M  END
>  <Name>
lit-105

>  <Family>
A.1

>  <RBA>
65.000000

>  <RBA_avg>
65.000000

>  <Method>
MMEC

>  <set>
0

$$$$
lit-106
  Cerius2 12180216403D 1   1.00000                          
 Structure written by MMmdl.
 49 52  0  0  0  0  0  0  0  0999 V2000
   -6.7901   -4.1611   16.7695 C   0  0  0  0  0  0
   -5.4097   -4.1398   16.6715 C   0  0  0  0  0  0
   -4.7951   -4.3982   15.4510 C   0  0  0  0  0  0
   -7.5560   -4.4317   15.6309 C   0  0  0  0  0  0
   -6.9566   -4.6702   14.3770 C   0  0  0  0  0  0
   -5.5461   -4.6831   14.3012 C   0  0  0  0  0  0
   -4.8027   -4.9405   13.0130 C   0  0  0  0  0  0
   -5.6506   -5.5875   11.9065 C   0  0  0  0  0  0
   -7.8109   -5.0018   13.1536 C   0  0  0  0  0  0
   -7.0020   -4.8462   11.8295 C   0  0  0  0  0  0
   -9.9824   -4.5616   11.8184 C   0  0  0  0  0  0
   -9.1534   -4.2245   13.0742 C   0  0  0  0  0  0
   -9.1643   -4.4095   10.5226 C   0  0  0  0  0  0
   -7.8897   -5.2770   10.6555 C   0  0  0  0  0  0
   -7.3014   -5.2642    9.2469 C   0  0  0  0  0  0
   -8.5255   -5.1950    8.3099 C   0  0  0  0  0  0
   -9.7729   -5.0032    9.2138 C   0  0  0  0  0  0
  -10.6939   -4.1038    8.6028 O   0  0  0  0  0  0
   -4.6787   -3.8677   17.7932 O   0  0  0  0  0  0
   -8.8730   -2.8935   10.3109 C   0  0  0  0  0  0
  -10.4691   -6.2951    9.4064 C   0  0  0  0  0  0
  -11.0361   -7.3451    9.5490 C   0  0  0  0  0  0
   -5.7576   -7.1035   12.1084 C   0  0  0  0  0  0
   -3.4543   -4.3745   15.3841 F   0  0  0  0  0  0
   -7.2802   -3.9734   17.7218 H   0  0  0  0  0  0
   -8.6376   -4.4604   15.7502 H   0  0  0  0  0  0
   -3.9205   -5.5629   13.2082 H   0  0  0  0  0  0
   -4.4357   -3.9705   12.6513 H   0  0  0  0  0  0
   -5.1117   -5.4363   10.9620 H   0  0  0  0  0  0
   -8.0804   -6.0620   13.2663 H   0  0  0  0  0  0
   -6.7508   -3.7846   11.7015 H   0  0  0  0  0  0
  -10.8761   -3.9268   11.7859 H   0  0  0  0  0  0
  -10.3402   -5.5914   11.9330 H   0  0  0  0  0  0
   -8.9636   -3.1459   13.1258 H   0  0  0  0  0  0
   -9.7813   -4.4606   13.9409 H   0  0  0  0  0  0
   -8.1972   -6.3147   10.8553 H   0  0  0  0  0  0
   -6.7027   -6.1591    9.0489 H   0  0  0  0  0  0
   -6.6549   -4.3936    9.0892 H   0  0  0  0  0  0
   -8.5915   -6.1045    7.7006 H   0  0  0  0  0  0
   -8.4070   -4.3598    7.6087 H   0  0  0  0  0  0
  -10.9395   -4.5100    7.7467 H   0  0  0  0  0  0
   -3.7308   -3.8970   17.5361 H   0  0  0  0  0  0
   -8.2996   -2.6993    9.3993 H   0  0  0  0  0  0
   -8.3136   -2.4448   11.1352 H   0  0  0  0  0  0
   -9.8103   -2.3305   10.2283 H   0  0  0  0  0  0
  -11.5400   -8.2773    9.6761 H   0  0  0  0  0  0
   -6.3320   -7.5733   11.3048 H   0  0  0  0  0  0
   -6.2235   -7.3679   13.0620 H   0  0  0  0  0  0
   -4.7601   -7.5572   12.0979 H   0  0  0  0  0  0
  1  2  2  0  0  0
  1  4  1  0  0  0
  1 25  1  0  0  0
  2  3  1  0  0  0
  2 19  1  0  0  0
  3  6  2  0  0  0
  3 24  1  0  0  0
  4  5  2  0  0  0
  4 26  1  0  0  0
  5  6  1  0  0  0
  5  9  1  0  0  0
  6  7  1  0  0  0
  7  8  1  0  0  0
  7 27  1  0  0  0
  7 28  1  0  0  0
  8 10  1  0  0  0
  8 23  1  0  0  0
  8 29  1  0  0  0
  9 10  1  0  0  0
  9 12  1  0  0  0
  9 30  1  0  0  0
 10 14  1  0  0  0
 10 31  1  0  0  0
 11 12  1  0  0  0
 11 13  1  0  0  0
 11 32  1  0  0  0
 11 33  1  0  0  0
 12 34  1  0  0  0
 12 35  1  0  0  0
 13 14  1  0  0  0
 13 17  1  0  0  0
 13 20  1  0  0  0
 14 15  1  0  0  0
 14 36  1  0  0  0
 15 16  1  0  0  0
 15 37  1  0  0  0
 15 38  1  0  0  0
 16 17  1  0  0  0
 16 39  1  0  0  0
 16 40  1  0  0  0
 17 18  1  0  0  0
 17 21  1  0  0  0
 18 41  1  0  0  0
 19 42  1  0  0  0
 20 43  1  0  0  0
 20 44  1  0  0  0
 20 45  1  0  0  0
 21 22  3  0  0  0
 22 46  1  0  0  0
 23 47  1  0  0  0
 23 48  1  0  0  0
 23 49  1  0  0  0
M  END
>  <Name>
lit-106

>  <Family>
A.1

>  <RBA>
63.000000

>  <RBA_avg>
63.000000

>  <Method>
MMEC

>  <set>
2

$$$$
lit-107
  Cerius2 12180216403D 1   1.00000                          
 Structure written by MMmdl.
 48 51  0  0  0  0  0  0  0  0999 V2000
   -6.7839   -4.1026   16.7543 C   0  0  0  0  0  0
   -5.4030   -4.1294   16.6630 C   0  0  0  0  0  0
   -4.7921   -4.4340   15.4514 C   0  0  0  0  0  0
   -7.5545   -4.3734   15.6186 C   0  0  0  0  0  0
   -6.9581   -4.6608   14.3741 C   0  0  0  0  0  0
   -5.5478   -4.7181   14.3050 C   0  0  0  0  0  0
   -4.8110   -5.0244   13.0254 C   0  0  0  0  0  0
   -5.6958   -5.6101   11.9293 C   0  0  0  0  0  0
   -7.8092   -4.9964   13.1487 C   0  0  0  0  0  0
   -6.9991   -4.8131   11.8296 C   0  0  0  0  0  0
   -9.9932   -4.5960   11.8169 C   0  0  0  0  0  0
   -9.1697   -4.2544   13.0756 C   0  0  0  0  0  0
   -9.1719   -4.4504   10.5251 C   0  0  0  0  0  0
   -7.8649   -5.2604   10.6481 C   0  0  0  0  0  0
   -7.2723   -5.1958    9.2412 C   0  0  0  0  0  0
   -8.4905   -5.1216    8.2950 C   0  0  0  0  0  0
   -9.7623   -5.0396    9.1955 C   0  0  0  0  0  0
  -10.6974   -4.1048    8.6418 O   0  0  0  0  0  0
   -4.6683   -3.8574   17.7822 O   0  0  0  0  0  0
   -8.9101   -2.9172   10.3312 C   0  0  0  0  0  0
   -3.4510   -4.4561   15.3893 F   0  0  0  0  0  0
  -10.4783   -6.3770    9.1311 C   0  0  0  0  0  0
  -11.6869   -6.7463    9.5795 C   0  0  0  0  0  0
  -12.4013   -8.6599    9.3712 I   0  0  0  0  0  0
   -7.2714   -3.8773   17.6999 H   0  0  0  0  0  0
   -8.6367   -4.3613   15.7342 H   0  0  0  0  0  0
   -3.9929   -5.7267   13.2254 H   0  0  0  0  0  0
   -4.3626   -4.0905   12.6629 H   0  0  0  0  0  0
   -5.9150   -6.6631   12.1491 H   0  0  0  0  0  0
   -5.1443   -5.5906   10.9827 H   0  0  0  0  0  0
   -8.0437   -6.0675   13.2499 H   0  0  0  0  0  0
   -6.7268   -3.7571   11.7081 H   0  0  0  0  0  0
  -10.8835   -3.9562   11.7794 H   0  0  0  0  0  0
  -10.3671   -5.6127   11.9459 H   0  0  0  0  0  0
   -9.0071   -3.1719   13.1391 H   0  0  0  0  0  0
   -9.7910   -4.5152   13.9402 H   0  0  0  0  0  0
   -8.1013   -6.3160   10.8302 H   0  0  0  0  0  0
   -6.6588   -6.0764    9.0232 H   0  0  0  0  0  0
   -6.6368   -4.3128    9.1107 H   0  0  0  0  0  0
   -8.5024   -5.9953    7.6318 H   0  0  0  0  0  0
   -8.4028   -4.2451    7.6413 H   0  0  0  0  0  0
  -10.7423   -4.2818    7.6801 H   0  0  0  0  0  0
   -3.7206   -3.9238   17.5307 H   0  0  0  0  0  0
   -8.3481   -2.6935    9.4195 H   0  0  0  0  0  0
   -8.3515   -2.4707   11.1575 H   0  0  0  0  0  0
   -9.8578   -2.3694   10.2665 H   0  0  0  0  0  0
   -9.8757   -7.1562    8.6597 H   0  0  0  0  0  0
  -12.3580   -6.0726   10.0951 H   0  0  0  0  0  0
  1  2  2  0  0  0
  1  4  1  0  0  0
  1 25  1  0  0  0
  2  3  1  0  0  0
  2 19  1  0  0  0
  3  6  2  0  0  0
  3 21  1  0  0  0
  4  5  2  0  0  0
  4 26  1  0  0  0
  5  6  1  0  0  0
  5  9  1  0  0  0
  6  7  1  0  0  0
  7  8  1  0  0  0
  7 27  1  0  0  0
  7 28  1  0  0  0
  8 10  1  0  0  0
  8 29  1  0  0  0
  8 30  1  0  0  0
  9 10  1  0  0  0
  9 12  1  0  0  0
  9 31  1  0  0  0
 10 14  1  0  0  0
 10 32  1  0  0  0
 11 12  1  0  0  0
 11 13  1  0  0  0
 11 33  1  0  0  0
 11 34  1  0  0  0
 12 35  1  0  0  0
 12 36  1  0  0  0
 13 14  1  0  0  0
 13 17  1  0  0  0
 13 20  1  0  0  0
 14 15  1  0  0  0
 14 37  1  0  0  0
 15 16  1  0  0  0
 15 38  1  0  0  0
 15 39  1  0  0  0
 16 17  1  0  0  0
 16 40  1  0  0  0
 16 41  1  0  0  0
 17 18  1  0  0  0
 17 22  1  0  0  0
 18 42  1  0  0  0
 19 43  1  0  0  0
 20 44  1  0  0  0
 20 45  1  0  0  0
 20 46  1  0  0  0
 22 23  2  0  0  0
 22 47  1  0  0  0
 23 24  1  0  0  0
 23 48  1  0  0  0
M  END
>  <Name>
lit-107

>  <Family>
A.1

>  <RBA>
56.000000

>  <RBA_avg>
56.000000

>  <Method>
MMEC

>  <set>
0

$$$$
lit-108
  Cerius2 12180216403D 1   1.00000                          
 Structure written by MMmdl.
 48 51  0  0  0  0  0  0  0  0999 V2000
   -6.7761   -4.0908   16.7368 C   0  0  0  0  0  0
   -5.3905   -4.1220   16.6592 C   0  0  0  0  0  0
   -4.7752   -4.4357   15.4533 C   0  0  0  0  0  0
   -7.5584   -4.3621   15.6169 C   0  0  0  0  0  0
   -6.9632   -4.6608   14.3783 C   0  0  0  0  0  0
   -5.5514   -4.7216   14.3123 C   0  0  0  0  0  0
   -4.8187   -5.0356   13.0274 C   0  0  0  0  0  0
   -5.7062   -5.6171   11.9312 C   0  0  0  0  0  0
   -7.8131   -5.0063   13.1560 C   0  0  0  0  0  0
   -7.0081   -4.8175   11.8357 C   0  0  0  0  0  0
   -9.9921   -4.6345   11.8194 C   0  0  0  0  0  0
   -9.1838   -4.2842   13.0844 C   0  0  0  0  0  0
   -9.1774   -4.4289   10.5273 C   0  0  0  0  0  0
   -7.8779   -5.2561   10.6539 C   0  0  0  0  0  0
   -7.2767   -5.2052    9.2503 C   0  0  0  0  0  0
   -8.4881   -5.1034    8.3036 C   0  0  0  0  0  0
   -9.7559   -5.0290    9.1933 C   0  0  0  0  0  0
  -10.6655   -4.1018    8.5827 O   0  0  0  0  0  0
   -4.6515   -3.8472   17.7751 O   0  0  0  0  0  0
   -8.9251   -2.9004   10.3552 C   0  0  0  0  0  0
  -10.5856   -6.2812    9.3926 C   0  0  0  0  0  0
  -11.7922   -6.5906    9.8906 C   0  0  0  0  0  0
  -13.2694   -5.4293   10.6491 I   0  0  0  0  0  0
   -7.3802   -3.8020   17.8994 F   0  0  0  0  0  0
   -3.6889   -4.4645   15.3828 H   0  0  0  0  0  0
   -8.6367   -4.3408   15.7426 H   0  0  0  0  0  0
   -4.0035   -5.7411   13.2288 H   0  0  0  0  0  0
   -4.3659   -4.1041   12.6640 H   0  0  0  0  0  0
   -5.9269   -6.6704   12.1483 H   0  0  0  0  0  0
   -5.1557   -5.5962   10.9842 H   0  0  0  0  0  0
   -8.0346   -6.0800   13.2595 H   0  0  0  0  0  0
   -6.7358   -3.7609   11.7178 H   0  0  0  0  0  0
  -10.9116   -4.0374   11.7928 H   0  0  0  0  0  0
  -10.3042   -5.6810   11.9182 H   0  0  0  0  0  0
   -9.0406   -3.1998   13.1561 H   0  0  0  0  0  0
   -9.8029   -4.5638   13.9449 H   0  0  0  0  0  0
   -8.1461   -6.3065   10.8417 H   0  0  0  0  0  0
   -6.6737   -6.0930    9.0360 H   0  0  0  0  0  0
   -6.6260   -4.3324    9.1242 H   0  0  0  0  0  0
   -8.5162   -5.9120    7.5716 H   0  0  0  0  0  0
   -8.3872   -4.1928    7.6978 H   0  0  0  0  0  0
  -10.8657   -4.4613    7.6937 H   0  0  0  0  0  0
   -3.7013   -3.9155   17.5422 H   0  0  0  0  0  0
   -8.3477   -2.6650    9.4562 H   0  0  0  0  0  0
   -8.3836   -2.4590   11.1954 H   0  0  0  0  0  0
   -9.8766   -2.3611   10.2794 H   0  0  0  0  0  0
  -10.0418   -7.1597    9.0279 H   0  0  0  0  0  0
  -12.0625   -7.6463    9.8743 H   0  0  0  0  0  0
  1  2  2  0  0  0
  1  4  1  0  0  0
  1 24  1  0  0  0
  2  3  1  0  0  0
  2 19  1  0  0  0
  3  6  2  0  0  0
  3 25  1  0  0  0
  4  5  2  0  0  0
  4 26  1  0  0  0
  5  6  1  0  0  0
  5  9  1  0  0  0
  6  7  1  0  0  0
  7  8  1  0  0  0
  7 27  1  0  0  0
  7 28  1  0  0  0
  8 10  1  0  0  0
  8 29  1  0  0  0
  8 30  1  0  0  0
  9 10  1  0  0  0
  9 12  1  0  0  0
  9 31  1  0  0  0
 10 14  1  0  0  0
 10 32  1  0  0  0
 11 12  1  0  0  0
 11 13  1  0  0  0
 11 33  1  0  0  0
 11 34  1  0  0  0
 12 35  1  0  0  0
 12 36  1  0  0  0
 13 14  1  0  0  0
 13 17  1  0  0  0
 13 20  1  0  0  0
 14 15  1  0  0  0
 14 37  1  0  0  0
 15 16  1  0  0  0
 15 38  1  0  0  0
 15 39  1  0  0  0
 16 17  1  0  0  0
 16 40  1  0  0  0
 16 41  1  0  0  0
 17 18  1  0  0  0
 17 21  1  0  0  0
 18 42  1  0  0  0
 19 43  1  0  0  0
 20 44  1  0  0  0
 20 45  1  0  0  0
 20 46  1  0  0  0
 21 22  2  0  0  0
 21 47  1  0  0  0
 22 23  1  0  0  0
 22 48  1  0  0  0
M  END
>  <Name>
lit-108

>  <Family>
A.1

>  <RBA>
54.000000

>  <RBA_avg>
54.000000

>  <Method>
MMEC

>  <set>
0

$$$$
lit-109
  Cerius2 12180216403D 1   1.00000                          
 Structure written by MMmdl.
 46 49  0  0  0  0  0  0  0  0999 V2000
   -6.7803   -4.0944   16.7465 C   0  0  0  0  0  0
   -5.3983   -4.1267   16.6560 C   0  0  0  0  0  0
   -4.7777   -4.4366   15.4526 C   0  0  0  0  0  0
   -7.5550   -4.3668   15.6161 C   0  0  0  0  0  0
   -6.9590   -4.6616   14.3763 C   0  0  0  0  0  0
   -5.5487   -4.7212   14.3099 C   0  0  0  0  0  0
   -4.8137   -5.0323   13.0266 C   0  0  0  0  0  0
   -5.6993   -5.6139   11.9289 C   0  0  0  0  0  0
   -7.8085   -5.0040   13.1522 C   0  0  0  0  0  0
   -7.0012   -4.8151   11.8326 C   0  0  0  0  0  0
   -9.9881   -4.6232   11.8137 C   0  0  0  0  0  0
   -9.1785   -4.2790   13.0798 C   0  0  0  0  0  0
   -9.1675   -4.4215   10.5264 C   0  0  0  0  0  0
   -7.8699   -5.2528   10.6503 C   0  0  0  0  0  0
   -7.2755   -5.1991    9.2448 C   0  0  0  0  0  0
   -8.4955   -5.1413    8.3021 C   0  0  0  0  0  0
   -9.7524   -5.0051    9.2026 C   0  0  0  0  0  0
  -10.6966   -4.1188    8.6085 O   0  0  0  0  0  0
   -4.6739   -3.8520   17.7777 O   0  0  0  0  0  0
   -8.9154   -2.8944   10.3484 C   0  0  0  0  0  0
  -10.4087   -6.3166    9.3670 C   0  0  0  0  0  0
  -10.9384   -7.3864    9.4957 C   0  0  0  0  0  0
  -11.6760   -8.8865    9.6825 Cl  0  0  0  0  0  0
   -7.2655   -3.8626   17.6921 H   0  0  0  0  0  0
   -3.6912   -4.4630   15.3868 H   0  0  0  0  0  0
   -8.6364   -4.3497   15.7324 H   0  0  0  0  0  0
   -3.9976   -5.7367   13.2281 H   0  0  0  0  0  0
   -4.3618   -4.0998   12.6646 H   0  0  0  0  0  0
   -5.9195   -6.6673   12.1453 H   0  0  0  0  0  0
   -5.1478   -5.5920   10.9824 H   0  0  0  0  0  0
   -8.0321   -6.0775   13.2540 H   0  0  0  0  0  0
   -6.7288   -3.7584   11.7157 H   0  0  0  0  0  0
  -10.9028   -4.0190   11.7858 H   0  0  0  0  0  0
  -10.3109   -5.6666   11.9090 H   0  0  0  0  0  0
   -9.0319   -3.1950   13.1525 H   0  0  0  0  0  0
   -9.7994   -4.5579   13.9393 H   0  0  0  0  0  0
   -8.1364   -6.3062   10.8327 H   0  0  0  0  0  0
   -6.6555   -6.0765    9.0337 H   0  0  0  0  0  0
   -6.6480   -4.3112    9.1074 H   0  0  0  0  0  0
   -8.5332   -6.0374    7.6709 H   0  0  0  0  0  0
   -8.3961   -4.2867    7.6218 H   0  0  0  0  0  0
  -10.8899   -4.4813    7.7199 H   0  0  0  0  0  0
   -3.7208   -3.9156   17.5542 H   0  0  0  0  0  0
   -8.3501   -2.6651    9.4397 H   0  0  0  0  0  0
   -8.3630   -2.4520   11.1810 H   0  0  0  0  0  0
   -9.8667   -2.3533   10.2815 H   0  0  0  0  0  0
  1  2  2  0  0  0
  1  4  1  0  0  0
  1 24  1  0  0  0
  2  3  1  0  0  0
  2 19  1  0  0  0
  3  6  2  0  0  0
  3 25  1  0  0  0
  4  5  2  0  0  0
  4 26  1  0  0  0
  5  6  1  0  0  0
  5  9  1  0  0  0
  6  7  1  0  0  0
  7  8  1  0  0  0
  7 27  1  0  0  0
  7 28  1  0  0  0
  8 10  1  0  0  0
  8 29  1  0  0  0
  8 30  1  0  0  0
  9 10  1  0  0  0
  9 12  1  0  0  0
  9 31  1  0  0  0
 10 14  1  0  0  0
 10 32  1  0  0  0
 11 12  1  0  0  0
 11 13  1  0  0  0
 11 33  1  0  0  0
 11 34  1  0  0  0
 12 35  1  0  0  0
 12 36  1  0  0  0
 13 14  1  0  0  0
 13 17  1  0  0  0
 13 20  1  0  0  0
 14 15  1  0  0  0
 14 37  1  0  0  0
 15 16  1  0  0  0
 15 38  1  0  0  0
 15 39  1  0  0  0
 16 17  1  0  0  0
 16 40  1  0  0  0
 16 41  1  0  0  0
 17 18  1  0  0  0
 17 21  1  0  0  0
 18 42  1  0  0  0
 19 43  1  0  0  0
 20 44  1  0  0  0
 20 45  1  0  0  0
 20 46  1  0  0  0
 21 22  3  0  0  0
 22 23  1  0  0  0
M  END
>  <Name>
lit-109

>  <Family>
A.1

>  <RBA>
54.000000

>  <RBA_avg>
54.000000

>  <Method>
MMEC

>  <set>
0

$$$$
lit-110
  Cerius2 12180216403D 1   1.00000                          
 Structure written by MMmdl.
 48 51  0  0  0  0  0  0  0  0999 V2000
   -6.7761   -4.0878   16.7461 C   0  0  0  0  0  0
   -5.3942   -4.1222   16.6537 C   0  0  0  0  0  0
   -4.7759   -4.4353   15.4499 C   0  0  0  0  0  0
   -7.5528   -4.3619   15.6175 C   0  0  0  0  0  0
   -6.9591   -4.6607   14.3777 C   0  0  0  0  0  0
   -5.5490   -4.7217   14.3092 C   0  0  0  0  0  0
   -4.8166   -5.0355   13.0249 C   0  0  0  0  0  0
   -5.7045   -5.6177   11.9292 C   0  0  0  0  0  0
   -7.8105   -5.0067   13.1561 C   0  0  0  0  0  0
   -7.0065   -4.8182   11.8347 C   0  0  0  0  0  0
   -9.9914   -4.6351   11.8199 C   0  0  0  0  0  0
   -9.1825   -4.2863   13.0852 C   0  0  0  0  0  0
   -9.1764   -4.4291   10.5283 C   0  0  0  0  0  0
   -7.8776   -5.2576   10.6541 C   0  0  0  0  0  0
   -7.2780   -5.2122    9.2491 C   0  0  0  0  0  0
   -8.4890   -5.1003    8.3026 C   0  0  0  0  0  0
   -9.7568   -5.0267    9.1945 C   0  0  0  0  0  0
  -10.6679   -4.0979    8.5884 O   0  0  0  0  0  0
   -4.6680   -3.8460   17.7737 O   0  0  0  0  0  0
   -8.9222   -2.9008   10.3573 C   0  0  0  0  0  0
  -10.5804   -6.2826    9.3922 C   0  0  0  0  0  0
  -11.7943   -6.5416    9.9059 C   0  0  0  0  0  0
  -12.5144   -8.4904    9.9597 I   0  0  0  0  0  0
  -12.9004   -5.3649   10.5127 Cl  0  0  0  0  0  0
   -7.2595   -3.8532   17.6919 H   0  0  0  0  0  0
   -3.6895   -4.4631   15.3826 H   0  0  0  0  0  0
   -8.6342   -4.3432   15.7354 H   0  0  0  0  0  0
   -4.0008   -5.7405   13.2260 H   0  0  0  0  0  0
   -4.3644   -4.1040   12.6608 H   0  0  0  0  0  0
   -5.9249   -6.6708   12.1470 H   0  0  0  0  0  0
   -5.1547   -5.5971   10.9819 H   0  0  0  0  0  0
   -8.0311   -6.0806   13.2601 H   0  0  0  0  0  0
   -6.7343   -3.7615   11.7162 H   0  0  0  0  0  0
  -10.9103   -4.0371   11.7938 H   0  0  0  0  0  0
  -10.3049   -5.6813   11.9176 H   0  0  0  0  0  0
   -9.0404   -3.2018   13.1586 H   0  0  0  0  0  0
   -9.8012   -4.5679   13.9452 H   0  0  0  0  0  0
   -8.1460   -6.3071   10.8458 H   0  0  0  0  0  0
   -6.6849   -6.1069    9.0348 H   0  0  0  0  0  0
   -6.6192   -4.3457    9.1217 H   0  0  0  0  0  0
   -8.5196   -5.9057    7.5653 H   0  0  0  0  0  0
   -8.3855   -4.1864    7.7023 H   0  0  0  0  0  0
  -10.8378   -4.4289    7.6823 H   0  0  0  0  0  0
   -3.7152   -3.9119   17.5491 H   0  0  0  0  0  0
   -8.3418   -2.6659    9.4602 H   0  0  0  0  0  0
   -8.3827   -2.4601   11.1992 H   0  0  0  0  0  0
   -9.8728   -2.3604   10.2792 H   0  0  0  0  0  0
  -10.0396   -7.1549    9.0164 H   0  0  0  0  0  0
  1  2  2  0  0  0
  1  4  1  0  0  0
  1 25  1  0  0  0
  2  3  1  0  0  0
  2 19  1  0  0  0
  3  6  2  0  0  0
  3 26  1  0  0  0
  4  5  2  0  0  0
  4 27  1  0  0  0
  5  6  1  0  0  0
  5  9  1  0  0  0
  6  7  1  0  0  0
  7  8  1  0  0  0
  7 28  1  0  0  0
  7 29  1  0  0  0
  8 10  1  0  0  0
  8 30  1  0  0  0
  8 31  1  0  0  0
  9 10  1  0  0  0
  9 12  1  0  0  0
  9 32  1  0  0  0
 10 14  1  0  0  0
 10 33  1  0  0  0
 11 12  1  0  0  0
 11 13  1  0  0  0
 11 34  1  0  0  0
 11 35  1  0  0  0
 12 36  1  0  0  0
 12 37  1  0  0  0
 13 14  1  0  0  0
 13 17  1  0  0  0
 13 20  1  0  0  0
 14 15  1  0  0  0
 14 38  1  0  0  0
 15 16  1  0  0  0
 15 39  1  0  0  0
 15 40  1  0  0  0
 16 17  1  0  0  0
 16 41  1  0  0  0
 16 42  1  0  0  0
 17 18  1  0  0  0
 17 21  1  0  0  0
 18 43  1  0  0  0
 19 44  1  0  0  0
 20 45  1  0  0  0
 20 46  1  0  0  0
 20 47  1  0  0  0
 21 22  2  0  0  0
 21 48  1  0  0  0
 22 23  1  0  0  0
 22 24  1  0  0  0
M  END
>  <Name>
lit-110

>  <Family>
A.1

>  <RBA>
49.000000

>  <RBA_avg>
49.000000

>  <Method>
MMEC

>  <set>
0

$$$$
lit-111
  Cerius2 12180216403D 1   1.00000                          
 Structure written by MMmdl.
 51 54  0  0  0  0  0  0  0  0999 V2000
   -6.7832   -4.1572   16.7650 C   0  0  0  0  0  0
   -5.4018   -4.1401   16.6656 C   0  0  0  0  0  0
   -4.7796   -4.3984   15.4510 C   0  0  0  0  0  0
   -7.5548   -4.4255   15.6319 C   0  0  0  0  0  0
   -6.9580   -4.6659   14.3801 C   0  0  0  0  0  0
   -5.5476   -4.6809   14.3053 C   0  0  0  0  0  0
   -4.8077   -4.9397   13.0118 C   0  0  0  0  0  0
   -5.6571   -5.5890   11.9083 C   0  0  0  0  0  0
   -7.8135   -5.0003   13.1585 C   0  0  0  0  0  0
   -7.0083   -4.8473   11.8322 C   0  0  0  0  0  0
   -9.9862   -4.5710   11.8250 C   0  0  0  0  0  0
   -9.1574   -4.2262   13.0789 C   0  0  0  0  0  0
   -9.1744   -4.4167   10.5238 C   0  0  0  0  0  0
   -7.8982   -5.2807   10.6602 C   0  0  0  0  0  0
   -7.3043   -5.2740    9.2530 C   0  0  0  0  0  0
   -8.5185   -5.1595    8.3111 C   0  0  0  0  0  0
   -9.7784   -5.0286    9.2056 C   0  0  0  0  0  0
  -10.6640   -4.0889    8.5791 O   0  0  0  0  0  0
   -4.6796   -3.8702   17.7899 O   0  0  0  0  0  0
   -8.8824   -2.8998   10.3158 C   0  0  0  0  0  0
  -10.6434   -6.2512    9.4362 C   0  0  0  0  0  0
  -11.8558   -6.5141    9.9469 C   0  0  0  0  0  0
  -13.2941   -5.2937   10.6872 I   0  0  0  0  0  0
   -5.7634   -7.1048   12.1120 C   0  0  0  0  0  0
   -7.2698   -3.9679   17.7192 H   0  0  0  0  0  0
   -3.6932   -4.3876   15.3794 H   0  0  0  0  0  0
   -8.6357   -4.4513   15.7543 H   0  0  0  0  0  0
   -3.9234   -5.5594   13.2067 H   0  0  0  0  0  0
   -4.4436   -3.9692   12.6485 H   0  0  0  0  0  0
   -5.1194   -5.4393   10.9628 H   0  0  0  0  0  0
   -8.0813   -6.0607   13.2739 H   0  0  0  0  0  0
   -6.7575   -3.7860   11.7015 H   0  0  0  0  0  0
  -10.8849   -3.9435   11.7934 H   0  0  0  0  0  0
  -10.3333   -5.6042   11.9450 H   0  0  0  0  0  0
   -8.9712   -3.1471   13.1282 H   0  0  0  0  0  0
   -9.7837   -4.4623   13.9468 H   0  0  0  0  0  0
   -8.2076   -6.3148   10.8675 H   0  0  0  0  0  0
   -6.7249   -6.1804    9.0529 H   0  0  0  0  0  0
   -6.6330   -4.4204    9.1054 H   0  0  0  0  0  0
   -8.5739   -5.9837    7.5983 H   0  0  0  0  0  0
   -8.3955   -4.2662    7.6839 H   0  0  0  0  0  0
  -10.8795   -4.4618    7.6994 H   0  0  0  0  0  0
   -3.7263   -3.8958   17.5591 H   0  0  0  0  0  0
   -8.2967   -2.7011    9.4135 H   0  0  0  0  0  0
   -8.3335   -2.4508   11.1470 H   0  0  0  0  0  0
   -9.8196   -2.3384   10.2240 H   0  0  0  0  0  0
  -10.1277   -7.1531    9.0880 H   0  0  0  0  0  0
  -12.1569   -7.5617    9.9550 H   0  0  0  0  0  0
   -6.3384   -7.5757   11.3097 H   0  0  0  0  0  0
   -6.2286   -7.3682   13.0663 H   0  0  0  0  0  0
   -4.7659   -7.5583   12.1011 H   0  0  0  0  0  0
  1  2  2  0  0  0
  1  4  1  0  0  0
  1 25  1  0  0  0
  2  3  1  0  0  0
  2 19  1  0  0  0
  3  6  2  0  0  0
  3 26  1  0  0  0
  4  5  2  0  0  0
  4 27  1  0  0  0
  5  6  1  0  0  0
  5  9  1  0  0  0
  6  7  1  0  0  0
  7  8  1  0  0  0
  7 28  1  0  0  0
  7 29  1  0  0  0
  8 10  1  0  0  0
  8 24  1  0  0  0
  8 30  1  0  0  0
  9 10  1  0  0  0
  9 12  1  0  0  0
  9 31  1  0  0  0
 10 14  1  0  0  0
 10 32  1  0  0  0
 11 12  1  0  0  0
 11 13  1  0  0  0
 11 33  1  0  0  0
 11 34  1  0  0  0
 12 35  1  0  0  0
 12 36  1  0  0  0
 13 14  1  0  0  0
 13 17  1  0  0  0
 13 20  1  0  0  0
 14 15  1  0  0  0
 14 37  1  0  0  0
 15 16  1  0  0  0
 15 38  1  0  0  0
 15 39  1  0  0  0
 16 17  1  0  0  0
 16 40  1  0  0  0
 16 41  1  0  0  0
 17 18  1  0  0  0
 17 21  1  0  0  0
 18 42  1  0  0  0
 19 43  1  0  0  0
 20 44  1  0  0  0
 20 45  1  0  0  0
 20 46  1  0  0  0
 21 22  2  0  0  0
 21 47  1  0  0  0
 22 23  1  0  0  0
 22 48  1  0  0  0
 24 49  1  0  0  0
 24 50  1  0  0  0
 24 51  1  0  0  0
M  END
>  <Name>
lit-111

>  <Family>
A.1

>  <RBA>
45.000000

>  <RBA_avg>
45.000000

>  <Method>
MMEC

>  <set>
0

$$$$
lit-112
  Cerius2 12180216403D 1   1.00000                          
 Structure written by MMmdl.
 51 54  0  0  0  0  0  0  0  0999 V2000
   -6.7901   -4.1743   16.7671 C   0  0  0  0  0  0
   -5.4087   -4.1513   16.6710 C   0  0  0  0  0  0
   -4.7829   -4.3978   15.4558 C   0  0  0  0  0  0
   -7.5582   -4.4357   15.6298 C   0  0  0  0  0  0
   -6.9579   -4.6627   14.3770 C   0  0  0  0  0  0
   -5.5473   -4.6737   14.3060 C   0  0  0  0  0  0
   -4.8037   -4.9232   13.0131 C   0  0  0  0  0  0
   -5.6478   -5.5797   11.9101 C   0  0  0  0  0  0
   -7.8115   -4.9868   13.1508 C   0  0  0  0  0  0
   -7.0001   -4.8404   11.8269 C   0  0  0  0  0  0
   -9.9871   -4.5298   11.8205 C   0  0  0  0  0  0
   -9.1439   -4.1925   13.0678 C   0  0  0  0  0  0
   -9.1701   -4.4381   10.5208 C   0  0  0  0  0  0
   -7.8851   -5.2834   10.6550 C   0  0  0  0  0  0
   -7.2986   -5.2647    9.2446 C   0  0  0  0  0  0
   -8.5201   -5.1805    8.3034 C   0  0  0  0  0  0
   -9.7844   -5.0428    9.2084 C   0  0  0  0  0  0
  -10.6976   -4.0971    8.6370 O   0  0  0  0  0  0
   -4.6899   -3.8881   17.7990 O   0  0  0  0  0  0
   -8.8698   -2.9175   10.2877 C   0  0  0  0  0  0
  -10.5360   -6.3621    9.1791 C   0  0  0  0  0  0
  -11.7510   -6.6897    9.6423 C   0  0  0  0  0  0
   -5.7516   -7.0948   12.1209 C   0  0  0  0  0  0
  -12.5154   -8.5886    9.4824 I   0  0  0  0  0  0
   -7.2796   -3.9951   17.7216 H   0  0  0  0  0  0
   -3.6963   -4.3835   15.3869 H   0  0  0  0  0  0
   -8.6391   -4.4671   15.7498 H   0  0  0  0  0  0
   -3.9142   -5.5356   13.2074 H   0  0  0  0  0  0
   -4.4480   -3.9492   12.6511 H   0  0  0  0  0  0
   -5.1080   -5.4329   10.9652 H   0  0  0  0  0  0
   -8.0927   -6.0439   13.2635 H   0  0  0  0  0  0
   -6.7493   -3.7799   11.6916 H   0  0  0  0  0  0
  -10.8548   -3.8602   11.7756 H   0  0  0  0  0  0
  -10.3957   -5.5299   11.9717 H   0  0  0  0  0  0
   -8.9378   -3.1162   13.1068 H   0  0  0  0  0  0
   -9.7716   -4.4072   13.9403 H   0  0  0  0  0  0
   -8.1632   -6.3237   10.8573 H   0  0  0  0  0  0
   -6.7076   -6.1642    9.0428 H   0  0  0  0  0  0
   -6.6430   -4.4004    9.0913 H   0  0  0  0  0  0
   -8.5594   -6.0693    7.6616 H   0  0  0  0  0  0
   -8.4129   -4.3226    7.6283 H   0  0  0  0  0  0
  -10.7528   -4.2958    7.6801 H   0  0  0  0  0  0
   -3.7361   -3.9081   17.5701 H   0  0  0  0  0  0
   -8.3000   -2.7315    9.3724 H   0  0  0  0  0  0
   -8.3040   -2.4620   11.1039 H   0  0  0  0  0  0
   -9.8035   -2.3483   10.2055 H   0  0  0  0  0  0
   -9.9567   -7.1673    8.7225 H   0  0  0  0  0  0
  -12.4020   -5.9877   10.1455 H   0  0  0  0  0  0
   -6.3150   -7.5721   11.3141 H   0  0  0  0  0  0
   -6.2278   -7.3545   13.0707 H   0  0  0  0  0  0
   -4.7526   -7.5451   12.1245 H   0  0  0  0  0  0
  1  2  2  0  0  0
  1  4  1  0  0  0
  1 25  1  0  0  0
  2  3  1  0  0  0
  2 19  1  0  0  0
  3  6  2  0  0  0
  3 26  1  0  0  0
  4  5  2  0  0  0
  4 27  1  0  0  0
  5  6  1  0  0  0
  5  9  1  0  0  0
  6  7  1  0  0  0
  7  8  1  0  0  0
  7 28  1  0  0  0
  7 29  1  0  0  0
  8 10  1  0  0  0
  8 23  1  0  0  0
  8 30  1  0  0  0
  9 10  1  0  0  0
  9 12  1  0  0  0
  9 31  1  0  0  0
 10 14  1  0  0  0
 10 32  1  0  0  0
 11 12  1  0  0  0
 11 13  1  0  0  0
 11 33  1  0  0  0
 11 34  1  0  0  0
 12 35  1  0  0  0
 12 36  1  0  0  0
 13 14  1  0  0  0
 13 17  1  0  0  0
 13 20  1  0  0  0
 14 15  1  0  0  0
 14 37  1  0  0  0
 15 16  1  0  0  0
 15 38  1  0  0  0
 15 39  1  0  0  0
 16 17  1  0  0  0
 16 40  1  0  0  0
 16 41  1  0  0  0
 17 18  1  0  0  0
 17 21  1  0  0  0
 18 42  1  0  0  0
 19 43  1  0  0  0
 20 44  1  0  0  0
 20 45  1  0  0  0
 20 46  1  0  0  0
 21 22  2  0  0  0
 21 47  1  0  0  0
 22 24  1  0  0  0
 22 48  1  0  0  0
 23 49  1  0  0  0
 23 50  1  0  0  0
 23 51  1  0  0  0
M  END
>  <Name>
lit-112

>  <Family>
A.1

>  <RBA>
44.000000

>  <RBA_avg>
44.000000

>  <Method>
MMEC

>  <set>
0

$$$$
lit-113
  Cerius2 12180216403D 1   1.00000                          
 Structure written by MMmdl.
 54 57  0  0  0  0  0  0  0  0999 V2000
   -6.7747   -4.3540   16.8151 C   0  0  0  0  0  0
   -5.3932   -4.3123   16.7186 C   0  0  0  0  0  0
   -4.7680   -4.4363   15.4841 C   0  0  0  0  0  0
   -7.5431   -4.5028   15.6586 C   0  0  0  0  0  0
   -6.9430   -4.5910   14.3881 C   0  0  0  0  0  0
   -5.5342   -4.6020   14.3156 C   0  0  0  0  0  0
   -4.8050   -4.7609   13.0042 C   0  0  0  0  0  0
   -5.6661   -5.4078   11.9250 C   0  0  0  0  0  0
   -7.8022   -4.7816   13.1374 C   0  0  0  0  0  0
   -6.9932   -4.6555   11.8075 C   0  0  0  0  0  0
   -9.9671   -4.3307   11.8011 C   0  0  0  0  0  0
   -9.1351   -3.9513   13.0684 C   0  0  0  0  0  0
   -9.1700   -4.4007   10.4794 C   0  0  0  0  0  0
   -7.8703   -5.2057   10.6781 C   0  0  0  0  0  0
   -7.3075   -5.3199    9.2645 C   0  0  0  0  0  0
   -8.5567   -5.4338    8.3599 C   0  0  0  0  0  0
   -9.8057   -5.1869    9.2710 C   0  0  0  0  0  0
  -10.7452   -4.3347    8.6020 O   0  0  0  0  0  0
   -4.6732   -4.1593   17.8662 O   0  0  0  0  0  0
   -8.9015   -2.9328   10.0072 C   0  0  0  0  0  0
  -10.5412   -6.5060    9.4334 C   0  0  0  0  0  0
  -11.7431   -6.7797    9.9619 C   0  0  0  0  0  0
  -12.4883   -8.6895   10.0736 I   0  0  0  0  0  0
   -8.9105   -2.4362   13.2953 C   0  0  0  0  0  0
  -10.1772   -1.5943   13.2252 C   0  0  0  0  0  0
   -7.2629   -4.2746   17.7837 H   0  0  0  0  0  0
   -3.6815   -4.4182   15.4158 H   0  0  0  0  0  0
   -8.6250   -4.5494   15.7692 H   0  0  0  0  0  0
   -3.9090   -5.3767   13.1481 H   0  0  0  0  0  0
   -4.4748   -3.7691   12.6712 H   0  0  0  0  0  0
   -5.8479   -6.4628   12.1678 H   0  0  0  0  0  0
   -5.1181   -5.3850   10.9764 H   0  0  0  0  0  0
   -8.1158   -5.8360   13.2107 H   0  0  0  0  0  0
   -6.7473   -3.6046   11.6201 H   0  0  0  0  0  0
  -10.8371   -3.6752   11.6872 H   0  0  0  0  0  0
  -10.4021   -5.3074   12.0224 H   0  0  0  0  0  0
   -9.7637   -4.2730   13.9112 H   0  0  0  0  0  0
   -8.1167   -6.2333   10.9736 H   0  0  0  0  0  0
   -6.6608   -6.1965    9.1533 H   0  0  0  0  0  0
   -6.7170   -4.4379    8.9924 H   0  0  0  0  0  0
   -8.5789   -6.4229    7.8857 H   0  0  0  0  0  0
   -8.4970   -4.7044    7.5433 H   0  0  0  0  0  0
  -10.8180   -4.6578    7.6809 H   0  0  0  0  0  0
   -3.7199   -4.1501   17.6346 H   0  0  0  0  0  0
   -8.5117   -2.8771    8.9857 H   0  0  0  0  0  0
   -8.1755   -2.4062   10.6229 H   0  0  0  0  0  0
   -9.8278   -2.3471   10.0153 H   0  0  0  0  0  0
   -9.9607   -7.3598    9.0779 H   0  0  0  0  0  0
  -12.3922   -6.0212   10.3789 H   0  0  0  0  0  0
   -8.1629   -2.0270   12.6138 H   0  0  0  0  0  0
   -8.4920   -2.2860   14.2971 H   0  0  0  0  0  0
   -9.9655   -0.5736   13.5609 H   0  0  0  0  0  0
  -10.9597   -2.0053   13.8709 H   0  0  0  0  0  0
  -10.5641   -1.5258   12.2055 H   0  0  0  0  0  0
  1  2  2  0  0  0
  1  4  1  0  0  0
  1 26  1  0  0  0
  2  3  1  0  0  0
  2 19  1  0  0  0
  3  6  2  0  0  0
  3 27  1  0  0  0
  4  5  2  0  0  0
  4 28  1  0  0  0
  5  6  1  0  0  0
  5  9  1  0  0  0
  6  7  1  0  0  0
  7  8  1  0  0  0
  7 29  1  0  0  0
  7 30  1  0  0  0
  8 10  1  0  0  0
  8 31  1  0  0  0
  8 32  1  0  0  0
  9 10  1  0  0  0
  9 12  1  0  0  0
  9 33  1  0  0  0
 10 14  1  0  0  0
 10 34  1  0  0  0
 11 12  1  0  0  0
 11 13  1  0  0  0
 11 35  1  0  0  0
 11 36  1  0  0  0
 12 24  1  0  0  0
 12 37  1  0  0  0
 13 14  1  0  0  0
 13 17  1  0  0  0
 13 20  1  0  0  0
 14 15  1  0  0  0
 14 38  1  0  0  0
 15 16  1  0  0  0
 15 39  1  0  0  0
 15 40  1  0  0  0
 16 17  1  0  0  0
 16 41  1  0  0  0
 16 42  1  0  0  0
 17 18  1  0  0  0
 17 21  1  0  0  0
 18 43  1  0  0  0
 19 44  1  0  0  0
 20 45  1  0  0  0
 20 46  1  0  0  0
 20 47  1  0  0  0
 21 22  2  0  0  0
 21 48  1  0  0  0
 22 23  1  0  0  0
 22 49  1  0  0  0
 24 25  1  0  0  0
 24 50  1  0  0  0
 24 51  1  0  0  0
 25 52  1  0  0  0
 25 53  1  0  0  0
 25 54  1  0  0  0
M  END
>  <Name>
lit-113

>  <Family>
A.1

>  <RBA>
43.000000

>  <RBA_avg>
43.000000

>  <Method>
MMEC

>  <set>
1

$$$$
lit-114
  Cerius2 12180216403D 1   1.00000                          
 Structure written by MMmdl.
 52 55  0  0  0  0  0  0  0  0999 V2000
   -6.7672   -4.2045   16.7954 C   0  0  0  0  0  0
   -5.3866   -4.2092   16.6944 C   0  0  0  0  0  0
   -4.7802   -4.4420   15.4647 C   0  0  0  0  0  0
   -7.5416   -4.4217   15.6510 C   0  0  0  0  0  0
   -6.9497   -4.6312   14.3883 C   0  0  0  0  0  0
   -5.5400   -4.6742   14.3095 C   0  0  0  0  0  0
   -4.8108   -4.9163   13.0131 C   0  0  0  0  0  0
   -5.6928   -5.5180   11.9246 C   0  0  0  0  0  0
   -7.8115   -4.9041   13.1510 C   0  0  0  0  0  0
   -7.0048   -4.7352   11.8253 C   0  0  0  0  0  0
   -9.9848   -4.5125   11.8173 C   0  0  0  0  0  0
   -9.1745   -4.1365   13.0885 C   0  0  0  0  0  0
   -9.1777   -4.4023   10.5005 C   0  0  0  0  0  0
   -7.8804   -5.2240   10.6660 C   0  0  0  0  0  0
   -7.2937   -5.2620    9.2569 C   0  0  0  0  0  0
   -8.5202   -5.2550    8.3224 C   0  0  0  0  0  0
   -9.7765   -5.1041    9.2222 C   0  0  0  0  0  0
  -10.6907   -4.2205    8.5552 O   0  0  0  0  0  0
   -4.6478   -3.9893   17.8224 O   0  0  0  0  0  0
   -8.9235   -2.8973   10.1835 C   0  0  0  0  0  0
  -10.6098   -6.3337    9.5231 C   0  0  0  0  0  0
   -8.9253   -2.7237   13.1622 O   0  0  0  0  0  0
  -10.1118   -1.9377   13.0835 C   0  0  0  0  0  0
  -11.8128   -6.5986   10.0548 C   0  0  0  0  0  0
  -13.2793   -5.3764   10.7354 I   0  0  0  0  0  0
   -3.4393   -4.4476   15.3946 F   0  0  0  0  0  0
   -7.2509   -4.0368   17.7547 H   0  0  0  0  0  0
   -8.6230   -4.4274   15.7727 H   0  0  0  0  0  0
   -3.9615   -5.5893   13.1824 H   0  0  0  0  0  0
   -4.4077   -3.9570   12.6650 H   0  0  0  0  0  0
   -5.8991   -6.5726   12.1487 H   0  0  0  0  0  0
   -5.1453   -5.4939   10.9758 H   0  0  0  0  0  0
   -8.0704   -5.9718   13.2347 H   0  0  0  0  0  0
   -6.7450   -3.6797   11.6813 H   0  0  0  0  0  0
  -10.8920   -3.9038   11.7386 H   0  0  0  0  0  0
  -10.3179   -5.5469   11.9641 H   0  0  0  0  0  0
   -9.7816   -4.4295   13.9540 H   0  0  0  0  0  0
   -8.1531   -6.2611   10.9117 H   0  0  0  0  0  0
   -6.6749   -6.1505    9.0976 H   0  0  0  0  0  0
   -6.6646   -4.3861    9.0617 H   0  0  0  0  0  0
   -8.5536   -6.1311    7.6732 H   0  0  0  0  0  0
   -8.4330   -4.4076    7.6292 H   0  0  0  0  0  0
  -10.9018   -4.6430    7.6971 H   0  0  0  0  0  0
   -3.7012   -4.0306   17.5621 H   0  0  0  0  0  0
   -8.4601   -2.7414    9.2046 H   0  0  0  0  0  0
   -8.2664   -2.4080   10.9035 H   0  0  0  0  0  0
   -9.8688   -2.3420   10.1800 H   0  0  0  0  0  0
  -10.0736   -7.2403    9.2215 H   0  0  0  0  0  0
   -9.8279   -0.8864   13.1820 H   0  0  0  0  0  0
  -10.7934   -2.1898   13.9013 H   0  0  0  0  0  0
  -10.6094   -2.0699   12.1199 H   0  0  0  0  0  0
  -12.0873   -7.6514   10.1216 H   0  0  0  0  0  0
  1  2  2  0  0  0
  1  4  1  0  0  0
  1 27  1  0  0  0
  2  3  1  0  0  0
  2 19  1  0  0  0
  3  6  2  0  0  0
  3 26  1  0  0  0
  4  5  2  0  0  0
  4 28  1  0  0  0
  5  6  1  0  0  0
  5  9  1  0  0  0
  6  7  1  0  0  0
  7  8  1  0  0  0
  7 29  1  0  0  0
  7 30  1  0  0  0
  8 10  1  0  0  0
  8 31  1  0  0  0
  8 32  1  0  0  0
  9 10  1  0  0  0
  9 12  1  0  0  0
  9 33  1  0  0  0
 10 14  1  0  0  0
 10 34  1  0  0  0
 11 12  1  0  0  0
 11 13  1  0  0  0
 11 35  1  0  0  0
 11 36  1  0  0  0
 12 22  1  0  0  0
 12 37  1  0  0  0
 13 14  1  0  0  0
 13 17  1  0  0  0
 13 20  1  0  0  0
 14 15  1  0  0  0
 14 38  1  0  0  0
 15 16  1  0  0  0
 15 39  1  0  0  0
 15 40  1  0  0  0
 16 17  1  0  0  0
 16 41  1  0  0  0
 16 42  1  0  0  0
 17 18  1  0  0  0
 17 21  1  0  0  0
 18 43  1  0  0  0
 19 44  1  0  0  0
 20 45  1  0  0  0
 20 46  1  0  0  0
 20 47  1  0  0  0
 21 24  2  0  0  0
 21 48  1  0  0  0
 22 23  1  0  0  0
 23 49  1  0  0  0
 23 50  1  0  0  0
 23 51  1  0  0  0
 24 25  1  0  0  0
 24 52  1  0  0  0
M  END
>  <Name>
lit-114

>  <Family>
A.1

>  <RBA>
38.000000

>  <RBA_avg>
38.000000

>  <Method>
MMEC

>  <set>
0

$$$$
lit-115
  Cerius2 12180216403D 1   1.00000                          
 Structure written by MMmdl.
 49 52  0  0  0  0  0  0  0  0999 V2000
   -6.7882   -4.1629   16.7646 C   0  0  0  0  0  0
   -5.4066   -4.1444   16.6680 C   0  0  0  0  0  0
   -4.7819   -4.3998   15.4541 C   0  0  0  0  0  0
   -7.5574   -4.4293   15.6293 C   0  0  0  0  0  0
   -6.9579   -4.6665   14.3781 C   0  0  0  0  0  0
   -5.5472   -4.6805   14.3062 C   0  0  0  0  0  0
   -4.8043   -4.9368   13.0139 C   0  0  0  0  0  0
   -5.6511   -5.5852   11.9080 C   0  0  0  0  0  0
   -7.8111   -4.9976   13.1540 C   0  0  0  0  0  0
   -7.0020   -4.8436   11.8298 C   0  0  0  0  0  0
   -9.9826   -4.5594   11.8177 C   0  0  0  0  0  0
   -9.1536   -4.2201   13.0730 C   0  0  0  0  0  0
   -9.1644   -4.4095   10.5216 C   0  0  0  0  0  0
   -7.8894   -5.2762   10.6561 C   0  0  0  0  0  0
   -7.3013   -5.2655    9.2474 C   0  0  0  0  0  0
   -8.5250   -5.1962    8.3100 C   0  0  0  0  0  0
   -9.7729   -5.0065    9.2139 C   0  0  0  0  0  0
  -10.6972   -4.1097    8.6050 O   0  0  0  0  0  0
   -4.6869   -3.8763   17.7942 O   0  0  0  0  0  0
   -8.8740   -2.8939   10.3070 C   0  0  0  0  0  0
  -10.4616   -6.2967    9.4114 C   0  0  0  0  0  0
  -11.0145   -7.3507    9.5697 C   0  0  0  0  0  0
  -11.7822   -8.8293    9.8002 Cl  0  0  0  0  0  0
   -5.7580   -7.1012   12.1105 C   0  0  0  0  0  0
   -7.2770   -3.9761   17.7181 H   0  0  0  0  0  0
   -3.6953   -4.3880   15.3847 H   0  0  0  0  0  0
   -8.6384   -4.4561   15.7496 H   0  0  0  0  0  0
   -3.9201   -5.5562   13.2098 H   0  0  0  0  0  0
   -4.4403   -3.9655   12.6528 H   0  0  0  0  0  0
   -5.1118   -5.4347   10.9634 H   0  0  0  0  0  0
   -8.0812   -6.0576   13.2671 H   0  0  0  0  0  0
   -6.7509   -3.7823   11.7005 H   0  0  0  0  0  0
  -10.8762   -3.9247   11.7840 H   0  0  0  0  0  0
  -10.3405   -5.5890   11.9345 H   0  0  0  0  0  0
   -8.9636   -3.1415   13.1227 H   0  0  0  0  0  0
   -9.7818   -4.4546   13.9400 H   0  0  0  0  0  0
   -8.1963   -6.3138   10.8577 H   0  0  0  0  0  0
   -6.7034   -6.1614    9.0505 H   0  0  0  0  0  0
   -6.6538   -4.3958    9.0887 H   0  0  0  0  0  0
   -8.5902   -6.1049    7.6994 H   0  0  0  0  0  0
   -8.4070   -4.3601    7.6100 H   0  0  0  0  0  0
  -10.9058   -4.4872    7.7261 H   0  0  0  0  0  0
   -3.7332   -3.9001   17.5653 H   0  0  0  0  0  0
   -8.3008   -2.7010    9.3949 H   0  0  0  0  0  0
   -8.3145   -2.4436   11.1303 H   0  0  0  0  0  0
   -9.8115   -2.3315   10.2236 H   0  0  0  0  0  0
   -6.3316   -7.5717   11.3067 H   0  0  0  0  0  0
   -6.2248   -7.3651   13.0637 H   0  0  0  0  0  0
   -4.7604   -7.5547   12.1012 H   0  0  0  0  0  0
  1  2  2  0  0  0
  1  4  1  0  0  0
  1 25  1  0  0  0
  2  3  1  0  0  0
  2 19  1  0  0  0
  3  6  2  0  0  0
  3 26  1  0  0  0
  4  5  2  0  0  0
  4 27  1  0  0  0
  5  6  1  0  0  0
  5  9  1  0  0  0
  6  7  1  0  0  0
  7  8  1  0  0  0
  7 28  1  0  0  0
  7 29  1  0  0  0
  8 10  1  0  0  0
  8 24  1  0  0  0
  8 30  1  0  0  0
  9 10  1  0  0  0
  9 12  1  0  0  0
  9 31  1  0  0  0
 10 14  1  0  0  0
 10 32  1  0  0  0
 11 12  1  0  0  0
 11 13  1  0  0  0
 11 33  1  0  0  0
 11 34  1  0  0  0
 12 35  1  0  0  0
 12 36  1  0  0  0
 13 14  1  0  0  0
 13 17  1  0  0  0
 13 20  1  0  0  0
 14 15  1  0  0  0
 14 37  1  0  0  0
 15 16  1  0  0  0
 15 38  1  0  0  0
 15 39  1  0  0  0
 16 17  1  0  0  0
 16 40  1  0  0  0
 16 41  1  0  0  0
 17 18  1  0  0  0
 17 21  1  0  0  0
 18 42  1  0  0  0
 19 43  1  0  0  0
 20 44  1  0  0  0
 20 45  1  0  0  0
 20 46  1  0  0  0
 21 22  3  0  0  0
 22 23  1  0  0  0
 24 47  1  0  0  0
 24 48  1  0  0  0
 24 49  1  0  0  0
M  END
>  <Name>
lit-115

>  <Family>
A.1

>  <RBA>
38.000000

>  <RBA_avg>
38.000000

>  <Method>
MMEC

>  <set>
0

$$$$
lit-116
  Cerius2 12180216403D 1   1.00000                          
 Structure written by MMmdl.
 51 54  0  0  0  0  0  0  0  0999 V2000
   -6.7853   -4.1549   16.7698 C   0  0  0  0  0  0
   -5.4051   -4.1360   16.6694 C   0  0  0  0  0  0
   -4.7931   -4.3978   15.4483 C   0  0  0  0  0  0
   -7.5537   -4.4268   15.6332 C   0  0  0  0  0  0
   -6.9568   -4.6693   14.3788 C   0  0  0  0  0  0
   -5.5464   -4.6840   14.3006 C   0  0  0  0  0  0
   -4.8058   -4.9445   13.0113 C   0  0  0  0  0  0
   -5.6565   -5.5914   11.9070 C   0  0  0  0  0  0
   -7.8131   -5.0035   13.1579 C   0  0  0  0  0  0
   -7.0076   -4.8490   11.8318 C   0  0  0  0  0  0
   -9.9855   -4.5725   11.8253 C   0  0  0  0  0  0
   -9.1568   -4.2290   13.0794 C   0  0  0  0  0  0
   -9.1737   -4.4166   10.5241 C   0  0  0  0  0  0
   -7.8977   -5.2807   10.6593 C   0  0  0  0  0  0
   -7.3040   -5.2723    9.2519 C   0  0  0  0  0  0
   -8.5183   -5.1560    8.3104 C   0  0  0  0  0  0
   -9.7780   -5.0269    9.2054 C   0  0  0  0  0  0
  -10.6642   -4.0865    8.5805 O   0  0  0  0  0  0
   -4.6718   -3.8628   17.7894 O   0  0  0  0  0  0
   -8.8816   -2.8994   10.3181 C   0  0  0  0  0  0
  -10.6424   -6.2502    9.4347 C   0  0  0  0  0  0
  -11.8544   -6.5142    9.9455 C   0  0  0  0  0  0
  -13.2928   -5.2956   10.6887 I   0  0  0  0  0  0
   -3.4523   -4.3761   15.3790 F   0  0  0  0  0  0
   -5.7639   -7.1073   12.1098 C   0  0  0  0  0  0
   -7.2735   -3.9647   17.7226 H   0  0  0  0  0  0
   -8.6351   -4.4536   15.7544 H   0  0  0  0  0  0
   -3.9243   -5.5682   13.2060 H   0  0  0  0  0  0
   -4.4377   -3.9756   12.6478 H   0  0  0  0  0  0
   -5.1189   -5.4413   10.9615 H   0  0  0  0  0  0
   -8.0809   -6.0639   13.2729 H   0  0  0  0  0  0
   -6.7565   -3.7878   11.7023 H   0  0  0  0  0  0
  -10.8843   -3.9449   11.7945 H   0  0  0  0  0  0
  -10.3326   -5.6057   11.9441 H   0  0  0  0  0  0
   -8.9703   -3.1500   13.1299 H   0  0  0  0  0  0
   -9.7829   -4.4660   13.9472 H   0  0  0  0  0  0
   -8.2072   -6.3151   10.8652 H   0  0  0  0  0  0
   -6.7250   -6.1786    9.0507 H   0  0  0  0  0  0
   -6.6324   -4.4186    9.1054 H   0  0  0  0  0  0
   -8.5739   -5.9788    7.5961 H   0  0  0  0  0  0
   -8.3954   -4.2616    7.6847 H   0  0  0  0  0  0
  -10.8812   -4.4591    7.7009 H   0  0  0  0  0  0
   -3.7243   -3.8943   17.5307 H   0  0  0  0  0  0
   -8.2963   -2.6996    9.4158 H   0  0  0  0  0  0
   -8.3323   -2.4516   11.1497 H   0  0  0  0  0  0
   -9.8188   -2.3377   10.2275 H   0  0  0  0  0  0
  -10.1266   -7.1512    9.0847 H   0  0  0  0  0  0
  -12.1551   -7.5618    9.9522 H   0  0  0  0  0  0
   -6.3400   -7.5772   11.3075 H   0  0  0  0  0  0
   -6.2284   -7.3711   13.0643 H   0  0  0  0  0  0
   -4.7668   -7.5616   12.0976 H   0  0  0  0  0  0
  1  2  2  0  0  0
  1  4  1  0  0  0
  1 26  1  0  0  0
  2  3  1  0  0  0
  2 19  1  0  0  0
  3  6  2  0  0  0
  3 24  1  0  0  0
  4  5  2  0  0  0
  4 27  1  0  0  0
  5  6  1  0  0  0
  5  9  1  0  0  0
  6  7  1  0  0  0
  7  8  1  0  0  0
  7 28  1  0  0  0
  7 29  1  0  0  0
  8 10  1  0  0  0
  8 25  1  0  0  0
  8 30  1  0  0  0
  9 10  1  0  0  0
  9 12  1  0  0  0
  9 31  1  0  0  0
 10 14  1  0  0  0
 10 32  1  0  0  0
 11 12  1  0  0  0
 11 13  1  0  0  0
 11 33  1  0  0  0
 11 34  1  0  0  0
 12 35  1  0  0  0
 12 36  1  0  0  0
 13 14  1  0  0  0
 13 17  1  0  0  0
 13 20  1  0  0  0
 14 15  1  0  0  0
 14 37  1  0  0  0
 15 16  1  0  0  0
 15 38  1  0  0  0
 15 39  1  0  0  0
 16 17  1  0  0  0
 16 40  1  0  0  0
 16 41  1  0  0  0
 17 18  1  0  0  0
 17 21  1  0  0  0
 18 42  1  0  0  0
 19 43  1  0  0  0
 20 44  1  0  0  0
 20 45  1  0  0  0
 20 46  1  0  0  0
 21 22  2  0  0  0
 21 47  1  0  0  0
 22 23  1  0  0  0
 22 48  1  0  0  0
 25 49  1  0  0  0
 25 50  1  0  0  0
 25 51  1  0  0  0
M  END
>  <Name>
lit-116

>  <Family>
A.1

>  <RBA>
37.000000

>  <RBA_avg>
37.000000

>  <Method>
MMEC

>  <set>
1

$$$$
lit-117
  Cerius2 12180216403D 1   1.00000                          
 Structure written by MMmdl.
 51 54  0  0  0  0  0  0  0  0999 V2000
   -6.7837   -4.1551   16.7643 C   0  0  0  0  0  0
   -5.4023   -4.1392   16.6654 C   0  0  0  0  0  0
   -4.7798   -4.3992   15.4513 C   0  0  0  0  0  0
   -7.5552   -4.4239   15.6311 C   0  0  0  0  0  0
   -6.9581   -4.6660   14.3798 C   0  0  0  0  0  0
   -5.5476   -4.6820   14.3054 C   0  0  0  0  0  0
   -4.8073   -4.9420   13.0124 C   0  0  0  0  0  0
   -5.6568   -5.5895   11.9080 C   0  0  0  0  0  0
   -7.8132   -5.0008   13.1581 C   0  0  0  0  0  0
   -7.0074   -4.8467   11.8321 C   0  0  0  0  0  0
   -9.9866   -4.5727   11.8240 C   0  0  0  0  0  0
   -9.1585   -4.2287   13.0787 C   0  0  0  0  0  0
   -9.1737   -4.4169   10.5238 C   0  0  0  0  0  0
   -7.8972   -5.2801   10.6601 C   0  0  0  0  0  0
   -7.3040   -5.2770    9.2519 C   0  0  0  0  0  0
   -8.5172   -5.1552    8.3093 C   0  0  0  0  0  0
   -9.7777   -5.0277    9.2058 C   0  0  0  0  0  0
  -10.6669   -4.0886    8.5836 O   0  0  0  0  0  0
   -4.6802   -3.8689   17.7896 O   0  0  0  0  0  0
   -8.8817   -2.9000   10.3171 C   0  0  0  0  0  0
  -10.6332   -6.2570    9.4345 C   0  0  0  0  0  0
  -11.8506   -6.4725    9.9598 C   0  0  0  0  0  0
  -12.6223   -8.3997   10.0577 I   0  0  0  0  0  0
  -12.9219   -5.2542   10.5469 Cl  0  0  0  0  0  0
   -5.7644   -7.1056   12.1098 C   0  0  0  0  0  0
   -7.2706   -3.9644   17.7180 H   0  0  0  0  0  0
   -3.6934   -4.3893   15.3799 H   0  0  0  0  0  0
   -8.6360   -4.4484   15.7533 H   0  0  0  0  0  0
   -3.9242   -5.5633   13.2080 H   0  0  0  0  0  0
   -4.4412   -3.9721   12.6496 H   0  0  0  0  0  0
   -5.1187   -5.4392   10.9627 H   0  0  0  0  0  0
   -8.0798   -6.0614   13.2734 H   0  0  0  0  0  0
   -6.7565   -3.7855   11.7018 H   0  0  0  0  0  0
  -10.8854   -3.9452   11.7924 H   0  0  0  0  0  0
  -10.3342   -5.6058   11.9427 H   0  0  0  0  0  0
   -8.9738   -3.1493   13.1296 H   0  0  0  0  0  0
   -9.7846   -4.4669   13.9462 H   0  0  0  0  0  0
   -8.2057   -6.3136   10.8703 H   0  0  0  0  0  0
   -6.7322   -6.1885    9.0520 H   0  0  0  0  0  0
   -6.6267   -4.4282    9.1038 H   0  0  0  0  0  0
   -8.5732   -5.9767    7.5915 H   0  0  0  0  0  0
   -8.3931   -4.2585    7.6872 H   0  0  0  0  0  0
  -10.8504   -4.4346    7.6858 H   0  0  0  0  0  0
   -3.7270   -3.8955   17.5593 H   0  0  0  0  0  0
   -8.2935   -2.7009    9.4165 H   0  0  0  0  0  0
   -8.3350   -2.4512   11.1500 H   0  0  0  0  0  0
   -9.8187   -2.3385   10.2233 H   0  0  0  0  0  0
  -10.1181   -7.1509    9.0741 H   0  0  0  0  0  0
   -6.3408   -7.5752   11.3076 H   0  0  0  0  0  0
   -6.2284   -7.3695   13.0644 H   0  0  0  0  0  0
   -4.7673   -7.5598   12.0972 H   0  0  0  0  0  0
  1  2  2  0  0  0
  1  4  1  0  0  0
  1 26  1  0  0  0
  2  3  1  0  0  0
  2 19  1  0  0  0
  3  6  2  0  0  0
  3 27  1  0  0  0
  4  5  2  0  0  0
  4 28  1  0  0  0
  5  6  1  0  0  0
  5  9  1  0  0  0
  6  7  1  0  0  0
  7  8  1  0  0  0
  7 29  1  0  0  0
  7 30  1  0  0  0
  8 10  1  0  0  0
  8 25  1  0  0  0
  8 31  1  0  0  0
  9 10  1  0  0  0
  9 12  1  0  0  0
  9 32  1  0  0  0
 10 14  1  0  0  0
 10 33  1  0  0  0
 11 12  1  0  0  0
 11 13  1  0  0  0
 11 34  1  0  0  0
 11 35  1  0  0  0
 12 36  1  0  0  0
 12 37  1  0  0  0
 13 14  1  0  0  0
 13 17  1  0  0  0
 13 20  1  0  0  0
 14 15  1  0  0  0
 14 38  1  0  0  0
 15 16  1  0  0  0
 15 39  1  0  0  0
 15 40  1  0  0  0
 16 17  1  0  0  0
 16 41  1  0  0  0
 16 42  1  0  0  0
 17 18  1  0  0  0
 17 21  1  0  0  0
 18 43  1  0  0  0
 19 44  1  0  0  0
 20 45  1  0  0  0
 20 46  1  0  0  0
 20 47  1  0  0  0
 21 22  2  0  0  0
 21 48  1  0  0  0
 22 23  1  0  0  0
 22 24  1  0  0  0
 25 49  1  0  0  0
 25 50  1  0  0  0
 25 51  1  0  0  0
M  END
>  <Name>
lit-117

>  <Family>
A.1

>  <RBA>
37.000000

>  <RBA_avg>
37.000000

>  <Method>
MMEC

>  <set>
2

$$$$
lit-118
  Cerius2 12180216403D 1   1.00000                          
 Structure written by MMmdl.
 51 54  0  0  0  0  0  0  0  0999 V2000
   -6.7922   -4.1722   16.7719 C   0  0  0  0  0  0
   -5.4119   -4.1469   16.6747 C   0  0  0  0  0  0
   -4.7964   -4.3967   15.4529 C   0  0  0  0  0  0
   -7.5569   -4.4373   15.6312 C   0  0  0  0  0  0
   -6.9566   -4.6661   14.3758 C   0  0  0  0  0  0
   -5.5462   -4.6766   14.3012 C   0  0  0  0  0  0
   -4.8019   -4.9280   13.0126 C   0  0  0  0  0  0
   -5.6474   -5.5823   11.9089 C   0  0  0  0  0  0
   -7.8112   -4.9903   13.1503 C   0  0  0  0  0  0
   -6.9995   -4.8425   11.8265 C   0  0  0  0  0  0
   -9.9867   -4.5315   11.8207 C   0  0  0  0  0  0
   -9.1435   -4.1960   13.0686 C   0  0  0  0  0  0
   -9.1696   -4.4380   10.5212 C   0  0  0  0  0  0
   -7.8848   -5.2838   10.6541 C   0  0  0  0  0  0
   -7.2984   -5.2632    9.2439 C   0  0  0  0  0  0
   -8.5198   -5.1771    8.3028 C   0  0  0  0  0  0
   -9.7840   -5.0406    9.2079 C   0  0  0  0  0  0
  -10.6971   -4.0938    8.6379 O   0  0  0  0  0  0
   -4.6820   -3.8803   17.7984 O   0  0  0  0  0  0
   -8.8689   -2.9170   10.2903 C   0  0  0  0  0  0
  -10.5358   -6.3597    9.1765 C   0  0  0  0  0  0
  -11.7508   -6.6879    9.6392 C   0  0  0  0  0  0
   -3.4555   -4.3704   15.3870 F   0  0  0  0  0  0
   -5.7524   -7.0974   12.1190 C   0  0  0  0  0  0
  -12.5151   -8.5867    9.4766 I   0  0  0  0  0  0
   -7.2832   -3.9920   17.7252 H   0  0  0  0  0  0
   -8.6385   -4.4702   15.7501 H   0  0  0  0  0  0
   -3.9151   -5.5443   13.2066 H   0  0  0  0  0  0
   -4.4423   -3.9555   12.6502 H   0  0  0  0  0  0
   -5.1077   -5.4354   10.9639 H   0  0  0  0  0  0
   -8.0921   -6.0476   13.2625 H   0  0  0  0  0  0
   -6.7484   -3.7819   11.6925 H   0  0  0  0  0  0
  -10.8544   -3.8618   11.7768 H   0  0  0  0  0  0
  -10.3952   -5.5318   11.9706 H   0  0  0  0  0  0
   -8.9375   -3.1198   13.1092 H   0  0  0  0  0  0
   -9.7711   -4.4122   13.9407 H   0  0  0  0  0  0
   -8.1632   -6.3242   10.8550 H   0  0  0  0  0  0
   -6.7077   -6.1626    9.0407 H   0  0  0  0  0  0
   -6.6423   -4.3989    9.0918 H   0  0  0  0  0  0
   -8.5593   -6.0646    7.6595 H   0  0  0  0  0  0
   -8.4124   -4.3181    7.6291 H   0  0  0  0  0  0
  -10.7526   -4.2911    7.6808 H   0  0  0  0  0  0
   -3.7338   -3.9063   17.5416 H   0  0  0  0  0  0
   -8.2991   -2.7298    9.3755 H   0  0  0  0  0  0
   -8.3031   -2.4629   11.1074 H   0  0  0  0  0  0
   -9.8026   -2.3476   10.2091 H   0  0  0  0  0  0
   -9.9565   -7.1643    8.7188 H   0  0  0  0  0  0
  -12.4019   -5.9866   10.1433 H   0  0  0  0  0  0
   -6.3172   -7.5739   11.3126 H   0  0  0  0  0  0
   -6.2277   -7.3574   13.0692 H   0  0  0  0  0  0
   -4.7538   -7.5488   12.1213 H   0  0  0  0  0  0
  1  2  2  0  0  0
  1  4  1  0  0  0
  1 26  1  0  0  0
  2  3  1  0  0  0
  2 19  1  0  0  0
  3  6  2  0  0  0
  3 23  1  0  0  0
  4  5  2  0  0  0
  4 27  1  0  0  0
  5  6  1  0  0  0
  5  9  1  0  0  0
  6  7  1  0  0  0
  7  8  1  0  0  0
  7 28  1  0  0  0
  7 29  1  0  0  0
  8 10  1  0  0  0
  8 24  1  0  0  0
  8 30  1  0  0  0
  9 10  1  0  0  0
  9 12  1  0  0  0
  9 31  1  0  0  0
 10 14  1  0  0  0
 10 32  1  0  0  0
 11 12  1  0  0  0
 11 13  1  0  0  0
 11 33  1  0  0  0
 11 34  1  0  0  0
 12 35  1  0  0  0
 12 36  1  0  0  0
 13 14  1  0  0  0
 13 17  1  0  0  0
 13 20  1  0  0  0
 14 15  1  0  0  0
 14 37  1  0  0  0
 15 16  1  0  0  0
 15 38  1  0  0  0
 15 39  1  0  0  0
 16 17  1  0  0  0
 16 40  1  0  0  0
 16 41  1  0  0  0
 17 18  1  0  0  0
 17 21  1  0  0  0
 18 42  1  0  0  0
 19 43  1  0  0  0
 20 44  1  0  0  0
 20 45  1  0  0  0
 20 46  1  0  0  0
 21 22  2  0  0  0
 21 47  1  0  0  0
 22 25  1  0  0  0
 22 48  1  0  0  0
 24 49  1  0  0  0
 24 50  1  0  0  0
 24 51  1  0  0  0
M  END
>  <Name>
lit-118

>  <Family>
A.1

>  <RBA>
36.000000

>  <RBA_avg>
36.000000

>  <Method>
MMEC

>  <set>
0

$$$$
lit-119
  Cerius2 12180216403D 1   1.00000                          
 Structure written by MMmdl.
 52 55  0  0  0  0  0  0  0  0999 V2000
   -6.7656   -4.2056   16.7902 C   0  0  0  0  0  0
   -5.3839   -4.2138   16.6906 C   0  0  0  0  0  0
   -4.7668   -4.4440   15.4678 C   0  0  0  0  0  0
   -7.5428   -4.4182   15.6489 C   0  0  0  0  0  0
   -6.9506   -4.6264   14.3891 C   0  0  0  0  0  0
   -5.5408   -4.6708   14.3143 C   0  0  0  0  0  0
   -4.8122   -4.9106   13.0138 C   0  0  0  0  0  0
   -5.6928   -5.5153   11.9262 C   0  0  0  0  0  0
   -7.8113   -4.8995   13.1510 C   0  0  0  0  0  0
   -7.0047   -4.7328   11.8252 C   0  0  0  0  0  0
   -9.9857   -4.5133   11.8160 C   0  0  0  0  0  0
   -9.1762   -4.1346   13.0875 C   0  0  0  0  0  0
   -9.1776   -4.4034   10.5000 C   0  0  0  0  0  0
   -7.8803   -5.2245   10.6669 C   0  0  0  0  0  0
   -7.2941   -5.2695    9.2572 C   0  0  0  0  0  0
   -8.5196   -5.2541    8.3210 C   0  0  0  0  0  0
   -9.7768   -5.1051    9.2221 C   0  0  0  0  0  0
  -10.6935   -4.2219    8.5587 O   0  0  0  0  0  0
   -4.6565   -3.9977   17.8232 O   0  0  0  0  0  0
   -8.9231   -2.8987   10.1823 C   0  0  0  0  0  0
  -10.6020   -6.3400    9.5221 C   0  0  0  0  0  0
  -11.8116   -6.5559   10.0652 C   0  0  0  0  0  0
  -12.5345   -8.4934   10.2747 I   0  0  0  0  0  0
  -12.9114   -5.3337   10.5882 Cl  0  0  0  0  0  0
   -8.9322   -2.7209   13.1597 O   0  0  0  0  0  0
  -10.1210   -1.9391   13.0760 C   0  0  0  0  0  0
   -7.2481   -4.0383   17.7504 H   0  0  0  0  0  0
   -3.6804   -4.4556   15.3959 H   0  0  0  0  0  0
   -8.6238   -4.4216   15.7713 H   0  0  0  0  0  0
   -3.9595   -5.5793   13.1833 H   0  0  0  0  0  0
   -4.4135   -3.9491   12.6661 H   0  0  0  0  0  0
   -5.8987   -6.5695   12.1524 H   0  0  0  0  0  0
   -5.1450   -5.4925   10.9776 H   0  0  0  0  0  0
   -8.0694   -5.9674   13.2358 H   0  0  0  0  0  0
   -6.7451   -3.6775   11.6792 H   0  0  0  0  0  0
  -10.8934   -3.9055   11.7360 H   0  0  0  0  0  0
  -10.3183   -5.5478   11.9635 H   0  0  0  0  0  0
   -9.7830   -4.4287   13.9529 H   0  0  0  0  0  0
   -8.1521   -6.2606   10.9175 H   0  0  0  0  0  0
   -6.6844   -6.1649    9.1001 H   0  0  0  0  0  0
   -6.6570   -4.3998    9.0604 H   0  0  0  0  0  0
   -8.5540   -6.1272    7.6656 H   0  0  0  0  0  0
   -8.4303   -4.4027    7.6331 H   0  0  0  0  0  0
  -10.8733   -4.6179    7.6810 H   0  0  0  0  0  0
   -3.7040   -4.0339   17.5911 H   0  0  0  0  0  0
   -8.4567   -2.7435    9.2047 H   0  0  0  0  0  0
   -8.2680   -2.4085   10.9035 H   0  0  0  0  0  0
   -9.8684   -2.3436   10.1759 H   0  0  0  0  0  0
  -10.0663   -7.2404    9.2106 H   0  0  0  0  0  0
   -9.8410   -0.8867   13.1736 H   0  0  0  0  0  0
  -10.8044   -2.1922   13.8920 H   0  0  0  0  0  0
  -10.6152   -2.0748   12.1110 H   0  0  0  0  0  0
  1  2  2  0  0  0
  1  4  1  0  0  0
  1 27  1  0  0  0
  2  3  1  0  0  0
  2 19  1  0  0  0
  3  6  2  0  0  0
  3 28  1  0  0  0
  4  5  2  0  0  0
  4 29  1  0  0  0
  5  6  1  0  0  0
  5  9  1  0  0  0
  6  7  1  0  0  0
  7  8  1  0  0  0
  7 30  1  0  0  0
  7 31  1  0  0  0
  8 10  1  0  0  0
  8 32  1  0  0  0
  8 33  1  0  0  0
  9 10  1  0  0  0
  9 12  1  0  0  0
  9 34  1  0  0  0
 10 14  1  0  0  0
 10 35  1  0  0  0
 11 12  1  0  0  0
 11 13  1  0  0  0
 11 36  1  0  0  0
 11 37  1  0  0  0
 12 25  1  0  0  0
 12 38  1  0  0  0
 13 14  1  0  0  0
 13 17  1  0  0  0
 13 20  1  0  0  0
 14 15  1  0  0  0
 14 39  1  0  0  0
 15 16  1  0  0  0
 15 40  1  0  0  0
 15 41  1  0  0  0
 16 17  1  0  0  0
 16 42  1  0  0  0
 16 43  1  0  0  0
 17 18  1  0  0  0
 17 21  1  0  0  0
 18 44  1  0  0  0
 19 45  1  0  0  0
 20 46  1  0  0  0
 20 47  1  0  0  0
 20 48  1  0  0  0
 21 22  2  0  0  0
 21 49  1  0  0  0
 22 23  1  0  0  0
 22 24  1  0  0  0
 25 26  1  0  0  0
 26 50  1  0  0  0
 26 51  1  0  0  0
 26 52  1  0  0  0
M  END
>  <Name>
lit-119

>  <Family>
A.1

>  <RBA>
35.000000

>  <RBA_avg>
35.000000

>  <Method>
MMEC

>  <set>
0

$$$$
lit-120
  Cerius2 12180216403D 1   1.00000                          
 Structure written by MMmdl.
 49 52  0  0  0  0  0  0  0  0999 V2000
   -6.7882   -4.1666   16.7552 C   0  0  0  0  0  0
   -5.4031   -4.1439   16.6734 C   0  0  0  0  0  0
   -4.7811   -4.3986   15.4571 C   0  0  0  0  0  0
   -7.5631   -4.4307   15.6285 C   0  0  0  0  0  0
   -6.9621   -4.6666   14.3786 C   0  0  0  0  0  0
   -5.5497   -4.6789   14.3089 C   0  0  0  0  0  0
   -4.8064   -4.9336   13.0156 C   0  0  0  0  0  0
   -5.6523   -5.5839   11.9100 C   0  0  0  0  0  0
   -7.8136   -4.9980   13.1538 C   0  0  0  0  0  0
   -7.0036   -4.8434   11.8306 C   0  0  0  0  0  0
   -9.9842   -4.5599   11.8166 C   0  0  0  0  0  0
   -9.1562   -4.2206   13.0725 C   0  0  0  0  0  0
   -9.1651   -4.4098   10.5211 C   0  0  0  0  0  0
   -7.8902   -5.2764   10.6565 C   0  0  0  0  0  0
   -7.3008   -5.2656    9.2484 C   0  0  0  0  0  0
   -8.5241   -5.1988    8.3103 C   0  0  0  0  0  0
   -9.7725   -5.0060    9.2129 C   0  0  0  0  0  0
  -10.6934   -4.1083    8.5997 O   0  0  0  0  0  0
   -4.6707   -3.8766   17.7955 O   0  0  0  0  0  0
   -8.8745   -2.8940   10.3070 C   0  0  0  0  0  0
  -10.4681   -6.2980    9.4073 C   0  0  0  0  0  0
  -11.0345   -7.3482    9.5515 C   0  0  0  0  0  0
   -5.7579   -7.0995   12.1146 C   0  0  0  0  0  0
   -7.3989   -3.9380   17.9277 F   0  0  0  0  0  0
   -3.6947   -4.3867   15.3845 H   0  0  0  0  0  0
   -8.6411   -4.4560   15.7567 H   0  0  0  0  0  0
   -3.9208   -5.5513   13.2112 H   0  0  0  0  0  0
   -4.4445   -3.9615   12.6546 H   0  0  0  0  0  0
   -5.1127   -5.4338   10.9656 H   0  0  0  0  0  0
   -8.0835   -6.0580   13.2664 H   0  0  0  0  0  0
   -6.7532   -3.7819   11.7015 H   0  0  0  0  0  0
  -10.8780   -3.9254   11.7825 H   0  0  0  0  0  0
  -10.3418   -5.5896   11.9326 H   0  0  0  0  0  0
   -8.9662   -3.1419   13.1224 H   0  0  0  0  0  0
   -9.7844   -4.4553   13.9394 H   0  0  0  0  0  0
   -8.1974   -6.3140   10.8575 H   0  0  0  0  0  0
   -6.7014   -6.1605    9.0523 H   0  0  0  0  0  0
   -6.6547   -4.3948    9.0897 H   0  0  0  0  0  0
   -8.5892   -6.1095    7.7026 H   0  0  0  0  0  0
   -8.4057   -4.3649    7.6077 H   0  0  0  0  0  0
  -10.9383   -4.5162    7.7442 H   0  0  0  0  0  0
   -3.7195   -3.9013   17.5581 H   0  0  0  0  0  0
   -8.3007   -2.7010    9.3952 H   0  0  0  0  0  0
   -8.3156   -2.4436   11.1307 H   0  0  0  0  0  0
   -9.8119   -2.3315   10.2230 H   0  0  0  0  0  0
  -11.5378   -8.2804    9.6801 H   0  0  0  0  0  0
   -6.3317   -7.5712   11.3116 H   0  0  0  0  0  0
   -6.2241   -7.3626   13.0684 H   0  0  0  0  0  0
   -4.7600   -7.5523   12.1053 H   0  0  0  0  0  0
  1  2  2  0  0  0
  1  4  1  0  0  0
  1 24  1  0  0  0
  2  3  1  0  0  0
  2 19  1  0  0  0
  3  6  2  0  0  0
  3 25  1  0  0  0
  4  5  2  0  0  0
  4 26  1  0  0  0
  5  6  1  0  0  0
  5  9  1  0  0  0
  6  7  1  0  0  0
  7  8  1  0  0  0
  7 27  1  0  0  0
  7 28  1  0  0  0
  8 10  1  0  0  0
  8 23  1  0  0  0
  8 29  1  0  0  0
  9 10  1  0  0  0
  9 12  1  0  0  0
  9 30  1  0  0  0
 10 14  1  0  0  0
 10 31  1  0  0  0
 11 12  1  0  0  0
 11 13  1  0  0  0
 11 32  1  0  0  0
 11 33  1  0  0  0
 12 34  1  0  0  0
 12 35  1  0  0  0
 13 14  1  0  0  0
 13 17  1  0  0  0
 13 20  1  0  0  0
 14 15  1  0  0  0
 14 36  1  0  0  0
 15 16  1  0  0  0
 15 37  1  0  0  0
 15 38  1  0  0  0
 16 17  1  0  0  0
 16 39  1  0  0  0
 16 40  1  0  0  0
 17 18  1  0  0  0
 17 21  1  0  0  0
 18 41  1  0  0  0
 19 42  1  0  0  0
 20 43  1  0  0  0
 20 44  1  0  0  0
 20 45  1  0  0  0
 21 22  3  0  0  0
 22 46  1  0  0  0
 23 47  1  0  0  0
 23 48  1  0  0  0
 23 49  1  0  0  0
M  END
>  <Name>
lit-120

>  <Family>
A.1

>  <RBA>
33.000000

>  <RBA_avg>
33.000000

>  <Method>
MMEC

>  <set>
0

$$$$
lit-121
  Cerius2 12180216403D 1   1.00000                          
 Structure written by MMmdl.
 53 56  0  0  0  0  0  0  0  0999 V2000
   -6.7710   -4.2065   16.7882 C   0  0  0  0  0  0
   -5.3891   -4.2160   16.6919 C   0  0  0  0  0  0
   -4.7693   -4.4470   15.4706 C   0  0  0  0  0  0
   -7.5456   -4.4195   15.6453 C   0  0  0  0  0  0
   -6.9507   -4.6288   14.3869 C   0  0  0  0  0  0
   -5.5407   -4.6735   14.3153 C   0  0  0  0  0  0
   -4.8089   -4.9123   13.0163 C   0  0  0  0  0  0
   -5.6872   -5.5145   11.9255 C   0  0  0  0  0  0
   -7.8090   -4.9007   13.1467 C   0  0  0  0  0  0
   -6.9986   -4.7320   11.8231 C   0  0  0  0  0  0
   -9.9818   -4.5041   11.8102 C   0  0  0  0  0  0
   -9.1710   -4.1310   13.0817 C   0  0  0  0  0  0
   -9.1685   -4.3965   10.4988 C   0  0  0  0  0  0
   -7.8712   -5.2200   10.6618 C   0  0  0  0  0  0
   -7.2903   -5.2493    9.2509 C   0  0  0  0  0  0
   -8.5251   -5.2920    8.3248 C   0  0  0  0  0  0
   -9.7719   -5.0820    9.2295 C   0  0  0  0  0  0
  -10.7232   -4.2412    8.5832 O   0  0  0  0  0  0
   -4.6640   -4.0004   17.8260 O   0  0  0  0  0  0
   -8.9177   -2.8927   10.1751 C   0  0  0  0  0  0
  -10.4284   -6.3758    9.5007 C   0  0  0  0  0  0
  -10.9576   -7.4318    9.7153 C   0  0  0  0  0  0
  -11.6941   -8.9123   10.0237 Cl  0  0  0  0  0  0
   -8.9173   -2.7192   13.1454 O   0  0  0  0  0  0
  -10.1064   -1.9321   13.2339 C   0  0  0  0  0  0
   -9.6992   -0.4738   13.3049 C   0  0  0  0  0  0
   -7.2556   -4.0383   17.7472 H   0  0  0  0  0  0
   -3.6828   -4.4591   15.4011 H   0  0  0  0  0  0
   -8.6267   -4.4224   15.7655 H   0  0  0  0  0  0
   -3.9572   -5.5819   13.1872 H   0  0  0  0  0  0
   -4.4086   -3.9506   12.6709 H   0  0  0  0  0  0
   -5.8935   -6.5693   12.1494 H   0  0  0  0  0  0
   -5.1375   -5.4898   10.9781 H   0  0  0  0  0  0
   -8.0695   -5.9680   13.2293 H   0  0  0  0  0  0
   -6.7384   -3.6763   11.6803 H   0  0  0  0  0  0
  -10.8840   -3.8883   11.7292 H   0  0  0  0  0  0
  -10.3250   -5.5354   11.9542 H   0  0  0  0  0  0
   -9.7802   -4.4190   13.9473 H   0  0  0  0  0  0
   -8.1394   -6.2621   10.8993 H   0  0  0  0  0  0
   -6.6486   -6.1221    9.0921 H   0  0  0  0  0  0
   -6.6907   -4.3555    9.0451 H   0  0  0  0  0  0
   -8.5626   -6.2468    7.7863 H   0  0  0  0  0  0
   -8.4438   -4.5082    7.5621 H   0  0  0  0  0  0
  -10.9290   -4.6687    7.7268 H   0  0  0  0  0  0
   -3.7111   -4.0391   17.5964 H   0  0  0  0  0  0
   -8.4730   -2.7433    9.1860 H   0  0  0  0  0  0
   -8.2464   -2.4032   10.8820 H   0  0  0  0  0  0
   -9.8615   -2.3349   10.1857 H   0  0  0  0  0  0
  -10.6632   -2.2048   14.1368 H   0  0  0  0  0  0
  -10.7389   -2.0950   12.3566 H   0  0  0  0  0  0
  -10.5771    0.1736   13.3791 H   0  0  0  0  0  0
   -9.1249   -0.1908   12.4163 H   0  0  0  0  0  0
   -9.0537   -0.2955   14.1713 H   0  0  0  0  0  0
  1  2  2  0  0  0
  1  4  1  0  0  0
  1 27  1  0  0  0
  2  3  1  0  0  0
  2 19  1  0  0  0
  3  6  2  0  0  0
  3 28  1  0  0  0
  4  5  2  0  0  0
  4 29  1  0  0  0
  5  6  1  0  0  0
  5  9  1  0  0  0
  6  7  1  0  0  0
  7  8  1  0  0  0
  7 30  1  0  0  0
  7 31  1  0  0  0
  8 10  1  0  0  0
  8 32  1  0  0  0
  8 33  1  0  0  0
  9 10  1  0  0  0
  9 12  1  0  0  0
  9 34  1  0  0  0
 10 14  1  0  0  0
 10 35  1  0  0  0
 11 12  1  0  0  0
 11 13  1  0  0  0
 11 36  1  0  0  0
 11 37  1  0  0  0
 12 24  1  0  0  0
 12 38  1  0  0  0
 13 14  1  0  0  0
 13 17  1  0  0  0
 13 20  1  0  0  0
 14 15  1  0  0  0
 14 39  1  0  0  0
 15 16  1  0  0  0
 15 40  1  0  0  0
 15 41  1  0  0  0
 16 17  1  0  0  0
 16 42  1  0  0  0
 16 43  1  0  0  0
 17 18  1  0  0  0
 17 21  1  0  0  0
 18 44  1  0  0  0
 19 45  1  0  0  0
 20 46  1  0  0  0
 20 47  1  0  0  0
 20 48  1  0  0  0
 21 22  3  0  0  0
 22 23  1  0  0  0
 24 25  1  0  0  0
 25 26  1  0  0  0
 25 49  1  0  0  0
 25 50  1  0  0  0
 26 51  1  0  0  0
 26 52  1  0  0  0
 26 53  1  0  0  0
M  END
>  <Name>
lit-121

>  <Family>
A.1

>  <RBA>
33.000000

>  <RBA_avg>
33.000000

>  <Method>
MMEC

>  <set>
1

$$$$
lit-122
  Cerius2 12180216403D 1   1.00000                          
 Structure written by MMmdl.
 52 55  0  0  0  0  0  0  0  0999 V2000
   -6.7652   -4.2076   16.7907 C   0  0  0  0  0  0
   -5.3837   -4.2157   16.6911 C   0  0  0  0  0  0
   -4.7667   -4.4446   15.4680 C   0  0  0  0  0  0
   -7.5426   -4.4190   15.6493 C   0  0  0  0  0  0
   -6.9505   -4.6260   14.3892 C   0  0  0  0  0  0
   -5.5407   -4.6703   14.3143 C   0  0  0  0  0  0
   -4.8124   -4.9094   13.0135 C   0  0  0  0  0  0
   -5.6931   -5.5143   11.9262 C   0  0  0  0  0  0
   -7.8113   -4.8979   13.1511 C   0  0  0  0  0  0
   -7.0051   -4.7317   11.8252 C   0  0  0  0  0  0
   -9.9851   -4.5102   11.8171 C   0  0  0  0  0  0
   -9.1747   -4.1307   13.0872 C   0  0  0  0  0  0
   -9.1783   -4.4026   10.4999 C   0  0  0  0  0  0
   -7.8806   -5.2232   10.6670 C   0  0  0  0  0  0
   -7.2941   -5.2643    9.2579 C   0  0  0  0  0  0
   -8.5208   -5.2599    8.3236 C   0  0  0  0  0  0
   -9.7770   -5.1076    9.2232 C   0  0  0  0  0  0
  -10.6918   -4.2260    8.5545 O   0  0  0  0  0  0
   -4.6561   -4.0008   17.8238 O   0  0  0  0  0  0
   -8.9249   -2.8983   10.1793 C   0  0  0  0  0  0
  -10.6095   -6.3371    9.5270 C   0  0  0  0  0  0
  -11.8122   -6.6016   10.0594 C   0  0  0  0  0  0
  -13.2793   -5.3789   10.7379 I   0  0  0  0  0  0
   -8.9280   -2.7172   13.1570 O   0  0  0  0  0  0
  -10.1181   -1.9345   13.1055 C   0  0  0  0  0  0
   -7.2477   -4.0414   17.7513 H   0  0  0  0  0  0
   -3.6803   -4.4562   15.3959 H   0  0  0  0  0  0
   -8.6236   -4.4227   15.7720 H   0  0  0  0  0  0
   -3.9593   -5.5776   13.1826 H   0  0  0  0  0  0
   -4.4143   -3.9476   12.6658 H   0  0  0  0  0  0
   -5.8991   -6.5685   12.1526 H   0  0  0  0  0  0
   -5.1455   -5.4916   10.9776 H   0  0  0  0  0  0
   -8.0710   -5.9654   13.2357 H   0  0  0  0  0  0
   -6.7455   -3.6764   11.6790 H   0  0  0  0  0  0
  -10.8926   -3.9021   11.7371 H   0  0  0  0  0  0
  -10.3177   -5.5445   11.9665 H   0  0  0  0  0  0
   -9.7816   -4.4222   13.9534 H   0  0  0  0  0  0
   -8.1528   -6.2600   10.9148 H   0  0  0  0  0  0
   -6.6749   -6.1527    9.1004 H   0  0  0  0  0  0
   -6.6654   -4.3884    9.0606 H   0  0  0  0  0  0
   -8.5538   -6.1374    7.6762 H   0  0  0  0  0  0
   -8.4341   -4.4140    7.6286 H   0  0  0  0  0  0
  -10.9027   -4.6506    7.6972 H   0  0  0  0  0  0
   -3.7036   -4.0375   17.5916 H   0  0  0  0  0  0
   -8.4620   -2.7443    9.1997 H   0  0  0  0  0  0
   -8.2677   -2.4072   10.8979 H   0  0  0  0  0  0
   -9.8704   -2.3434   10.1749 H   0  0  0  0  0  0
  -10.0728   -7.2441    9.2271 H   0  0  0  0  0  0
  -12.0862   -7.6545   10.1285 H   0  0  0  0  0  0
   -9.8349   -0.8824   13.1972 H   0  0  0  0  0  0
  -10.7799   -2.1884   13.9389 H   0  0  0  0  0  0
  -10.6375   -2.0685   12.1537 H   0  0  0  0  0  0
  1  2  2  0  0  0
  1  4  1  0  0  0
  1 26  1  0  0  0
  2  3  1  0  0  0
  2 19  1  0  0  0
  3  6  2  0  0  0
  3 27  1  0  0  0
  4  5  2  0  0  0
  4 28  1  0  0  0
  5  6  1  0  0  0
  5  9  1  0  0  0
  6  7  1  0  0  0
  7  8  1  0  0  0
  7 29  1  0  0  0
  7 30  1  0  0  0
  8 10  1  0  0  0
  8 31  1  0  0  0
  8 32  1  0  0  0
  9 10  1  0  0  0
  9 12  1  0  0  0
  9 33  1  0  0  0
 10 14  1  0  0  0
 10 34  1  0  0  0
 11 12  1  0  0  0
 11 13  1  0  0  0
 11 35  1  0  0  0
 11 36  1  0  0  0
 12 24  1  0  0  0
 12 37  1  0  0  0
 13 14  1  0  0  0
 13 17  1  0  0  0
 13 20  1  0  0  0
 14 15  1  0  0  0
 14 38  1  0  0  0
 15 16  1  0  0  0
 15 39  1  0  0  0
 15 40  1  0  0  0
 16 17  1  0  0  0
 16 41  1  0  0  0
 16 42  1  0  0  0
 17 18  1  0  0  0
 17 21  1  0  0  0
 18 43  1  0  0  0
 19 44  1  0  0  0
 20 45  1  0  0  0
 20 46  1  0  0  0
 20 47  1  0  0  0
 21 22  2  0  0  0
 21 48  1  0  0  0
 22 23  1  0  0  0
 22 49  1  0  0  0
 24 25  1  0  0  0
 25 50  1  0  0  0
 25 51  1  0  0  0
 25 52  1  0  0  0
M  END
>  <Name>
lit-122

>  <Family>
A.1

>  <RBA>
32.000000

>  <RBA_avg>
32.000000

>  <Method>
MMEC

>  <set>
0

$$$$
lit-123
  Cerius2 12180216403D 1   1.00000                          
 Structure written by MMmdl.
 55 58  0  0  0  0  0  0  0  0999 V2000
   -6.7658   -4.1998   16.7887 C   0  0  0  0  0  0
   -5.3842   -4.2095   16.6894 C   0  0  0  0  0  0
   -4.7671   -4.4441   15.4673 C   0  0  0  0  0  0
   -7.5431   -4.4160   15.6481 C   0  0  0  0  0  0
   -6.9510   -4.6290   14.3891 C   0  0  0  0  0  0
   -5.5411   -4.6740   14.3144 C   0  0  0  0  0  0
   -4.8123   -4.9168   13.0144 C   0  0  0  0  0  0
   -5.6934   -5.5197   11.9263 C   0  0  0  0  0  0
   -7.8114   -4.9048   13.1514 C   0  0  0  0  0  0
   -7.0047   -4.7361   11.8258 C   0  0  0  0  0  0
   -9.9859   -4.5181   11.8164 C   0  0  0  0  0  0
   -9.1768   -4.1417   13.0883 C   0  0  0  0  0  0
   -9.1775   -4.4038   10.5009 C   0  0  0  0  0  0
   -7.8799   -5.2249   10.6661 C   0  0  0  0  0  0
   -7.2933   -5.2655    9.2565 C   0  0  0  0  0  0
   -8.5184   -5.2483    8.3197 C   0  0  0  0  0  0
   -9.7760   -5.1021    9.2209 C   0  0  0  0  0  0
  -10.6927   -4.2173    8.5594 O   0  0  0  0  0  0
   -4.6566   -3.9905   17.8213 O   0  0  0  0  0  0
   -8.9238   -2.8978   10.1876 C   0  0  0  0  0  0
  -10.6008   -6.3380    9.5172 C   0  0  0  0  0  0
  -11.8107   -6.5559   10.0591 C   0  0  0  0  0  0
  -12.5329   -8.4942   10.2628 I   0  0  0  0  0  0
  -12.9112   -5.3355   10.5851 Cl  0  0  0  0  0  0
   -8.9319   -2.7289   13.1577 O   0  0  0  0  0  0
  -10.1234   -1.9423   13.1071 C   0  0  0  0  0  0
   -9.7260   -0.4828   13.2023 C   0  0  0  0  0  0
   -7.2482   -4.0287   17.7483 H   0  0  0  0  0  0
   -3.6808   -4.4565   15.3954 H   0  0  0  0  0  0
   -8.6240   -4.4180   15.7705 H   0  0  0  0  0  0
   -3.9613   -5.5873   13.1851 H   0  0  0  0  0  0
   -4.4111   -3.9564   12.6664 H   0  0  0  0  0  0
   -5.9001   -6.5740   12.1518 H   0  0  0  0  0  0
   -5.1455   -5.4968   10.9778 H   0  0  0  0  0  0
   -8.0679   -5.9731   13.2363 H   0  0  0  0  0  0
   -6.7443   -3.6807   11.6818 H   0  0  0  0  0  0
  -10.8935   -3.9099   11.7377 H   0  0  0  0  0  0
  -10.3181   -5.5531   11.9611 H   0  0  0  0  0  0
   -9.7838   -4.4359   13.9534 H   0  0  0  0  0  0
   -8.1515   -6.2617   10.9138 H   0  0  0  0  0  0
   -6.6828   -6.1600    9.0969 H   0  0  0  0  0  0
   -6.6568   -4.3947    9.0624 H   0  0  0  0  0  0
   -8.5521   -6.1197    7.6623 H   0  0  0  0  0  0
   -8.4291   -4.3952    7.6341 H   0  0  0  0  0  0
  -10.8725   -4.6112    7.6809 H   0  0  0  0  0  0
   -3.7042   -4.0296   17.5895 H   0  0  0  0  0  0
   -8.4618   -2.7394    9.2084 H   0  0  0  0  0  0
   -8.2651   -2.4102   10.9073 H   0  0  0  0  0  0
   -9.8690   -2.3423   10.1873 H   0  0  0  0  0  0
  -10.0647   -7.2374    9.2034 H   0  0  0  0  0  0
  -10.7745   -2.2040   13.9481 H   0  0  0  0  0  0
  -10.6577   -2.1174   12.1690 H   0  0  0  0  0  0
  -10.6069    0.1645   13.1727 H   0  0  0  0  0  0
   -9.0591   -0.2109   12.3775 H   0  0  0  0  0  0
   -9.1780   -0.2923   14.1311 H   0  0  0  0  0  0
  1  2  2  0  0  0
  1  4  1  0  0  0
  1 28  1  0  0  0
  2  3  1  0  0  0
  2 19  1  0  0  0
  3  6  2  0  0  0
  3 29  1  0  0  0
  4  5  2  0  0  0
  4 30  1  0  0  0
  5  6  1  0  0  0
  5  9  1  0  0  0
  6  7  1  0  0  0
  7  8  1  0  0  0
  7 31  1  0  0  0
  7 32  1  0  0  0
  8 10  1  0  0  0
  8 33  1  0  0  0
  8 34  1  0  0  0
  9 10  1  0  0  0
  9 12  1  0  0  0
  9 35  1  0  0  0
 10 14  1  0  0  0
 10 36  1  0  0  0
 11 12  1  0  0  0
 11 13  1  0  0  0
 11 37  1  0  0  0
 11 38  1  0  0  0
 12 25  1  0  0  0
 12 39  1  0  0  0
 13 14  1  0  0  0
 13 17  1  0  0  0
 13 20  1  0  0  0
 14 15  1  0  0  0
 14 40  1  0  0  0
 15 16  1  0  0  0
 15 41  1  0  0  0
 15 42  1  0  0  0
 16 17  1  0  0  0
 16 43  1  0  0  0
 16 44  1  0  0  0
 17 18  1  0  0  0
 17 21  1  0  0  0
 18 45  1  0  0  0
 19 46  1  0  0  0
 20 47  1  0  0  0
 20 48  1  0  0  0
 20 49  1  0  0  0
 21 22  2  0  0  0
 21 50  1  0  0  0
 22 23  1  0  0  0
 22 24  1  0  0  0
 25 26  1  0  0  0
 26 27  1  0  0  0
 26 51  1  0  0  0
 26 52  1  0  0  0
 27 53  1  0  0  0
 27 54  1  0  0  0
 27 55  1  0  0  0
M  END
>  <Name>
lit-123

>  <Family>
A.1

>  <RBA>
32.000000

>  <RBA_avg>
32.000000

>  <Method>
MMEC

>  <set>
0

$$$$
lit-124
  Cerius2 12180216403D 1   1.00000                          
 Structure written by MMmdl.
 50 53  0  0  0  0  0  0  0  0999 V2000
   -6.7707   -4.2139   16.7900 C   0  0  0  0  0  0
   -5.3888   -4.2209   16.6934 C   0  0  0  0  0  0
   -4.7689   -4.4462   15.4711 C   0  0  0  0  0  0
   -7.5454   -4.4228   15.6463 C   0  0  0  0  0  0
   -6.9504   -4.6259   14.3869 C   0  0  0  0  0  0
   -5.5404   -4.6693   14.3150 C   0  0  0  0  0  0
   -4.8088   -4.9043   13.0154 C   0  0  0  0  0  0
   -5.6864   -5.5093   11.9256 C   0  0  0  0  0  0
   -7.8088   -4.8945   13.1463 C   0  0  0  0  0  0
   -6.9986   -4.7282   11.8223 C   0  0  0  0  0  0
   -9.9815   -4.4983   11.8099 C   0  0  0  0  0  0
   -9.1700   -4.1227   13.0808 C   0  0  0  0  0  0
   -9.1686   -4.3961   10.4977 C   0  0  0  0  0  0
   -7.8718   -5.2198   10.6628 C   0  0  0  0  0  0
   -7.2915   -5.2548    9.2518 C   0  0  0  0  0  0
   -8.5269   -5.2995    8.3264 C   0  0  0  0  0  0
   -9.7730   -5.0852    9.2309 C   0  0  0  0  0  0
  -10.7238   -4.2457    8.5819 O   0  0  0  0  0  0
   -4.6640   -4.0088   17.8284 O   0  0  0  0  0  0
   -8.9166   -2.8937   10.1690 C   0  0  0  0  0  0
  -10.4307   -6.3774    9.5068 C   0  0  0  0  0  0
  -10.9615   -7.4319    9.7252 C   0  0  0  0  0  0
  -11.7000   -8.9102   10.0392 Cl  0  0  0  0  0  0
   -8.9171   -2.7099   13.1464 O   0  0  0  0  0  0
  -10.1043   -1.9227   13.0931 C   0  0  0  0  0  0
   -7.2554   -4.0508   17.7499 H   0  0  0  0  0  0
   -3.6824   -4.4570   15.4014 H   0  0  0  0  0  0
   -8.6265   -4.4278   15.7666 H   0  0  0  0  0  0
   -3.9547   -5.5712   13.1849 H   0  0  0  0  0  0
   -4.4119   -3.9412   12.6703 H   0  0  0  0  0  0
   -5.8915   -6.5639   12.1506 H   0  0  0  0  0  0
   -5.1369   -5.4849   10.9779 H   0  0  0  0  0  0
   -8.0714   -5.9614   13.2288 H   0  0  0  0  0  0
   -6.7393   -3.6727   11.6770 H   0  0  0  0  0  0
  -10.8836   -3.8823   11.7274 H   0  0  0  0  0  0
  -10.3256   -5.5288   11.9570 H   0  0  0  0  0  0
   -9.7789   -4.4101   13.9469 H   0  0  0  0  0  0
   -8.1405   -6.2609   10.9039 H   0  0  0  0  0  0
   -6.6508   -6.1288    9.0959 H   0  0  0  0  0  0
   -6.6909   -4.3624    9.0425 H   0  0  0  0  0  0
   -8.5655   -6.2560    7.7912 H   0  0  0  0  0  0
   -8.4451   -4.5183    7.5610 H   0  0  0  0  0  0
  -10.9296   -4.6756    7.7268 H   0  0  0  0  0  0
   -3.7109   -4.0447   17.5983 H   0  0  0  0  0  0
   -8.4678   -2.7482    9.1810 H   0  0  0  0  0  0
   -8.2486   -2.4015   10.8771 H   0  0  0  0  0  0
   -9.8606   -2.3360   10.1734 H   0  0  0  0  0  0
   -9.8167   -0.8712   13.1756 H   0  0  0  0  0  0
  -10.7638   -2.1677   13.9310 H   0  0  0  0  0  0
  -10.6281   -2.0624   12.1444 H   0  0  0  0  0  0
  1  2  2  0  0  0
  1  4  1  0  0  0
  1 26  1  0  0  0
  2  3  1  0  0  0
  2 19  1  0  0  0
  3  6  2  0  0  0
  3 27  1  0  0  0
  4  5  2  0  0  0
  4 28  1  0  0  0
  5  6  1  0  0  0
  5  9  1  0  0  0
  6  7  1  0  0  0
  7  8  1  0  0  0
  7 29  1  0  0  0
  7 30  1  0  0  0
  8 10  1  0  0  0
  8 31  1  0  0  0
  8 32  1  0  0  0
  9 10  1  0  0  0
  9 12  1  0  0  0
  9 33  1  0  0  0
 10 14  1  0  0  0
 10 34  1  0  0  0
 11 12  1  0  0  0
 11 13  1  0  0  0
 11 35  1  0  0  0
 11 36  1  0  0  0
 12 24  1  0  0  0
 12 37  1  0  0  0
 13 14  1  0  0  0
 13 17  1  0  0  0
 13 20  1  0  0  0
 14 15  1  0  0  0
 14 38  1  0  0  0
 15 16  1  0  0  0
 15 39  1  0  0  0
 15 40  1  0  0  0
 16 17  1  0  0  0
 16 41  1  0  0  0
 16 42  1  0  0  0
 17 18  1  0  0  0
 17 21  1  0  0  0
 18 43  1  0  0  0
 19 44  1  0  0  0
 20 45  1  0  0  0
 20 46  1  0  0  0
 20 47  1  0  0  0
 21 22  3  0  0  0
 22 23  1  0  0  0
 24 25  1  0  0  0
 25 48  1  0  0  0
 25 49  1  0  0  0
 25 50  1  0  0  0
M  END
>  <Name>
lit-124

>  <Family>
A.1

>  <RBA>
30.000000

>  <RBA_avg>
30.000000

>  <Method>
MMEC

>  <set>
0

$$$$
lit-125
  Cerius2 12180216403D 1   1.00000                          
 Structure written by MMmdl.
 51 54  0  0  0  0  0  0  0  0999 V2000
   -6.7835   -4.1602   16.7554 C   0  0  0  0  0  0
   -5.3985   -4.1396   16.6711 C   0  0  0  0  0  0
   -4.7790   -4.3979   15.4542 C   0  0  0  0  0  0
   -7.5607   -4.4261   15.6308 C   0  0  0  0  0  0
   -6.9622   -4.6659   14.3804 C   0  0  0  0  0  0
   -5.5500   -4.6798   14.3081 C   0  0  0  0  0  0
   -4.8096   -4.9378   13.0139 C   0  0  0  0  0  0
   -5.6582   -5.5883   11.9106 C   0  0  0  0  0  0
   -7.8159   -5.0002   13.1581 C   0  0  0  0  0  0
   -7.0095   -4.8467   11.8331 C   0  0  0  0  0  0
   -9.9875   -4.5712   11.8235 C   0  0  0  0  0  0
   -9.1597   -4.2261   13.0780 C   0  0  0  0  0  0
   -9.1747   -4.4169   10.5228 C   0  0  0  0  0  0
   -7.8983   -5.2804   10.6602 C   0  0  0  0  0  0
   -7.3035   -5.2736    9.2535 C   0  0  0  0  0  0
   -8.5170   -5.1597    8.3108 C   0  0  0  0  0  0
   -9.7775   -5.0292    9.2043 C   0  0  0  0  0  0
  -10.6630   -4.0897    8.5770 O   0  0  0  0  0  0
   -4.6638   -3.8708   17.7912 O   0  0  0  0  0  0
   -8.8829   -2.8999   10.3150 C   0  0  0  0  0  0
  -10.6423   -6.2520    9.4345 C   0  0  0  0  0  0
  -11.8550   -6.5152    9.9443 C   0  0  0  0  0  0
  -13.2942   -5.2951   10.6832 I   0  0  0  0  0  0
   -5.7645   -7.1038   12.1162 C   0  0  0  0  0  0
   -7.3918   -3.9281   17.9285 F   0  0  0  0  0  0
   -3.6927   -4.3874   15.3796 H   0  0  0  0  0  0
   -8.6385   -4.4495   15.7610 H   0  0  0  0  0  0
   -3.9247   -5.5567   13.2089 H   0  0  0  0  0  0
   -4.4467   -3.9669   12.6508 H   0  0  0  0  0  0
   -5.1201   -5.4395   10.9652 H   0  0  0  0  0  0
   -8.0839   -6.0605   13.2731 H   0  0  0  0  0  0
   -6.7589   -3.7854   11.7024 H   0  0  0  0  0  0
  -10.8863   -3.9437   11.7912 H   0  0  0  0  0  0
  -10.3346   -5.6044   11.9434 H   0  0  0  0  0  0
   -8.9735   -3.1470   13.1272 H   0  0  0  0  0  0
   -9.7862   -4.4622   13.9458 H   0  0  0  0  0  0
   -8.2075   -6.3146   10.8673 H   0  0  0  0  0  0
   -6.7234   -6.1797    9.0540 H   0  0  0  0  0  0
   -6.6324   -4.4196    9.1064 H   0  0  0  0  0  0
   -8.5715   -5.9841    7.5982 H   0  0  0  0  0  0
   -8.3938   -4.2667    7.6833 H   0  0  0  0  0  0
  -10.8778   -4.4630    7.6972 H   0  0  0  0  0  0
   -3.7130   -3.8980   17.5524 H   0  0  0  0  0  0
   -8.2967   -2.7011    9.4129 H   0  0  0  0  0  0
   -8.3348   -2.4507   11.1466 H   0  0  0  0  0  0
   -9.8203   -2.3388   10.2225 H   0  0  0  0  0  0
  -10.1261   -7.1537    9.0868 H   0  0  0  0  0  0
  -12.1558   -7.5628    9.9524 H   0  0  0  0  0  0
   -6.3394   -7.5756   11.3143 H   0  0  0  0  0  0
   -6.2296   -7.3662   13.0707 H   0  0  0  0  0  0
   -4.7669   -7.5571   12.1058 H   0  0  0  0  0  0
  1  2  2  0  0  0
  1  4  1  0  0  0
  1 25  1  0  0  0
  2  3  1  0  0  0
  2 19  1  0  0  0
  3  6  2  0  0  0
  3 26  1  0  0  0
  4  5  2  0  0  0
  4 27  1  0  0  0
  5  6  1  0  0  0
  5  9  1  0  0  0
  6  7  1  0  0  0
  7  8  1  0  0  0
  7 28  1  0  0  0
  7 29  1  0  0  0
  8 10  1  0  0  0
  8 24  1  0  0  0
  8 30  1  0  0  0
  9 10  1  0  0  0
  9 12  1  0  0  0
  9 31  1  0  0  0
 10 14  1  0  0  0
 10 32  1  0  0  0
 11 12  1  0  0  0
 11 13  1  0  0  0
 11 33  1  0  0  0
 11 34  1  0  0  0
 12 35  1  0  0  0
 12 36  1  0  0  0
 13 14  1  0  0  0
 13 17  1  0  0  0
 13 20  1  0  0  0
 14 15  1  0  0  0
 14 37  1  0  0  0
 15 16  1  0  0  0
 15 38  1  0  0  0
 15 39  1  0  0  0
 16 17  1  0  0  0
 16 40  1  0  0  0
 16 41  1  0  0  0
 17 18  1  0  0  0
 17 21  1  0  0  0
 18 42  1  0  0  0
 19 43  1  0  0  0
 20 44  1  0  0  0
 20 45  1  0  0  0
 20 46  1  0  0  0
 21 22  2  0  0  0
 21 47  1  0  0  0
 22 23  1  0  0  0
 22 48  1  0  0  0
 24 49  1  0  0  0
 24 50  1  0  0  0
 24 51  1  0  0  0
M  END
>  <Name>
lit-125

>  <Family>
A.1

>  <RBA>
29.000000

>  <RBA_avg>
29.000000

>  <Method>
MMEC

>  <set>
0

$$$$
lit-126
  Cerius2 12180216403D 1   1.00000                          
 Structure written by MMmdl.
 52 55  0  0  0  0  0  0  0  0999 V2000
   -6.7654   -4.2028   16.7792 C   0  0  0  0  0  0
   -5.3800   -4.2094   16.6947 C   0  0  0  0  0  0
   -4.7661   -4.4441   15.4703 C   0  0  0  0  0  0
   -7.5486   -4.4175   15.6477 C   0  0  0  0  0  0
   -6.9553   -4.6298   14.3899 C   0  0  0  0  0  0
   -5.5437   -4.6737   14.3173 C   0  0  0  0  0  0
   -4.8148   -4.9156   13.0165 C   0  0  0  0  0  0
   -5.6954   -5.5186   11.9281 C   0  0  0  0  0  0
   -7.8144   -4.9048   13.1515 C   0  0  0  0  0  0
   -7.0069   -4.7353   11.8271 C   0  0  0  0  0  0
   -9.9872   -4.5171   11.8153 C   0  0  0  0  0  0
   -9.1797   -4.1407   13.0881 C   0  0  0  0  0  0
   -9.1785   -4.4033   10.5000 C   0  0  0  0  0  0
   -7.8807   -5.2238   10.6663 C   0  0  0  0  0  0
   -7.2920   -5.2597    9.2579 C   0  0  0  0  0  0
   -8.5172   -5.2521    8.3216 C   0  0  0  0  0  0
   -9.7749   -5.1036    9.2196 C   0  0  0  0  0  0
  -10.6888   -4.2198    8.5529 O   0  0  0  0  0  0
   -4.6399   -3.9907   17.8220 O   0  0  0  0  0  0
   -8.9257   -2.8976   10.1862 C   0  0  0  0  0  0
  -10.6074   -6.3345    9.5174 C   0  0  0  0  0  0
  -11.8108   -6.6016   10.0468 C   0  0  0  0  0  0
  -13.2795   -5.3820   10.7276 I   0  0  0  0  0  0
   -7.3684   -3.9931   17.9592 F   0  0  0  0  0  0
   -8.9344   -2.7275   13.1665 O   0  0  0  0  0  0
  -10.1245   -1.9446   13.1163 C   0  0  0  0  0  0
   -3.6800   -4.4566   15.3949 H   0  0  0  0  0  0
   -8.6264   -4.4183   15.7783 H   0  0  0  0  0  0
   -3.9634   -5.5859   13.1869 H   0  0  0  0  0  0
   -4.4139   -3.9549   12.6690 H   0  0  0  0  0  0
   -5.9019   -6.5730   12.1532 H   0  0  0  0  0  0
   -5.1471   -5.4953   10.9799 H   0  0  0  0  0  0
   -8.0713   -5.9730   13.2353 H   0  0  0  0  0  0
   -6.7469   -3.6798   11.6837 H   0  0  0  0  0  0
  -10.8961   -3.9110   11.7360 H   0  0  0  0  0  0
  -10.3178   -5.5525   11.9605 H   0  0  0  0  0  0
   -9.7868   -4.4370   13.9525 H   0  0  0  0  0  0
   -8.1525   -6.2615   10.9104 H   0  0  0  0  0  0
   -6.6724   -6.1474    9.0982 H   0  0  0  0  0  0
   -6.6633   -4.3830    9.0647 H   0  0  0  0  0  0
   -8.5489   -6.1270    7.6708 H   0  0  0  0  0  0
   -8.4296   -4.4034    7.6300 H   0  0  0  0  0  0
  -10.8977   -4.6408    7.6933 H   0  0  0  0  0  0
   -3.6898   -4.0304   17.5819 H   0  0  0  0  0  0
   -8.4603   -2.7394    9.2085 H   0  0  0  0  0  0
   -8.2708   -2.4088   10.9086 H   0  0  0  0  0  0
   -9.8716   -2.3436   10.1817 H   0  0  0  0  0  0
  -10.0699   -7.2401    9.2149 H   0  0  0  0  0  0
  -12.0845   -7.6548   10.1114 H   0  0  0  0  0  0
   -9.8423   -0.8936   13.2226 H   0  0  0  0  0  0
  -10.7922   -2.2085   13.9418 H   0  0  0  0  0  0
  -10.6369   -2.0669   12.1592 H   0  0  0  0  0  0
  1  2  2  0  0  0
  1  4  1  0  0  0
  1 24  1  0  0  0
  2  3  1  0  0  0
  2 19  1  0  0  0
  3  6  2  0  0  0
  3 27  1  0  0  0
  4  5  2  0  0  0
  4 28  1  0  0  0
  5  6  1  0  0  0
  5  9  1  0  0  0
  6  7  1  0  0  0
  7  8  1  0  0  0
  7 29  1  0  0  0
  7 30  1  0  0  0
  8 10  1  0  0  0
  8 31  1  0  0  0
  8 32  1  0  0  0
  9 10  1  0  0  0
  9 12  1  0  0  0
  9 33  1  0  0  0
 10 14  1  0  0  0
 10 34  1  0  0  0
 11 12  1  0  0  0
 11 13  1  0  0  0
 11 35  1  0  0  0
 11 36  1  0  0  0
 12 25  1  0  0  0
 12 37  1  0  0  0
 13 14  1  0  0  0
 13 17  1  0  0  0
 13 20  1  0  0  0
 14 15  1  0  0  0
 14 38  1  0  0  0
 15 16  1  0  0  0
 15 39  1  0  0  0
 15 40  1  0  0  0
 16 17  1  0  0  0
 16 41  1  0  0  0
 16 42  1  0  0  0
 17 18  1  0  0  0
 17 21  1  0  0  0
 18 43  1  0  0  0
 19 44  1  0  0  0
 20 45  1  0  0  0
 20 46  1  0  0  0
 20 47  1  0  0  0
 21 22  2  0  0  0
 21 48  1  0  0  0
 22 23  1  0  0  0
 22 49  1  0  0  0
 25 26  1  0  0  0
 26 50  1  0  0  0
 26 51  1  0  0  0
 26 52  1  0  0  0
M  END
>  <Name>
lit-126

>  <Family>
A.1

>  <RBA>
28.000000

>  <RBA_avg>
28.000000

>  <Method>
MMEC

>  <set>
0

$$$$
lit-127
  Cerius2 12180216403D 1   1.00000                          
 Structure written by MMmdl.
 52 55  0  0  0  0  0  0  0  0999 V2000
   -6.7741   -4.2246   16.7908 C   0  0  0  0  0  0
   -5.3922   -4.2272   16.6954 C   0  0  0  0  0  0
   -4.7706   -4.4443   15.4724 C   0  0  0  0  0  0
   -7.5471   -4.4294   15.6451 C   0  0  0  0  0  0
   -6.9505   -4.6232   14.3849 C   0  0  0  0  0  0
   -5.5404   -4.6633   14.3145 C   0  0  0  0  0  0
   -4.8072   -4.8918   13.0148 C   0  0  0  0  0  0
   -5.6821   -5.5028   11.9266 C   0  0  0  0  0  0
   -7.8087   -4.8848   13.1421 C   0  0  0  0  0  0
   -6.9958   -4.7246   11.8191 C   0  0  0  0  0  0
   -9.9860   -4.4674   11.8118 C   0  0  0  0  0  0
   -9.1604   -4.0970   13.0761 C   0  0  0  0  0  0
   -9.1725   -4.4240   10.4993 C   0  0  0  0  0  0
   -7.8660   -5.2263   10.6615 C   0  0  0  0  0  0
   -7.2891   -5.2503    9.2481 C   0  0  0  0  0  0
   -8.5243   -5.2903    8.3202 C   0  0  0  0  0  0
   -9.7845   -5.1221    9.2299 C   0  0  0  0  0  0
  -10.7229   -4.2295    8.6148 O   0  0  0  0  0  0
   -4.6689   -4.0195   17.8321 O   0  0  0  0  0  0
   -8.9118   -2.9177   10.1525 C   0  0  0  0  0  0
  -10.5111   -6.4545    9.2868 C   0  0  0  0  0  0
  -11.7170   -6.7757    9.7776 C   0  0  0  0  0  0
  -12.4459   -8.6950    9.7393 I   0  0  0  0  0  0
   -8.8886   -2.6868   13.1319 O   0  0  0  0  0  0
  -10.0659   -1.8851   13.0775 C   0  0  0  0  0  0
   -7.2602   -4.0684   17.7510 H   0  0  0  0  0  0
   -3.6840   -4.4523   15.4039 H   0  0  0  0  0  0
   -8.6283   -4.4389   15.7648 H   0  0  0  0  0  0
   -3.9485   -5.5529   13.1833 H   0  0  0  0  0  0
   -4.4173   -3.9258   12.6699 H   0  0  0  0  0  0
   -5.8853   -6.5570   12.1558 H   0  0  0  0  0  0
   -5.1321   -5.4809   10.9792 H   0  0  0  0  0  0
   -8.0821   -5.9490   13.2242 H   0  0  0  0  0  0
   -6.7371   -3.6698   11.6683 H   0  0  0  0  0  0
  -10.8609   -3.8148   11.7169 H   0  0  0  0  0  0
  -10.3838   -5.4678   11.9879 H   0  0  0  0  0  0
   -9.7701   -4.3699   13.9462 H   0  0  0  0  0  0
   -8.1037   -6.2701   10.9013 H   0  0  0  0  0  0
   -6.6484   -6.1236    9.0868 H   0  0  0  0  0  0
   -6.6870   -4.3580    9.0432 H   0  0  0  0  0  0
   -8.5373   -6.2347    7.7621 H   0  0  0  0  0  0
   -8.4556   -4.4932    7.5699 H   0  0  0  0  0  0
  -10.7812   -4.4826    7.6709 H   0  0  0  0  0  0
   -3.7156   -4.0520   17.6029 H   0  0  0  0  0  0
   -8.4661   -2.7788    9.1625 H   0  0  0  0  0  0
   -8.2394   -2.4225   10.8542 H   0  0  0  0  0  0
   -9.8516   -2.3528   10.1563 H   0  0  0  0  0  0
   -9.9188   -7.2759    8.8782 H   0  0  0  0  0  0
  -12.3788   -6.0563   10.2409 H   0  0  0  0  0  0
   -9.7644   -0.8362   13.1428 H   0  0  0  0  0  0
  -10.7208   -2.1101   13.9246 H   0  0  0  0  0  0
  -10.6004   -2.0317   12.1359 H   0  0  0  0  0  0
  1  2  2  0  0  0
  1  4  1  0  0  0
  1 26  1  0  0  0
  2  3  1  0  0  0
  2 19  1  0  0  0
  3  6  2  0  0  0
  3 27  1  0  0  0
  4  5  2  0  0  0
  4 28  1  0  0  0
  5  6  1  0  0  0
  5  9  1  0  0  0
  6  7  1  0  0  0
  7  8  1  0  0  0
  7 29  1  0  0  0
  7 30  1  0  0  0
  8 10  1  0  0  0
  8 31  1  0  0  0
  8 32  1  0  0  0
  9 10  1  0  0  0
  9 12  1  0  0  0
  9 33  1  0  0  0
 10 14  1  0  0  0
 10 34  1  0  0  0
 11 12  1  0  0  0
 11 13  1  0  0  0
 11 35  1  0  0  0
 11 36  1  0  0  0
 12 24  1  0  0  0
 12 37  1  0  0  0
 13 14  1  0  0  0
 13 17  1  0  0  0
 13 20  1  0  0  0
 14 15  1  0  0  0
 14 38  1  0  0  0
 15 16  1  0  0  0
 15 39  1  0  0  0
 15 40  1  0  0  0
 16 17  1  0  0  0
 16 41  1  0  0  0
 16 42  1  0  0  0
 17 18  1  0  0  0
 17 21  1  0  0  0
 18 43  1  0  0  0
 19 44  1  0  0  0
 20 45  1  0  0  0
 20 46  1  0  0  0
 20 47  1  0  0  0
 21 22  2  0  0  0
 21 48  1  0  0  0
 22 23  1  0  0  0
 22 49  1  0  0  0
 24 25  1  0  0  0
 25 50  1  0  0  0
 25 51  1  0  0  0
 25 52  1  0  0  0
M  END
>  <Name>
lit-127

>  <Family>
A.1

>  <RBA>
28.000000

>  <RBA_avg>
28.000000

>  <Method>
MMEC

>  <set>
0

$$$$
lit-128
  Cerius2 12180216403D 1   1.00000                          
 Structure written by MMmdl.
 52 55  0  0  0  0  0  0  0  0999 V2000
   -6.7760   -4.2217   16.7954 C   0  0  0  0  0  0
   -5.3952   -4.2208   16.6988 C   0  0  0  0  0  0
   -4.7842   -4.4416   15.4692 C   0  0  0  0  0  0
   -7.5460   -4.4322   15.6469 C   0  0  0  0  0  0
   -6.9496   -4.6285   14.3839 C   0  0  0  0  0  0
   -5.5396   -4.6672   14.3098 C   0  0  0  0  0  0
   -4.8057   -4.8987   13.0144 C   0  0  0  0  0  0
   -5.6817   -5.5068   11.9251 C   0  0  0  0  0  0
   -7.8087   -4.8912   13.1419 C   0  0  0  0  0  0
   -6.9956   -4.7283   11.8192 C   0  0  0  0  0  0
   -9.9855   -4.4695   11.8121 C   0  0  0  0  0  0
   -9.1600   -4.1026   13.0773 C   0  0  0  0  0  0
   -9.1719   -4.4237   10.4998 C   0  0  0  0  0  0
   -7.8657   -5.2269   10.6604 C   0  0  0  0  0  0
   -7.2887   -5.2480    9.2470 C   0  0  0  0  0  0
   -8.5239   -5.2852    8.3187 C   0  0  0  0  0  0
   -9.7840   -5.1185    9.2288 C   0  0  0  0  0  0
  -10.7220   -4.2243    8.6157 O   0  0  0  0  0  0
   -4.6607   -4.0078   17.8309 O   0  0  0  0  0  0
   -8.9103   -2.9165   10.1566 C   0  0  0  0  0  0
  -10.5110   -6.4509    9.2828 C   0  0  0  0  0  0
  -11.7170   -6.7728    9.7729 C   0  0  0  0  0  0
  -12.4464   -8.6919    9.7308 I   0  0  0  0  0  0
   -8.8852   -2.6932   13.1371 O   0  0  0  0  0  0
  -10.0606   -1.8886   13.0843 C   0  0  0  0  0  0
   -3.4431   -4.4428   15.4034 F   0  0  0  0  0  0
   -7.2634   -4.0639   17.7546 H   0  0  0  0  0  0
   -8.6277   -4.4438   15.7655 H   0  0  0  0  0  0
   -3.9506   -5.5643   13.1831 H   0  0  0  0  0  0
   -4.4109   -3.9348   12.6689 H   0  0  0  0  0  0
   -5.8853   -6.5614   12.1521 H   0  0  0  0  0  0
   -5.1320   -5.4835   10.9775 H   0  0  0  0  0  0
   -8.0816   -5.9554   13.2232 H   0  0  0  0  0  0
   -6.7364   -3.6732   11.6707 H   0  0  0  0  0  0
  -10.8601   -3.8162   11.7186 H   0  0  0  0  0  0
  -10.3841   -5.4700   11.9858 H   0  0  0  0  0  0
   -9.7699   -4.3767   13.9468 H   0  0  0  0  0  0
   -8.1040   -6.2711   10.8978 H   0  0  0  0  0  0
   -6.6484   -6.1212    9.0838 H   0  0  0  0  0  0
   -6.6862   -4.3555    9.0441 H   0  0  0  0  0  0
   -8.5374   -6.2282    7.7584 H   0  0  0  0  0  0
   -8.4547   -4.4864    7.5705 H   0  0  0  0  0  0
  -10.7803   -4.4751    7.6713 H   0  0  0  0  0  0
   -3.7130   -4.0449   17.5735 H   0  0  0  0  0  0
   -8.4646   -2.7756    9.1670 H   0  0  0  0  0  0
   -8.2377   -2.4233   10.8595 H   0  0  0  0  0  0
   -9.8499   -2.3512   10.1618 H   0  0  0  0  0  0
   -9.9188   -7.2716    8.8725 H   0  0  0  0  0  0
  -12.3786   -6.0542   10.2376 H   0  0  0  0  0  0
   -9.7567   -0.8407   13.1553 H   0  0  0  0  0  0
  -10.7178   -2.1161   13.9289 H   0  0  0  0  0  0
  -10.5934   -2.0291   12.1408 H   0  0  0  0  0  0
  1  2  2  0  0  0
  1  4  1  0  0  0
  1 27  1  0  0  0
  2  3  1  0  0  0
  2 19  1  0  0  0
  3  6  2  0  0  0
  3 26  1  0  0  0
  4  5  2  0  0  0
  4 28  1  0  0  0
  5  6  1  0  0  0
  5  9  1  0  0  0
  6  7  1  0  0  0
  7  8  1  0  0  0
  7 29  1  0  0  0
  7 30  1  0  0  0
  8 10  1  0  0  0
  8 31  1  0  0  0
  8 32  1  0  0  0
  9 10  1  0  0  0
  9 12  1  0  0  0
  9 33  1  0  0  0
 10 14  1  0  0  0
 10 34  1  0  0  0
 11 12  1  0  0  0
 11 13  1  0  0  0
 11 35  1  0  0  0
 11 36  1  0  0  0
 12 24  1  0  0  0
 12 37  1  0  0  0
 13 14  1  0  0  0
 13 17  1  0  0  0
 13 20  1  0  0  0
 14 15  1  0  0  0
 14 38  1  0  0  0
 15 16  1  0  0  0
 15 39  1  0  0  0
 15 40  1  0  0  0
 16 17  1  0  0  0
 16 41  1  0  0  0
 16 42  1  0  0  0
 17 18  1  0  0  0
 17 21  1  0  0  0
 18 43  1  0  0  0
 19 44  1  0  0  0
 20 45  1  0  0  0
 20 46  1  0  0  0
 20 47  1  0  0  0
 21 22  2  0  0  0
 21 48  1  0  0  0
 22 23  1  0  0  0
 22 49  1  0  0  0
 24 25  1  0  0  0
 25 50  1  0  0  0
 25 51  1  0  0  0
 25 52  1  0  0  0
M  END
>  <Name>
lit-128

>  <Family>
A.1

>  <RBA>
28.000000

>  <RBA_avg>
28.000000

>  <Method>
MMEC

>  <set>
0

$$$$
lit-129
  Cerius2 12180216403D 1   1.00000                          
 Structure written by MMmdl.
 53 56  0  0  0  0  0  0  0  0999 V2000
   -6.7708   -4.2075   16.7884 C   0  0  0  0  0  0
   -5.3889   -4.2167   16.6921 C   0  0  0  0  0  0
   -4.7692   -4.4470   15.4706 C   0  0  0  0  0  0
   -7.5455   -4.4199   15.6454 C   0  0  0  0  0  0
   -6.9506   -4.6284   14.3868 C   0  0  0  0  0  0
   -5.5407   -4.6730   14.3152 C   0  0  0  0  0  0
   -4.8089   -4.9113   13.0161 C   0  0  0  0  0  0
   -5.6871   -5.5136   11.9253 C   0  0  0  0  0  0
   -7.8089   -4.9001   13.1465 C   0  0  0  0  0  0
   -6.9987   -4.7313   11.8231 C   0  0  0  0  0  0
   -9.9818   -4.5035   11.8104 C   0  0  0  0  0  0
   -9.1709   -4.1305   13.0816 C   0  0  0  0  0  0
   -9.1687   -4.3962   10.4990 C   0  0  0  0  0  0
   -7.8714   -5.2196   10.6619 C   0  0  0  0  0  0
   -7.2907   -5.2495    9.2510 C   0  0  0  0  0  0
   -8.5261   -5.2944    8.3257 C   0  0  0  0  0  0
   -9.7722   -5.0819    9.2306 C   0  0  0  0  0  0
  -10.7221   -4.2419    8.5808 O   0  0  0  0  0  0
   -4.6640   -4.0015   17.8264 O   0  0  0  0  0  0
   -8.9177   -2.8923   10.1750 C   0  0  0  0  0  0
  -10.4334   -6.3781    9.5015 C   0  0  0  0  0  0
   -8.9174   -2.7185   13.1463 O   0  0  0  0  0  0
  -10.1046   -1.9254   13.0939 C   0  0  0  0  0  0
  -10.9727   -7.4324    9.7070 C   0  0  0  0  0  0
   -9.6988   -0.4677   13.1833 C   0  0  0  0  0  0
   -7.2555   -4.0398   17.7475 H   0  0  0  0  0  0
   -3.6826   -4.4589   15.4012 H   0  0  0  0  0  0
   -8.6267   -4.4227   15.7656 H   0  0  0  0  0  0
   -3.9570   -5.5806   13.1868 H   0  0  0  0  0  0
   -4.4088   -3.9495   12.6710 H   0  0  0  0  0  0
   -5.8932   -6.5683   12.1490 H   0  0  0  0  0  0
   -5.1374   -5.4887   10.9779 H   0  0  0  0  0  0
   -8.0694   -5.9674   13.2291 H   0  0  0  0  0  0
   -6.7386   -3.6756   11.6800 H   0  0  0  0  0  0
  -10.8842   -3.8879   11.7293 H   0  0  0  0  0  0
  -10.3249   -5.5348   11.9543 H   0  0  0  0  0  0
   -9.7800   -4.4187   13.9472 H   0  0  0  0  0  0
   -8.1397   -6.2616   10.8996 H   0  0  0  0  0  0
   -6.6481   -6.1217    9.0926 H   0  0  0  0  0  0
   -6.6922   -4.3552    9.0443 H   0  0  0  0  0  0
   -8.5640   -6.2505    7.7898 H   0  0  0  0  0  0
   -8.4452   -4.5126    7.5609 H   0  0  0  0  0  0
  -10.9637   -4.6999    7.7501 H   0  0  0  0  0  0
   -3.7110   -4.0398   17.5967 H   0  0  0  0  0  0
   -8.4726   -2.7434    9.1859 H   0  0  0  0  0  0
   -8.2468   -2.4027   10.8820 H   0  0  0  0  0  0
   -9.8617   -2.3347   10.1850 H   0  0  0  0  0  0
  -10.7562   -2.1802   13.9364 H   0  0  0  0  0  0
  -10.6407   -2.1009   12.1568 H   0  0  0  0  0  0
  -11.4518   -8.3683    9.8896 H   0  0  0  0  0  0
  -10.5759    0.1844   13.1520 H   0  0  0  0  0  0
   -9.0310   -0.2027   12.3568 H   0  0  0  0  0  0
   -9.1488   -0.2770   14.1108 H   0  0  0  0  0  0
  1  2  2  0  0  0
  1  4  1  0  0  0
  1 26  1  0  0  0
  2  3  1  0  0  0
  2 19  1  0  0  0
  3  6  2  0  0  0
  3 27  1  0  0  0
  4  5  2  0  0  0
  4 28  1  0  0  0
  5  6  1  0  0  0
  5  9  1  0  0  0
  6  7  1  0  0  0
  7  8  1  0  0  0
  7 29  1  0  0  0
  7 30  1  0  0  0
  8 10  1  0  0  0
  8 31  1  0  0  0
  8 32  1  0  0  0
  9 10  1  0  0  0
  9 12  1  0  0  0
  9 33  1  0  0  0
 10 14  1  0  0  0
 10 34  1  0  0  0
 11 12  1  0  0  0
 11 13  1  0  0  0
 11 35  1  0  0  0
 11 36  1  0  0  0
 12 22  1  0  0  0
 12 37  1  0  0  0
 13 14  1  0  0  0
 13 17  1  0  0  0
 13 20  1  0  0  0
 14 15  1  0  0  0
 14 38  1  0  0  0
 15 16  1  0  0  0
 15 39  1  0  0  0
 15 40  1  0  0  0
 16 17  1  0  0  0
 16 41  1  0  0  0
 16 42  1  0  0  0
 17 18  1  0  0  0
 17 21  1  0  0  0
 18 43  1  0  0  0
 19 44  1  0  0  0
 20 45  1  0  0  0
 20 46  1  0  0  0
 20 47  1  0  0  0
 21 24  3  0  0  0
 22 23  1  0  0  0
 23 25  1  0  0  0
 23 48  1  0  0  0
 23 49  1  0  0  0
 24 50  1  0  0  0
 25 51  1  0  0  0
 25 52  1  0  0  0
 25 53  1  0  0  0
M  END
>  <Name>
lit-129

>  <Family>
A.1

>  <RBA>
21,10

>  <RBA_avg>
16.000000

>  <Method>
MMEC,MUC

>  <set>
0

$$$$
lit-130
  Cerius2 12180216403D 1   1.00000                          
 Structure written by MMmdl.
 48 51  0  0  0  0  0  0  0  0999 V2000
   -6.7823   -4.1056   16.7393 C   0  0  0  0  0  0
   -5.3966   -4.1316   16.6640 C   0  0  0  0  0  0
   -4.7782   -4.4352   15.4572 C   0  0  0  0  0  0
   -7.5615   -4.3712   15.6158 C   0  0  0  0  0  0
   -6.9634   -4.6582   14.3757 C   0  0  0  0  0  0
   -5.5514   -4.7156   14.3127 C   0  0  0  0  0  0
   -4.8149   -5.0214   13.0283 C   0  0  0  0  0  0
   -5.6984   -5.6095   11.9330 C   0  0  0  0  0  0
   -7.8120   -4.9945   13.1491 C   0  0  0  0  0  0
   -7.0010   -4.8122   11.8311 C   0  0  0  0  0  0
   -9.9945   -4.5960   11.8151 C   0  0  0  0  0  0
   -9.1727   -4.2531   13.0744 C   0  0  0  0  0  0
   -9.1723   -4.4493   10.5241 C   0  0  0  0  0  0
   -7.8657   -5.2598   10.6489 C   0  0  0  0  0  0
   -7.2710   -5.1959    9.2426 C   0  0  0  0  0  0
   -8.4878   -5.1186    8.2949 C   0  0  0  0  0  0
   -9.7599   -5.0405    9.1946 C   0  0  0  0  0  0
  -10.6996   -4.1128    8.6382 O   0  0  0  0  0  0
   -4.6605   -3.8626   17.7832 O   0  0  0  0  0  0
   -8.9112   -2.9163   10.3297 C   0  0  0  0  0  0
  -10.4680   -6.3832    9.1357 C   0  0  0  0  0  0
  -11.6692   -6.7764    9.5811 C   0  0  0  0  0  0
   -7.3897   -3.8277   17.9029 F   0  0  0  0  0  0
   -3.6917   -4.4607   15.3888 H   0  0  0  0  0  0
   -8.6400   -4.3548   15.7401 H   0  0  0  0  0  0
   -3.9943   -5.7208   13.2292 H   0  0  0  0  0  0
   -4.3695   -4.0860   12.6659 H   0  0  0  0  0  0
   -5.9178   -6.6621   12.1546 H   0  0  0  0  0  0
   -5.1462   -5.5917   10.9868 H   0  0  0  0  0  0
   -8.0464   -6.0656   13.2507 H   0  0  0  0  0  0
   -6.7285   -3.7562   11.7092 H   0  0  0  0  0  0
  -10.8860   -3.9579   11.7767 H   0  0  0  0  0  0
  -10.3659   -5.6137   11.9431 H   0  0  0  0  0  0
   -9.0110   -3.1705   13.1376 H   0  0  0  0  0  0
   -9.7946   -4.5138   13.9388 H   0  0  0  0  0  0
   -8.1047   -6.3153   10.8313 H   0  0  0  0  0  0
   -6.6593   -6.0779    9.0252 H   0  0  0  0  0  0
   -6.6334   -4.3142    9.1133 H   0  0  0  0  0  0
   -8.4989   -5.9891    7.6276 H   0  0  0  0  0  0
   -8.4005   -4.2392    7.6450 H   0  0  0  0  0  0
  -10.7666   -4.3161    7.6830 H   0  0  0  0  0  0
   -3.7096   -3.9255   17.5515 H   0  0  0  0  0  0
   -8.3466   -2.6925    9.4198 H   0  0  0  0  0  0
   -8.3556   -2.4687   11.1574 H   0  0  0  0  0  0
   -9.8594   -2.3696   10.2615 H   0  0  0  0  0  0
   -9.8719   -7.1697    8.6659 H   0  0  0  0  0  0
  -11.9890   -7.8077    9.4456 H   0  0  0  0  0  0
  -12.3661   -6.1320   10.1018 H   0  0  0  0  0  0
  1  2  2  0  0  0
  1  4  1  0  0  0
  1 23  1  0  0  0
  2  3  1  0  0  0
  2 19  1  0  0  0
  3  6  2  0  0  0
  3 24  1  0  0  0
  4  5  2  0  0  0
  4 25  1  0  0  0
  5  6  1  0  0  0
  5  9  1  0  0  0
  6  7  1  0  0  0
  7  8  1  0  0  0
  7 26  1  0  0  0
  7 27  1  0  0  0
  8 10  1  0  0  0
  8 28  1  0  0  0
  8 29  1  0  0  0
  9 10  1  0  0  0
  9 12  1  0  0  0
  9 30  1  0  0  0
 10 14  1  0  0  0
 10 31  1  0  0  0
 11 12  1  0  0  0
 11 13  1  0  0  0
 11 32  1  0  0  0
 11 33  1  0  0  0
 12 34  1  0  0  0
 12 35  1  0  0  0
 13 14  1  0  0  0
 13 17  1  0  0  0
 13 20  1  0  0  0
 14 15  1  0  0  0
 14 36  1  0  0  0
 15 16  1  0  0  0
 15 37  1  0  0  0
 15 38  1  0  0  0
 16 17  1  0  0  0
 16 39  1  0  0  0
 16 40  1  0  0  0
 17 18  1  0  0  0
 17 21  1  0  0  0
 18 41  1  0  0  0
 19 42  1  0  0  0
 20 43  1  0  0  0
 20 44  1  0  0  0
 20 45  1  0  0  0
 21 22  2  0  0  0
 21 46  1  0  0  0
 22 47  1  0  0  0
 22 48  1  0  0  0
M  END
>  <Name>
lit-130

>  <Family>
A.1

>  <RBA>
18.000000

>  <RBA_avg>
18.000000

>  <Method>
MMEC

>  <set>
2

$$$$
lit-131
  Cerius2 12180216403D 1   1.00000                          
 Structure written by MMmdl.
 55 58  0  0  0  0  0  0  0  0999 V2000
   -6.7743   -4.2193   16.7895 C   0  0  0  0  0  0
   -5.3923   -4.2236   16.6944 C   0  0  0  0  0  0
   -4.7709   -4.4449   15.4722 C   0  0  0  0  0  0
   -7.5473   -4.4269   15.6444 C   0  0  0  0  0  0
   -6.9507   -4.6253   14.3850 C   0  0  0  0  0  0
   -5.5407   -4.6663   14.3148 C   0  0  0  0  0  0
   -4.8073   -4.8975   13.0155 C   0  0  0  0  0  0
   -5.6826   -5.5068   11.9267 C   0  0  0  0  0  0
   -7.8087   -4.8893   13.1424 C   0  0  0  0  0  0
   -6.9957   -4.7273   11.8196 C   0  0  0  0  0  0
   -9.9859   -4.4723   11.8122 C   0  0  0  0  0  0
   -9.1608   -4.1028   13.0765 C   0  0  0  0  0  0
   -9.1725   -4.4244   10.5000 C   0  0  0  0  0  0
   -7.8655   -5.2263   10.6605 C   0  0  0  0  0  0
   -7.2884   -5.2460    9.2472 C   0  0  0  0  0  0
   -8.5235   -5.2855    8.3189 C   0  0  0  0  0  0
   -9.7838   -5.1196    9.2289 C   0  0  0  0  0  0
  -10.7223   -4.2258    8.6155 O   0  0  0  0  0  0
   -4.6689   -4.0133   17.8306 O   0  0  0  0  0  0
   -8.9128   -2.9167   10.1570 C   0  0  0  0  0  0
  -10.5104   -6.4522    9.2827 C   0  0  0  0  0  0
  -11.7165   -6.7745    9.7724 C   0  0  0  0  0  0
  -12.4452   -8.6937    9.7300 I   0  0  0  0  0  0
   -8.8870   -2.6937   13.1294 O   0  0  0  0  0  0
  -10.0633   -1.8848   13.0752 C   0  0  0  0  0  0
   -9.6370   -0.4319   13.1431 C   0  0  0  0  0  0
   -7.2603   -4.0593   17.7493 H   0  0  0  0  0  0
   -3.6843   -4.4539   15.4037 H   0  0  0  0  0  0
   -8.6285   -4.4348   15.7641 H   0  0  0  0  0  0
   -3.9503   -5.5605   13.1851 H   0  0  0  0  0  0
   -4.4149   -3.9326   12.6705 H   0  0  0  0  0  0
   -5.8867   -6.5610   12.1549 H   0  0  0  0  0  0
   -5.1325   -5.4846   10.9795 H   0  0  0  0  0  0
   -8.0808   -5.9538   13.2245 H   0  0  0  0  0  0
   -6.7361   -3.6725   11.6708 H   0  0  0  0  0  0
  -10.8617   -3.8206   11.7187 H   0  0  0  0  0  0
  -10.3822   -5.4736   11.9864 H   0  0  0  0  0  0
   -9.7706   -4.3748   13.9467 H   0  0  0  0  0  0
   -8.1026   -6.2708   10.8975 H   0  0  0  0  0  0
   -6.6463   -6.1178    9.0837 H   0  0  0  0  0  0
   -6.6878   -4.3521    9.0446 H   0  0  0  0  0  0
   -8.5358   -6.2292    7.7597 H   0  0  0  0  0  0
   -8.4552   -4.4873    7.5699 H   0  0  0  0  0  0
  -10.7804   -4.4767    7.6712 H   0  0  0  0  0  0
   -3.7157   -4.0477   17.6015 H   0  0  0  0  0  0
   -8.4721   -2.7749    9.1654 H   0  0  0  0  0  0
   -8.2364   -2.4240   10.8565 H   0  0  0  0  0  0
   -9.8524   -2.3515   10.1673 H   0  0  0  0  0  0
   -9.9178   -7.2729    8.8728 H   0  0  0  0  0  0
  -12.3784   -6.0560   10.2369 H   0  0  0  0  0  0
  -10.7122   -2.1198   13.9257 H   0  0  0  0  0  0
  -10.6091   -2.0651   12.1445 H   0  0  0  0  0  0
  -10.5053    0.2319   13.1095 H   0  0  0  0  0  0
   -8.9714   -0.1866   12.3088 H   0  0  0  0  0  0
   -9.0781   -0.2370   14.0644 H   0  0  0  0  0  0
  1  2  2  0  0  0
  1  4  1  0  0  0
  1 27  1  0  0  0
  2  3  1  0  0  0
  2 19  1  0  0  0
  3  6  2  0  0  0
  3 28  1  0  0  0
  4  5  2  0  0  0
  4 29  1  0  0  0
  5  6  1  0  0  0
  5  9  1  0  0  0
  6  7  1  0  0  0
  7  8  1  0  0  0
  7 30  1  0  0  0
  7 31  1  0  0  0
  8 10  1  0  0  0
  8 32  1  0  0  0
  8 33  1  0  0  0
  9 10  1  0  0  0
  9 12  1  0  0  0
  9 34  1  0  0  0
 10 14  1  0  0  0
 10 35  1  0  0  0
 11 12  1  0  0  0
 11 13  1  0  0  0
 11 36  1  0  0  0
 11 37  1  0  0  0
 12 24  1  0  0  0
 12 38  1  0  0  0
 13 14  1  0  0  0
 13 17  1  0  0  0
 13 20  1  0  0  0
 14 15  1  0  0  0
 14 39  1  0  0  0
 15 16  1  0  0  0
 15 40  1  0  0  0
 15 41  1  0  0  0
 16 17  1  0  0  0
 16 42  1  0  0  0
 16 43  1  0  0  0
 17 18  1  0  0  0
 17 21  1  0  0  0
 18 44  1  0  0  0
 19 45  1  0  0  0
 20 46  1  0  0  0
 20 47  1  0  0  0
 20 48  1  0  0  0
 21 22  2  0  0  0
 21 49  1  0  0  0
 22 23  1  0  0  0
 22 50  1  0  0  0
 24 25  1  0  0  0
 25 26  1  0  0  0
 25 51  1  0  0  0
 25 52  1  0  0  0
 26 53  1  0  0  0
 26 54  1  0  0  0
 26 55  1  0  0  0
M  END
>  <Name>
lit-131

>  <Family>
A.1

>  <RBA>
17.000000

>  <RBA_avg>
17.000000

>  <Method>
MMEC

>  <set>
0

$$$$
lit-132
  Cerius2 12180216403D 1   1.00000                          
 Structure written by MMmdl.
 50 53  0  0  0  0  0  0  0  0999 V2000
   -6.7725   -4.2113   16.7947 C   0  0  0  0  0  0
   -5.3919   -4.2144   16.6967 C   0  0  0  0  0  0
   -4.7824   -4.4432   15.4676 C   0  0  0  0  0  0
   -7.5442   -4.4261   15.6480 C   0  0  0  0  0  0
   -6.9495   -4.6314   14.3859 C   0  0  0  0  0  0
   -5.5396   -4.6729   14.3102 C   0  0  0  0  0  0
   -4.8073   -4.9110   13.0149 C   0  0  0  0  0  0
   -5.6861   -5.5130   11.9238 C   0  0  0  0  0  0
   -7.8089   -4.9012   13.1461 C   0  0  0  0  0  0
   -6.9985   -4.7318   11.8225 C   0  0  0  0  0  0
   -9.9812   -4.5002   11.8104 C   0  0  0  0  0  0
   -9.1698   -4.1290   13.0822 C   0  0  0  0  0  0
   -9.1680   -4.3953   10.4987 C   0  0  0  0  0  0
   -7.8718   -5.2204   10.6619 C   0  0  0  0  0  0
   -7.2913   -5.2522    9.2509 C   0  0  0  0  0  0
   -8.5270   -5.2959    8.3259 C   0  0  0  0  0  0
   -9.7727   -5.0811    9.2308 C   0  0  0  0  0  0
  -10.7216   -4.2401    8.5805 O   0  0  0  0  0  0
   -4.6557   -3.9970   17.8269 O   0  0  0  0  0  0
   -8.9150   -2.8923   10.1736 C   0  0  0  0  0  0
  -10.4357   -6.3762    9.5025 C   0  0  0  0  0  0
  -10.9768   -7.4294    9.7086 C   0  0  0  0  0  0
   -3.4415   -4.4475   15.4004 F   0  0  0  0  0  0
   -8.9145   -2.7169   13.1529 O   0  0  0  0  0  0
  -10.1001   -1.9273   13.1017 C   0  0  0  0  0  0
   -7.2586   -4.0466   17.7534 H   0  0  0  0  0  0
   -8.6259   -4.4333   15.7675 H   0  0  0  0  0  0
   -3.9568   -5.5823   13.1846 H   0  0  0  0  0  0
   -4.4057   -3.9502   12.6692 H   0  0  0  0  0  0
   -5.8914   -6.5681   12.1468 H   0  0  0  0  0  0
   -5.1368   -5.4872   10.9761 H   0  0  0  0  0  0
   -8.0707   -5.9683   13.2278 H   0  0  0  0  0  0
   -6.7391   -3.6760   11.6795 H   0  0  0  0  0  0
  -10.8827   -3.8833   11.7293 H   0  0  0  0  0  0
  -10.3262   -5.5308   11.9544 H   0  0  0  0  0  0
   -9.7790   -4.4183   13.9474 H   0  0  0  0  0  0
   -8.1413   -6.2619   10.9004 H   0  0  0  0  0  0
   -6.6502   -6.1256    9.0930 H   0  0  0  0  0  0
   -6.6914   -4.3591    9.0433 H   0  0  0  0  0  0
   -8.5662   -6.2523    7.7905 H   0  0  0  0  0  0
   -8.4451   -4.5146    7.5606 H   0  0  0  0  0  0
  -10.9638   -4.6986    7.7502 H   0  0  0  0  0  0
   -3.7084   -4.0372   17.5687 H   0  0  0  0  0  0
   -8.4650   -2.7449    9.1865 H   0  0  0  0  0  0
   -8.2478   -2.4019   10.8837 H   0  0  0  0  0  0
   -9.8588   -2.3343   10.1782 H   0  0  0  0  0  0
  -11.4578   -8.3643    9.8915 H   0  0  0  0  0  0
   -9.8108   -0.8767   13.1907 H   0  0  0  0  0  0
  -10.7620   -2.1758   13.9366 H   0  0  0  0  0  0
  -10.6220   -2.0605   12.1510 H   0  0  0  0  0  0
  1  2  2  0  0  0
  1  4  1  0  0  0
  1 26  1  0  0  0
  2  3  1  0  0  0
  2 19  1  0  0  0
  3  6  2  0  0  0
  3 23  1  0  0  0
  4  5  2  0  0  0
  4 27  1  0  0  0
  5  6  1  0  0  0
  5  9  1  0  0  0
  6  7  1  0  0  0
  7  8  1  0  0  0
  7 28  1  0  0  0
  7 29  1  0  0  0
  8 10  1  0  0  0
  8 30  1  0  0  0
  8 31  1  0  0  0
  9 10  1  0  0  0
  9 12  1  0  0  0
  9 32  1  0  0  0
 10 14  1  0  0  0
 10 33  1  0  0  0
 11 12  1  0  0  0
 11 13  1  0  0  0
 11 34  1  0  0  0
 11 35  1  0  0  0
 12 24  1  0  0  0
 12 36  1  0  0  0
 13 14  1  0  0  0
 13 17  1  0  0  0
 13 20  1  0  0  0
 14 15  1  0  0  0
 14 37  1  0  0  0
 15 16  1  0  0  0
 15 38  1  0  0  0
 15 39  1  0  0  0
 16 17  1  0  0  0
 16 40  1  0  0  0
 16 41  1  0  0  0
 17 18  1  0  0  0
 17 21  1  0  0  0
 18 42  1  0  0  0
 19 43  1  0  0  0
 20 44  1  0  0  0
 20 45  1  0  0  0
 20 46  1  0  0  0
 21 22  3  0  0  0
 22 47  1  0  0  0
 24 25  1  0  0  0
 25 48  1  0  0  0
 25 49  1  0  0  0
 25 50  1  0  0  0
M  END
>  <Name>
lit-132

>  <Family>
A.1

>  <RBA>
17.000000

>  <RBA_avg>
17.000000

>  <Method>
MMEC

>  <set>
1

$$$$
lit-133
  Cerius2 12180216403D 1   1.00000                          
 Structure written by MMmdl.
 50 53  0  0  0  0  0  0  0  0999 V2000
   -6.7706   -4.2096   16.7787 C   0  0  0  0  0  0
   -5.3850   -4.2144   16.6970 C   0  0  0  0  0  0
   -4.7685   -4.4453   15.4731 C   0  0  0  0  0  0
   -7.5513   -4.4219   15.6449 C   0  0  0  0  0  0
   -6.9551   -4.6300   14.3876 C   0  0  0  0  0  0
   -5.5433   -4.6726   14.3180 C   0  0  0  0  0  0
   -4.8113   -4.9109   13.0183 C   0  0  0  0  0  0
   -5.6889   -5.5138   11.9275 C   0  0  0  0  0  0
   -7.8120   -4.9018   13.1468 C   0  0  0  0  0  0
   -7.0006   -4.7318   11.8243 C   0  0  0  0  0  0
   -9.9838   -4.5047   11.8084 C   0  0  0  0  0  0
   -9.1752   -4.1331   13.0816 C   0  0  0  0  0  0
   -9.1690   -4.3964   10.4983 C   0  0  0  0  0  0
   -7.8720   -5.2200   10.6622 C   0  0  0  0  0  0
   -7.2894   -5.2494    9.2520 C   0  0  0  0  0  0
   -8.5235   -5.2926    8.3248 C   0  0  0  0  0  0
   -9.7707   -5.0809    9.2282 C   0  0  0  0  0  0
  -10.7198   -4.2401    8.5778 O   0  0  0  0  0  0
   -4.6474   -3.9983   17.8264 O   0  0  0  0  0  0
   -8.9174   -2.8925   10.1762 C   0  0  0  0  0  0
  -10.4324   -6.3773    9.4969 C   0  0  0  0  0  0
  -10.9723   -7.4318    9.7001 C   0  0  0  0  0  0
   -8.9235   -2.7206   13.1571 O   0  0  0  0  0  0
  -10.1104   -1.9329   13.1052 C   0  0  0  0  0  0
   -7.3763   -4.0036   17.9579 F   0  0  0  0  0  0
   -3.6821   -4.4568   15.4002 H   0  0  0  0  0  0
   -8.6293   -4.4243   15.7734 H   0  0  0  0  0  0
   -3.9591   -5.5798   13.1892 H   0  0  0  0  0  0
   -4.4117   -3.9489   12.6731 H   0  0  0  0  0  0
   -5.8948   -6.5685   12.1515 H   0  0  0  0  0  0
   -5.1388   -5.4890   10.9802 H   0  0  0  0  0  0
   -8.0718   -5.9694   13.2284 H   0  0  0  0  0  0
   -6.7410   -3.6760   11.6820 H   0  0  0  0  0  0
  -10.8870   -3.8904   11.7265 H   0  0  0  0  0  0
  -10.3262   -5.5364   11.9507 H   0  0  0  0  0  0
   -9.7843   -4.4258   13.9458 H   0  0  0  0  0  0
   -8.1407   -6.2621   10.8991 H   0  0  0  0  0  0
   -6.6475   -6.1221    9.0939 H   0  0  0  0  0  0
   -6.6899   -4.3555    9.0466 H   0  0  0  0  0  0
   -8.5609   -6.2480    7.7875 H   0  0  0  0  0  0
   -8.4413   -4.5097    7.5613 H   0  0  0  0  0  0
  -10.9599   -4.6974    7.7462 H   0  0  0  0  0  0
   -3.6968   -4.0367   17.5881 H   0  0  0  0  0  0
   -8.4654   -2.7428    9.1903 H   0  0  0  0  0  0
   -8.2524   -2.4024   10.8886 H   0  0  0  0  0  0
   -9.8619   -2.3358   10.1795 H   0  0  0  0  0  0
  -11.4520   -8.3678    9.8805 H   0  0  0  0  0  0
   -9.8236   -0.8825   13.2047 H   0  0  0  0  0  0
  -10.7771   -2.1894   13.9340 H   0  0  0  0  0  0
  -10.6260   -2.0588   12.1502 H   0  0  0  0  0  0
  1  2  2  0  0  0
  1  4  1  0  0  0
  1 25  1  0  0  0
  2  3  1  0  0  0
  2 19  1  0  0  0
  3  6  2  0  0  0
  3 26  1  0  0  0
  4  5  2  0  0  0
  4 27  1  0  0  0
  5  6  1  0  0  0
  5  9  1  0  0  0
  6  7  1  0  0  0
  7  8  1  0  0  0
  7 28  1  0  0  0
  7 29  1  0  0  0
  8 10  1  0  0  0
  8 30  1  0  0  0
  8 31  1  0  0  0
  9 10  1  0  0  0
  9 12  1  0  0  0
  9 32  1  0  0  0
 10 14  1  0  0  0
 10 33  1  0  0  0
 11 12  1  0  0  0
 11 13  1  0  0  0
 11 34  1  0  0  0
 11 35  1  0  0  0
 12 23  1  0  0  0
 12 36  1  0  0  0
 13 14  1  0  0  0
 13 17  1  0  0  0
 13 20  1  0  0  0
 14 15  1  0  0  0
 14 37  1  0  0  0
 15 16  1  0  0  0
 15 38  1  0  0  0
 15 39  1  0  0  0
 16 17  1  0  0  0
 16 40  1  0  0  0
 16 41  1  0  0  0
 17 18  1  0  0  0
 17 21  1  0  0  0
 18 42  1  0  0  0
 19 43  1  0  0  0
 20 44  1  0  0  0
 20 45  1  0  0  0
 20 46  1  0  0  0
 21 22  3  0  0  0
 22 47  1  0  0  0
 23 24  1  0  0  0
 24 48  1  0  0  0
 24 49  1  0  0  0
 24 50  1  0  0  0
M  END
>  <Name>
lit-133

>  <Family>
A.1

>  <RBA>
16.000000

>  <RBA_avg>
16.000000

>  <Method>
MMEC

>  <set>
0

$$$$
lit-134
  Cerius2 12180216403D 1   1.00000                          
 Structure written by MMmdl.
 50 53  0  0  0  0  0  0  0  0999 V2000
   -6.7706   -4.2144   16.7901 C   0  0  0  0  0  0
   -5.3887   -4.2211   16.6934 C   0  0  0  0  0  0
   -4.7689   -4.4461   15.4710 C   0  0  0  0  0  0
   -7.5453   -4.4232   15.6464 C   0  0  0  0  0  0
   -6.9504   -4.6260   14.3869 C   0  0  0  0  0  0
   -5.5404   -4.6691   14.3150 C   0  0  0  0  0  0
   -4.8088   -4.9038   13.0152 C   0  0  0  0  0  0
   -5.6864   -5.5088   11.9254 C   0  0  0  0  0  0
   -7.8088   -4.8945   13.1462 C   0  0  0  0  0  0
   -6.9988   -4.7280   11.8224 C   0  0  0  0  0  0
   -9.9817   -4.4977   11.8101 C   0  0  0  0  0  0
   -9.1700   -4.1228   13.0809 C   0  0  0  0  0  0
   -9.1687   -4.3957   10.4980 C   0  0  0  0  0  0
   -7.8720   -5.2195   10.6629 C   0  0  0  0  0  0
   -7.2918   -5.2545    9.2520 C   0  0  0  0  0  0
   -8.5275   -5.3013    8.3272 C   0  0  0  0  0  0
   -9.7731   -5.0850    9.2318 C   0  0  0  0  0  0
  -10.7226   -4.2461    8.5796 O   0  0  0  0  0  0
   -4.6638   -4.0092   17.8284 O   0  0  0  0  0  0
   -8.9166   -2.8933   10.1691 C   0  0  0  0  0  0
  -10.4353   -6.3797    9.5069 C   0  0  0  0  0  0
  -10.9757   -7.4328    9.7153 C   0  0  0  0  0  0
   -8.9172   -2.7099   13.1475 O   0  0  0  0  0  0
  -10.1044   -1.9229   13.0946 C   0  0  0  0  0  0
   -7.2553   -4.0514   17.7500 H   0  0  0  0  0  0
   -3.6824   -4.4566   15.4013 H   0  0  0  0  0  0
   -8.6264   -4.4283   15.7667 H   0  0  0  0  0  0
   -3.9546   -5.5705   13.1846 H   0  0  0  0  0  0
   -4.4123   -3.9406   12.6701 H   0  0  0  0  0  0
   -5.8913   -6.5635   12.1505 H   0  0  0  0  0  0
   -5.1370   -5.4844   10.9777 H   0  0  0  0  0  0
   -8.0713   -5.9614   13.2286 H   0  0  0  0  0  0
   -6.7396   -3.6723   11.6771 H   0  0  0  0  0  0
  -10.8835   -3.8814   11.7277 H   0  0  0  0  0  0
  -10.3260   -5.5282   11.9567 H   0  0  0  0  0  0
   -9.7790   -4.4106   13.9468 H   0  0  0  0  0  0
   -8.1409   -6.2606   10.9039 H   0  0  0  0  0  0
   -6.6500   -6.1278    9.0962 H   0  0  0  0  0  0
   -6.6924   -4.3614    9.0420 H   0  0  0  0  0  0
   -8.5662   -6.2590    7.7943 H   0  0  0  0  0  0
   -8.4462   -4.5219    7.5600 H   0  0  0  0  0  0
  -10.9646   -4.7067    7.7504 H   0  0  0  0  0  0
   -3.7108   -4.0451   17.5983 H   0  0  0  0  0  0
   -8.4672   -2.7481    9.1814 H   0  0  0  0  0  0
   -8.2491   -2.4010   10.8776 H   0  0  0  0  0  0
   -9.8606   -2.3358   10.1727 H   0  0  0  0  0  0
  -11.4562   -8.3677    9.9005 H   0  0  0  0  0  0
   -9.8170   -0.8714   13.1789 H   0  0  0  0  0  0
  -10.7644   -2.1691   13.9316 H   0  0  0  0  0  0
  -10.6275   -2.0611   12.1454 H   0  0  0  0  0  0
  1  2  2  0  0  0
  1  4  1  0  0  0
  1 25  1  0  0  0
  2  3  1  0  0  0
  2 19  1  0  0  0
  3  6  2  0  0  0
  3 26  1  0  0  0
  4  5  2  0  0  0
  4 27  1  0  0  0
  5  6  1  0  0  0
  5  9  1  0  0  0
  6  7  1  0  0  0
  7  8  1  0  0  0
  7 28  1  0  0  0
  7 29  1  0  0  0
  8 10  1  0  0  0
  8 30  1  0  0  0
  8 31  1  0  0  0
  9 10  1  0  0  0
  9 12  1  0  0  0
  9 32  1  0  0  0
 10 14  1  0  0  0
 10 33  1  0  0  0
 11 12  1  0  0  0
 11 13  1  0  0  0
 11 34  1  0  0  0
 11 35  1  0  0  0
 12 23  1  0  0  0
 12 36  1  0  0  0
 13 14  1  0  0  0
 13 17  1  0  0  0
 13 20  1  0  0  0
 14 15  1  0  0  0
 14 37  1  0  0  0
 15 16  1  0  0  0
 15 38  1  0  0  0
 15 39  1  0  0  0
 16 17  1  0  0  0
 16 40  1  0  0  0
 16 41  1  0  0  0
 17 18  1  0  0  0
 17 21  1  0  0  0
 18 42  1  0  0  0
 19 43  1  0  0  0
 20 44  1  0  0  0
 20 45  1  0  0  0
 20 46  1  0  0  0
 21 22  3  0  0  0
 22 47  1  0  0  0
 23 24  1  0  0  0
 24 48  1  0  0  0
 24 49  1  0  0  0
 24 50  1  0  0  0
M  END
>  <Name>
lit-134

>  <Family>
A.1

>  <RBA>
15.000000

>  <RBA_avg>
15.000000

>  <Method>
MMEC

>  <set>
0

$$$$
lit-135
  Cerius2 12180216403D 1   1.00000                          
 Structure written by MMmdl.
 52 55  0  0  0  0  0  0  0  0999 V2000
   -6.7738   -4.2206   16.7798 C   0  0  0  0  0  0
   -5.3881   -4.2219   16.6994 C   0  0  0  0  0  0
   -4.7701   -4.4438   15.4749 C   0  0  0  0  0  0
   -7.5529   -4.4276   15.6440 C   0  0  0  0  0  0
   -6.9554   -4.6261   14.3857 C   0  0  0  0  0  0
   -5.5434   -4.6660   14.3176 C   0  0  0  0  0  0
   -4.8097   -4.8972   13.0177 C   0  0  0  0  0  0
   -5.6845   -5.5067   11.9288 C   0  0  0  0  0  0
   -7.8120   -4.8906   13.1426 C   0  0  0  0  0  0
   -6.9978   -4.7277   11.8209 C   0  0  0  0  0  0
   -9.9882   -4.4740   11.8099 C   0  0  0  0  0  0
   -9.1655   -4.1056   13.0764 C   0  0  0  0  0  0
   -9.1729   -4.4248   10.4990 C   0  0  0  0  0  0
   -7.8660   -5.2266   10.6607 C   0  0  0  0  0  0
   -7.2869   -5.2461    9.2481 C   0  0  0  0  0  0
   -8.5206   -5.2830    8.3179 C   0  0  0  0  0  0
   -9.7822   -5.1189    9.2262 C   0  0  0  0  0  0
  -10.7202   -4.2247    8.6128 O   0  0  0  0  0  0
   -4.6521   -4.0113   17.8310 O   0  0  0  0  0  0
   -8.9127   -2.9170   10.1584 C   0  0  0  0  0  0
  -10.5081   -6.4518    9.2774 C   0  0  0  0  0  0
  -11.7148   -6.7755    9.7650 C   0  0  0  0  0  0
  -12.4420   -8.6953    9.7191 I   0  0  0  0  0  0
   -8.8944   -2.6957   13.1399 O   0  0  0  0  0  0
  -10.0712   -1.8930   13.0861 C   0  0  0  0  0  0
   -7.3811   -4.0236   17.9598 F   0  0  0  0  0  0
   -3.6836   -4.4530   15.4029 H   0  0  0  0  0  0
   -8.6311   -4.4339   15.7718 H   0  0  0  0  0  0
   -3.9525   -5.5598   13.1875 H   0  0  0  0  0  0
   -4.4177   -3.9320   12.6728 H   0  0  0  0  0  0
   -5.8884   -6.5609   12.1572 H   0  0  0  0  0  0
   -5.1339   -5.4846   10.9817 H   0  0  0  0  0  0
   -8.0829   -5.9554   13.2240 H   0  0  0  0  0  0
   -6.7385   -3.6727   11.6726 H   0  0  0  0  0  0
  -10.8649   -3.8239   11.7154 H   0  0  0  0  0  0
  -10.3836   -5.4760   11.9824 H   0  0  0  0  0  0
   -9.7754   -4.3824   13.9452 H   0  0  0  0  0  0
   -8.1034   -6.2712   10.8972 H   0  0  0  0  0  0
   -6.6461   -6.1189    9.0850 H   0  0  0  0  0  0
   -6.6846   -4.3532    9.0470 H   0  0  0  0  0  0
   -8.5324   -6.2252    7.7561 H   0  0  0  0  0  0
   -8.4510   -4.4830    7.5710 H   0  0  0  0  0  0
  -10.7769   -4.4744    7.6681 H   0  0  0  0  0  0
   -3.7013   -4.0471   17.5936 H   0  0  0  0  0  0
   -8.4648   -2.7742    9.1700 H   0  0  0  0  0  0
   -8.2423   -2.4238   10.8634 H   0  0  0  0  0  0
   -9.8531   -2.3530   10.1621 H   0  0  0  0  0  0
   -9.9145   -7.2716    8.8673 H   0  0  0  0  0  0
  -12.3779   -6.0582   10.2296 H   0  0  0  0  0  0
   -9.7695   -0.8451   13.1650 H   0  0  0  0  0  0
  -10.7321   -2.1267   13.9261 H   0  0  0  0  0  0
  -10.5991   -2.0284   12.1391 H   0  0  0  0  0  0
  1  2  2  0  0  0
  1  4  1  0  0  0
  1 26  1  0  0  0
  2  3  1  0  0  0
  2 19  1  0  0  0
  3  6  2  0  0  0
  3 27  1  0  0  0
  4  5  2  0  0  0
  4 28  1  0  0  0
  5  6  1  0  0  0
  5  9  1  0  0  0
  6  7  1  0  0  0
  7  8  1  0  0  0
  7 29  1  0  0  0
  7 30  1  0  0  0
  8 10  1  0  0  0
  8 31  1  0  0  0
  8 32  1  0  0  0
  9 10  1  0  0  0
  9 12  1  0  0  0
  9 33  1  0  0  0
 10 14  1  0  0  0
 10 34  1  0  0  0
 11 12  1  0  0  0
 11 13  1  0  0  0
 11 35  1  0  0  0
 11 36  1  0  0  0
 12 24  1  0  0  0
 12 37  1  0  0  0
 13 14  1  0  0  0
 13 17  1  0  0  0
 13 20  1  0  0  0
 14 15  1  0  0  0
 14 38  1  0  0  0
 15 16  1  0  0  0
 15 39  1  0  0  0
 15 40  1  0  0  0
 16 17  1  0  0  0
 16 41  1  0  0  0
 16 42  1  0  0  0
 17 18  1  0  0  0
 17 21  1  0  0  0
 18 43  1  0  0  0
 19 44  1  0  0  0
 20 45  1  0  0  0
 20 46  1  0  0  0
 20 47  1  0  0  0
 21 22  2  0  0  0
 21 48  1  0  0  0
 22 23  1  0  0  0
 22 49  1  0  0  0
 24 25  1  0  0  0
 25 50  1  0  0  0
 25 51  1  0  0  0
 25 52  1  0  0  0
M  END
>  <Name>
lit-135

>  <Family>
A.1

>  <RBA>
13.000000

>  <RBA_avg>
13.000000

>  <Method>
MMEC

>  <set>
0

$$$$
lit-136
  Cerius2 12180216403D 1   1.00000                          
 Structure written by MMmdl.
 51 54  0  0  0  0  0  0  0  0999 V2000
   -6.7905   -4.1774   16.7575 C   0  0  0  0  0  0
   -5.4053   -4.1510   16.6765 C   0  0  0  0  0  0
   -4.7822   -4.3972   15.4590 C   0  0  0  0  0  0
   -7.5641   -4.4363   15.6288 C   0  0  0  0  0  0
   -6.9621   -4.6626   14.3774 C   0  0  0  0  0  0
   -5.5498   -4.6725   14.3088 C   0  0  0  0  0  0
   -4.8058   -4.9211   13.0152 C   0  0  0  0  0  0
   -5.6490   -5.5787   11.9123 C   0  0  0  0  0  0
   -7.8139   -4.9866   13.1504 C   0  0  0  0  0  0
   -7.0012   -4.8398   11.8277 C   0  0  0  0  0  0
   -9.9884   -4.5299   11.8190 C   0  0  0  0  0  0
   -9.1462   -4.1923   13.0669 C   0  0  0  0  0  0
   -9.1704   -4.4383   10.5199 C   0  0  0  0  0  0
   -7.8852   -5.2832   10.6551 C   0  0  0  0  0  0
   -7.2978   -5.2645    9.2452 C   0  0  0  0  0  0
   -8.5186   -5.1809    8.3031 C   0  0  0  0  0  0
   -9.7836   -5.0433    9.2071 C   0  0  0  0  0  0
  -10.6966   -4.0979    8.6350 O   0  0  0  0  0  0
   -4.6741   -3.8889   17.8005 O   0  0  0  0  0  0
   -8.8702   -2.9176   10.2866 C   0  0  0  0  0  0
  -10.5348   -6.3628    9.1776 C   0  0  0  0  0  0
  -11.7500   -6.6905    9.6400 C   0  0  0  0  0  0
  -12.5140   -8.5897    9.4803 I   0  0  0  0  0  0
   -7.4023   -3.9577   17.9311 F   0  0  0  0  0  0
   -5.7525   -7.0934   12.1252 C   0  0  0  0  0  0
   -3.6959   -4.3831   15.3871 H   0  0  0  0  0  0
   -8.6420   -4.4658   15.7566 H   0  0  0  0  0  0
   -3.9154   -5.5324   13.2095 H   0  0  0  0  0  0
   -4.4512   -3.9465   12.6534 H   0  0  0  0  0  0
   -5.1086   -5.4328   10.9677 H   0  0  0  0  0  0
   -8.0952   -6.0437   13.2625 H   0  0  0  0  0  0
   -6.7507   -3.7792   11.6924 H   0  0  0  0  0  0
  -10.8561   -3.8603   11.7734 H   0  0  0  0  0  0
  -10.3970   -5.5299   11.9701 H   0  0  0  0  0  0
   -8.9401   -3.1161   13.1058 H   0  0  0  0  0  0
   -9.7740   -4.4071   13.9392 H   0  0  0  0  0  0
   -8.1632   -6.3235   10.8572 H   0  0  0  0  0  0
   -6.7062   -6.1638    9.0440 H   0  0  0  0  0  0
   -6.6422   -4.3998    9.0922 H   0  0  0  0  0  0
   -8.5571   -6.0698    7.6615 H   0  0  0  0  0  0
   -8.4112   -4.3231    7.6279 H   0  0  0  0  0  0
  -10.7511   -4.2969    7.6781 H   0  0  0  0  0  0
   -3.7227   -3.9104   17.5634 H   0  0  0  0  0  0
   -8.2999   -2.7317    9.3717 H   0  0  0  0  0  0
   -8.3052   -2.4618   11.1032 H   0  0  0  0  0  0
   -9.8041   -2.3486   10.2037 H   0  0  0  0  0  0
   -9.9549   -7.1681    8.7219 H   0  0  0  0  0  0
  -12.4016   -5.9884   10.1424 H   0  0  0  0  0  0
   -6.3158   -7.5720   11.3187 H   0  0  0  0  0  0
   -6.2288   -7.3523   13.0751 H   0  0  0  0  0  0
   -4.7534   -7.5436   12.1294 H   0  0  0  0  0  0
  1  2  2  0  0  0
  1  4  1  0  0  0
  1 24  1  0  0  0
  2  3  1  0  0  0
  2 19  1  0  0  0
  3  6  2  0  0  0
  3 26  1  0  0  0
  4  5  2  0  0  0
  4 27  1  0  0  0
  5  6  1  0  0  0
  5  9  1  0  0  0
  6  7  1  0  0  0
  7  8  1  0  0  0
  7 28  1  0  0  0
  7 29  1  0  0  0
  8 10  1  0  0  0
  8 25  1  0  0  0
  8 30  1  0  0  0
  9 10  1  0  0  0
  9 12  1  0  0  0
  9 31  1  0  0  0
 10 14  1  0  0  0
 10 32  1  0  0  0
 11 12  1  0  0  0
 11 13  1  0  0  0
 11 33  1  0  0  0
 11 34  1  0  0  0
 12 35  1  0  0  0
 12 36  1  0  0  0
 13 14  1  0  0  0
 13 17  1  0  0  0
 13 20  1  0  0  0
 14 15  1  0  0  0
 14 37  1  0  0  0
 15 16  1  0  0  0
 15 38  1  0  0  0
 15 39  1  0  0  0
 16 17  1  0  0  0
 16 40  1  0  0  0
 16 41  1  0  0  0
 17 18  1  0  0  0
 17 21  1  0  0  0
 18 42  1  0  0  0
 19 43  1  0  0  0
 20 44  1  0  0  0
 20 45  1  0  0  0
 20 46  1  0  0  0
 21 22  2  0  0  0
 21 47  1  0  0  0
 22 23  1  0  0  0
 22 48  1  0  0  0
 25 49  1  0  0  0
 25 50  1  0  0  0
 25 51  1  0  0  0
M  END
>  <Name>
lit-136

>  <Family>
A.1

>  <RBA>
12.000000

>  <RBA_avg>
12.000000

>  <Method>
MMEC

>  <set>
0

$$$$
lit-137
  Cerius2 12180216403D 1   1.00000                          
 Structure written by MMmdl.
 51 54  0  0  0  0  0  0  0  0999 V2000
   -6.7802   -4.2166   16.7851 C   0  0  0  0  0  0
   -5.3979   -4.2292   16.6940 C   0  0  0  0  0  0
   -4.7740   -4.4563   15.4739 C   0  0  0  0  0  0
   -7.5511   -4.4225   15.6385 C   0  0  0  0  0  0
   -6.9519   -4.6277   14.3815 C   0  0  0  0  0  0
   -5.5417   -4.6754   14.3147 C   0  0  0  0  0  0
   -4.8056   -4.9099   13.0172 C   0  0  0  0  0  0
   -5.6808   -5.5040   11.9193 C   0  0  0  0  0  0
   -7.8059   -4.8927   13.1372 C   0  0  0  0  0  0
   -6.9896   -4.7184   11.8172 C   0  0  0  0  0  0
   -9.9709   -4.4801   11.7884 C   0  0  0  0  0  0
   -9.1690   -4.1233   13.0697 C   0  0  0  0  0  0
   -9.1438   -4.3551   10.4945 C   0  0  0  0  0  0
   -7.8630   -5.1981   10.6559 C   0  0  0  0  0  0
   -7.2919   -5.2487    9.2423 C   0  0  0  0  0  0
   -8.5431   -5.3261    8.3459 C   0  0  0  0  0  0
   -9.7531   -5.0749    9.2709 C   0  0  0  0  0  0
  -10.7640   -4.3181    8.6236 O   0  0  0  0  0  0
   -4.6766   -4.0205   17.8318 O   0  0  0  0  0  0
   -8.9008   -2.8625   10.1505 C   0  0  0  0  0  0
   -8.9127   -2.7116   13.1446 O   0  0  0  0  0  0
  -10.0981   -1.9161   13.0909 C   0  0  0  0  0  0
   -9.6902   -0.4598   13.1930 C   0  0  0  0  0  0
   -7.2679   -4.0516   17.7432 H   0  0  0  0  0  0
   -3.6873   -4.4708   15.4085 H   0  0  0  0  0  0
   -8.6328   -4.4229   15.7542 H   0  0  0  0  0  0
   -3.9564   -5.5826   13.1879 H   0  0  0  0  0  0
   -4.4012   -3.9475   12.6784 H   0  0  0  0  0  0
   -5.8900   -6.5595   12.1361 H   0  0  0  0  0  0
   -5.1281   -5.4745   10.9737 H   0  0  0  0  0  0
   -8.0671   -5.9603   13.2140 H   0  0  0  0  0  0
   -6.7291   -3.6619   11.6796 H   0  0  0  0  0  0
  -10.8714   -3.8618   11.7075 H   0  0  0  0  0  0
  -10.3186   -5.5166   11.8932 H   0  0  0  0  0  0
   -9.7839   -4.4176   13.9289 H   0  0  0  0  0  0
   -8.1566   -6.2349   10.8936 H   0  0  0  0  0  0
   -6.6412   -6.1157    9.0906 H   0  0  0  0  0  0
   -6.7093   -4.3499    9.0120 H   0  0  0  0  0  0
   -8.6276   -6.3153    7.8821 H   0  0  0  0  0  0
   -8.4857   -4.5960    7.5309 H   0  0  0  0  0  0
  -10.1924   -6.0357    9.5677 H   0  0  0  0  0  0
  -11.0222   -4.8294    7.8277 H   0  0  0  0  0  0
   -3.7228   -4.0599   17.6054 H   0  0  0  0  0  0
   -8.4523   -2.7289    9.1606 H   0  0  0  0  0  0
   -8.2369   -2.3613   10.8567 H   0  0  0  0  0  0
   -9.8475   -2.3098   10.1460 H   0  0  0  0  0  0
  -10.7550   -2.1756   13.9280 H   0  0  0  0  0  0
  -10.6291   -2.0840   12.1496 H   0  0  0  0  0  0
  -10.5661    0.1942   13.1613 H   0  0  0  0  0  0
   -9.0174   -0.1901   12.3721 H   0  0  0  0  0  0
   -9.1453   -0.2765   14.1249 H   0  0  0  0  0  0
  1  2  2  0  0  0
  1  4  1  0  0  0
  1 24  1  0  0  0
  2  3  1  0  0  0
  2 19  1  0  0  0
  3  6  2  0  0  0
  3 25  1  0  0  0
  4  5  2  0  0  0
  4 26  1  0  0  0
  5  6  1  0  0  0
  5  9  1  0  0  0
  6  7  1  0  0  0
  7  8  1  0  0  0
  7 27  1  0  0  0
  7 28  1  0  0  0
  8 10  1  0  0  0
  8 29  1  0  0  0
  8 30  1  0  0  0
  9 10  1  0  0  0
  9 12  1  0  0  0
  9 31  1  0  0  0
 10 14  1  0  0  0
 10 32  1  0  0  0
 11 12  1  0  0  0
 11 13  1  0  0  0
 11 33  1  0  0  0
 11 34  1  0  0  0
 12 21  1  0  0  0
 12 35  1  0  0  0
 13 14  1  0  0  0
 13 17  1  0  0  0
 13 20  1  0  0  0
 14 15  1  0  0  0
 14 36  1  0  0  0
 15 16  1  0  0  0
 15 37  1  0  0  0
 15 38  1  0  0  0
 16 17  1  0  0  0
 16 39  1  0  0  0
 16 40  1  0  0  0
 17 18  1  0  0  0
 17 41  1  0  0  0
 18 42  1  0  0  0
 19 43  1  0  0  0
 20 44  1  0  0  0
 20 45  1  0  0  0
 20 46  1  0  0  0
 21 22  1  0  0  0
 22 23  1  0  0  0
 22 47  1  0  0  0
 22 48  1  0  0  0
 23 49  1  0  0  0
 23 50  1  0  0  0
 23 51  1  0  0  0
M  END
>  <Name>
lit-137

>  <Family>
A.1

>  <RBA>
10,10

>  <RBA_avg>
10.000000

>  <Method>
MMEC,MUC

>  <set>
2

$$$$
lit-138
  Cerius2 12180216403D 1   1.00000                          
 Structure written by MMmdl.
 48 51  0  0  0  0  0  0  0  0999 V2000
   -6.7826   -4.1057   16.7391 C   0  0  0  0  0  0
   -5.3967   -4.1312   16.6640 C   0  0  0  0  0  0
   -4.7782   -4.4346   15.4573 C   0  0  0  0  0  0
   -7.5616   -4.3716   15.6156 C   0  0  0  0  0  0
   -6.9634   -4.6585   14.3755 C   0  0  0  0  0  0
   -5.5513   -4.7154   14.3126 C   0  0  0  0  0  0
   -4.8146   -5.0206   13.0282 C   0  0  0  0  0  0
   -5.6979   -5.6090   11.9329 C   0  0  0  0  0  0
   -7.8119   -4.9949   13.1489 C   0  0  0  0  0  0
   -7.0008   -4.8121   11.8309 C   0  0  0  0  0  0
   -9.9951   -4.5969   11.8152 C   0  0  0  0  0  0
   -9.1729   -4.2541   13.0745 C   0  0  0  0  0  0
   -9.1726   -4.4510   10.5242 C   0  0  0  0  0  0
   -7.8652   -5.2602   10.6486 C   0  0  0  0  0  0
   -7.2713   -5.1959    9.2423 C   0  0  0  0  0  0
   -8.4885   -5.1215    8.2949 C   0  0  0  0  0  0
   -9.7613   -5.0407    9.1942 C   0  0  0  0  0  0
  -10.6968   -4.1067    8.6398 O   0  0  0  0  0  0
   -4.6610   -3.8618   17.7831 O   0  0  0  0  0  0
   -8.9113   -2.9177   10.3303 C   0  0  0  0  0  0
  -10.4760   -6.3788    9.1291 C   0  0  0  0  0  0
  -11.6846   -6.7493    9.5765 C   0  0  0  0  0  0
  -12.3971   -8.6635    9.3673 I   0  0  0  0  0  0
   -7.3901   -3.8278   17.9027 F   0  0  0  0  0  0
   -3.6918   -4.4599   15.3889 H   0  0  0  0  0  0
   -8.6401   -4.3554   15.7399 H   0  0  0  0  0  0
   -3.9936   -5.7194   13.2290 H   0  0  0  0  0  0
   -4.3697   -4.0849   12.6659 H   0  0  0  0  0  0
   -5.9168   -6.6616   12.1544 H   0  0  0  0  0  0
   -5.1456   -5.5908   10.9866 H   0  0  0  0  0  0
   -8.0459   -6.0661   13.2503 H   0  0  0  0  0  0
   -6.7285   -3.7561   11.7091 H   0  0  0  0  0  0
  -10.8858   -3.9577   11.7766 H   0  0  0  0  0  0
  -10.3683   -5.6138   11.9443 H   0  0  0  0  0  0
   -9.0115   -3.1714   13.1377 H   0  0  0  0  0  0
   -9.7945   -4.5151   13.9388 H   0  0  0  0  0  0
   -8.1011   -6.3159   10.8309 H   0  0  0  0  0  0
   -6.6578   -6.0767    9.0250 H   0  0  0  0  0  0
   -6.6356   -4.3130    9.1122 H   0  0  0  0  0  0
   -8.4995   -5.9947    7.6309 H   0  0  0  0  0  0
   -8.4006   -4.2445    7.6419 H   0  0  0  0  0  0
  -10.7400   -4.2830    7.6778 H   0  0  0  0  0  0
   -3.7100   -3.9245   17.5516 H   0  0  0  0  0  0
   -8.3483   -2.6937    9.4193 H   0  0  0  0  0  0
   -8.3541   -2.4707   11.1571 H   0  0  0  0  0  0
   -9.8592   -2.3703   10.2643 H   0  0  0  0  0  0
   -9.8722   -7.1573    8.6581 H   0  0  0  0  0  0
  -12.3568   -6.0763   10.0914 H   0  0  0  0  0  0
  1  2  2  0  0  0
  1  4  1  0  0  0
  1 24  1  0  0  0
  2  3  1  0  0  0
  2 19  1  0  0  0
  3  6  2  0  0  0
  3 25  1  0  0  0
  4  5  2  0  0  0
  4 26  1  0  0  0
  5  6  1  0  0  0
  5  9  1  0  0  0
  6  7  1  0  0  0
  7  8  1  0  0  0
  7 27  1  0  0  0
  7 28  1  0  0  0
  8 10  1  0  0  0
  8 29  1  0  0  0
  8 30  1  0  0  0
  9 10  1  0  0  0
  9 12  1  0  0  0
  9 31  1  0  0  0
 10 14  1  0  0  0
 10 32  1  0  0  0
 11 12  1  0  0  0
 11 13  1  0  0  0
 11 33  1  0  0  0
 11 34  1  0  0  0
 12 35  1  0  0  0
 12 36  1  0  0  0
 13 14  1  0  0  0
 13 17  1  0  0  0
 13 20  1  0  0  0
 14 15  1  0  0  0
 14 37  1  0  0  0
 15 16  1  0  0  0
 15 38  1  0  0  0
 15 39  1  0  0  0
 16 17  1  0  0  0
 16 40  1  0  0  0
 16 41  1  0  0  0
 17 18  1  0  0  0
 17 21  1  0  0  0
 18 42  1  0  0  0
 19 43  1  0  0  0
 20 44  1  0  0  0
 20 45  1  0  0  0
 20 46  1  0  0  0
 21 22  2  0  0  0
 21 47  1  0  0  0
 22 23  1  0  0  0
 22 48  1  0  0  0
M  END
>  <Name>
lit-138

>  <Family>
A.1

>  <RBA>
6.200000

>  <RBA_avg>
6.200000

>  <Method>
MMEC

>  <set>
0

$$$$
lit-139
  Cerius2 12180216403D 1   1.00000                          
 Structure written by MMmdl.
 44 47  0  0  0  0  0  0  0  0999 V2000
   -6.7999   -4.1017   16.7366 C   0  0  0  0  0  0
   -5.4168   -4.1142   16.6656 C   0  0  0  0  0  0
   -4.7691   -4.4261   15.4653 C   0  0  0  0  0  0
   -7.5512   -4.3872   15.5974 C   0  0  0  0  0  0
   -6.9364   -4.6808   14.3647 C   0  0  0  0  0  0
   -5.5183   -4.7365   14.3059 C   0  0  0  0  0  0
   -4.8070   -5.0733   13.0103 C   0  0  0  0  0  0
   -5.7021   -5.6304   11.9075 C   0  0  0  0  0  0
   -7.7914   -5.0161   13.1387 C   0  0  0  0  0  0
   -6.9893   -4.8153   11.8204 C   0  0  0  0  0  0
   -9.9724   -4.6017   11.7994 C   0  0  0  0  0  0
   -9.1647   -4.2916   13.0745 C   0  0  0  0  0  0
   -9.1434   -4.3765   10.5291 C   0  0  0  0  0  0
   -7.8654   -5.2322   10.6387 C   0  0  0  0  0  0
   -7.2855   -5.1879    9.2275 C   0  0  0  0  0  0
   -8.5254   -5.1588    8.3148 C   0  0  0  0  0  0
   -9.7422   -4.9851    9.2449 C   0  0  0  0  0  0
  -10.7443   -4.1731    8.6531 O   0  0  0  0  0  0
   -4.7369   -3.8134   17.8150 O   0  0  0  0  0  0
   -8.8933   -2.8582   10.3425 C   0  0  0  0  0  0
   -2.8597   -4.4040   15.4506 Br  0  0  0  0  0  0
   -7.3024   -3.8709   17.6732 H   0  0  0  0  0  0
   -8.6344   -4.3792   15.7004 H   0  0  0  0  0  0
   -4.0215   -5.8152   13.1941 H   0  0  0  0  0  0
   -4.3284   -4.1570   12.6412 H   0  0  0  0  0  0
   -5.9354   -6.6832   12.1132 H   0  0  0  0  0  0
   -5.1507   -5.6073   10.9610 H   0  0  0  0  0  0
   -8.0149   -6.0901   13.2343 H   0  0  0  0  0  0
   -6.7082   -3.7596   11.7148 H   0  0  0  0  0  0
  -10.8824   -3.9900   11.7819 H   0  0  0  0  0  0
  -10.3056   -5.6468   11.8479 H   0  0  0  0  0  0
   -9.0169   -3.2090   13.1688 H   0  0  0  0  0  0
   -9.7893   -4.5889   13.9247 H   0  0  0  0  0  0
   -8.1595   -6.2809   10.8133 H   0  0  0  0  0  0
   -6.6566   -6.0585    9.0149 H   0  0  0  0  0  0
   -6.6750   -4.2915    9.0715 H   0  0  0  0  0  0
   -8.6157   -6.0929    7.7492 H   0  0  0  0  0  0
   -8.4492   -4.3488    7.5807 H   0  0  0  0  0  0
  -10.1862   -5.9664    9.4553 H   0  0  0  0  0  0
  -10.9971   -4.6165    7.8158 H   0  0  0  0  0  0
   -3.7793   -3.8641   17.6045 H   0  0  0  0  0  0
   -8.3267   -2.6364    9.4327 H   0  0  0  0  0  0
   -8.3430   -2.4139   11.1760 H   0  0  0  0  0  0
   -9.8444   -2.3181   10.2684 H   0  0  0  0  0  0
  1  2  2  0  0  0
  1  4  1  0  0  0
  1 22  1  0  0  0
  2  3  1  0  0  0
  2 19  1  0  0  0
  3  6  2  0  0  0
  3 21  1  0  0  0
  4  5  2  0  0  0
  4 23  1  0  0  0
  5  6  1  0  0  0
  5  9  1  0  0  0
  6  7  1  0  0  0
  7  8  1  0  0  0
  7 24  1  0  0  0
  7 25  1  0  0  0
  8 10  1  0  0  0
  8 26  1  0  0  0
  8 27  1  0  0  0
  9 10  1  0  0  0
  9 12  1  0  0  0
  9 28  1  0  0  0
 10 14  1  0  0  0
 10 29  1  0  0  0
 11 12  1  0  0  0
 11 13  1  0  0  0
 11 30  1  0  0  0
 11 31  1  0  0  0
 12 32  1  0  0  0
 12 33  1  0  0  0
 13 14  1  0  0  0
 13 17  1  0  0  0
 13 20  1  0  0  0
 14 15  1  0  0  0
 14 34  1  0  0  0
 15 16  1  0  0  0
 15 35  1  0  0  0
 15 36  1  0  0  0
 16 17  1  0  0  0
 16 37  1  0  0  0
 16 38  1  0  0  0
 17 18  1  0  0  0
 17 39  1  0  0  0
 18 40  1  0  0  0
 19 41  1  0  0  0
 20 42  1  0  0  0
 20 43  1  0  0  0
 20 44  1  0  0  0
M  END
>  <Name>
lit-139

>  <Family>
A.1

>  <RBA>
5.000000

>  <RBA_avg>
5.000000

>  <Method>
MMEC

>  <set>
0

$$$$
lit-140
  Cerius2 12180216403D 1   1.00000                          
 Structure written by MMmdl.
 44 47  0  0  0  0  0  0  0  0999 V2000
   -6.7964   -4.1063   16.7477 C   0  0  0  0  0  0
   -5.4069   -4.1373   16.6693 C   0  0  0  0  0  0
   -4.7887   -4.4440   15.4601 C   0  0  0  0  0  0
   -7.5677   -4.3733   15.6117 C   0  0  0  0  0  0
   -6.9654   -4.6623   14.3728 C   0  0  0  0  0  0
   -5.5557   -4.7228   14.3130 C   0  0  0  0  0  0
   -4.8144   -5.0282   13.0312 C   0  0  0  0  0  0
   -5.6947   -5.6016   11.9249 C   0  0  0  0  0  0
   -7.8093   -4.9978   13.1428 C   0  0  0  0  0  0
   -6.9946   -4.8008   11.8282 C   0  0  0  0  0  0
   -9.9796   -4.5963   11.7897 C   0  0  0  0  0  0
   -9.1805   -4.2737   13.0673 C   0  0  0  0  0  0
   -9.1434   -4.3798   10.5220 C   0  0  0  0  0  0
   -7.8620   -5.2300   10.6446 C   0  0  0  0  0  0
   -7.2749   -5.1938    9.2363 C   0  0  0  0  0  0
   -8.5104   -5.1781    8.3173 C   0  0  0  0  0  0
   -9.7329   -5.0013    9.2396 C   0  0  0  0  0  0
  -10.7349   -4.1981    8.6359 O   0  0  0  0  0  0
   -4.6446   -3.8727   17.7738 O   0  0  0  0  0  0
   -8.8980   -2.8621   10.3237 C   0  0  0  0  0  0
   -7.6883   -3.7124   18.3763 Br  0  0  0  0  0  0
   -3.7019   -4.4721   15.3931 H   0  0  0  0  0  0
   -8.6506   -4.3602   15.7080 H   0  0  0  0  0  0
   -4.0009   -5.7355   13.2332 H   0  0  0  0  0  0
   -4.3588   -4.0945   12.6772 H   0  0  0  0  0  0
   -5.9168   -6.6563   12.1327 H   0  0  0  0  0  0
   -5.1389   -5.5731   10.9812 H   0  0  0  0  0  0
   -8.0328   -6.0718   13.2374 H   0  0  0  0  0  0
   -6.7225   -3.7431   11.7186 H   0  0  0  0  0  0
  -10.8909   -3.9868   11.7614 H   0  0  0  0  0  0
  -10.3107   -5.6416   11.8446 H   0  0  0  0  0  0
   -9.0329   -3.1904   13.1528 H   0  0  0  0  0  0
   -9.8087   -4.5631   13.9177 H   0  0  0  0  0  0
   -8.1527   -6.2786   10.8255 H   0  0  0  0  0  0
   -6.6406   -6.0626    9.0338 H   0  0  0  0  0  0
   -6.6682   -4.2955    9.0765 H   0  0  0  0  0  0
   -8.5939   -6.1178    7.7599 H   0  0  0  0  0  0
   -8.4339   -4.3745    7.5760 H   0  0  0  0  0  0
  -10.1742   -5.9825    9.4558 H   0  0  0  0  0  0
  -10.9813   -4.6490    7.8007 H   0  0  0  0  0  0
   -3.6988   -3.9410   17.5260 H   0  0  0  0  0  0
   -8.3272   -2.6458    9.4152 H   0  0  0  0  0  0
   -8.3543   -2.4084   11.1564 H   0  0  0  0  0  0
   -9.8507   -2.3264   10.2395 H   0  0  0  0  0  0
  1  2  2  0  0  0
  1  4  1  0  0  0
  1 21  1  0  0  0
  2  3  1  0  0  0
  2 19  1  0  0  0
  3  6  2  0  0  0
  3 22  1  0  0  0
  4  5  2  0  0  0
  4 23  1  0  0  0
  5  6  1  0  0  0
  5  9  1  0  0  0
  6  7  1  0  0  0
  7  8  1  0  0  0
  7 24  1  0  0  0
  7 25  1  0  0  0
  8 10  1  0  0  0
  8 26  1  0  0  0
  8 27  1  0  0  0
  9 10  1  0  0  0
  9 12  1  0  0  0
  9 28  1  0  0  0
 10 14  1  0  0  0
 10 29  1  0  0  0
 11 12  1  0  0  0
 11 13  1  0  0  0
 11 30  1  0  0  0
 11 31  1  0  0  0
 12 32  1  0  0  0
 12 33  1  0  0  0
 13 14  1  0  0  0
 13 17  1  0  0  0
 13 20  1  0  0  0
 14 15  1  0  0  0
 14 34  1  0  0  0
 15 16  1  0  0  0
 15 35  1  0  0  0
 15 36  1  0  0  0
 16 17  1  0  0  0
 16 37  1  0  0  0
 16 38  1  0  0  0
 17 18  1  0  0  0
 17 39  1  0  0  0
 18 40  1  0  0  0
 19 41  1  0  0  0
 20 42  1  0  0  0
 20 43  1  0  0  0
 20 44  1  0  0  0
M  END
>  <Name>
lit-140

>  <Family>
A.1

>  <RBA>
1.200000

>  <RBA_avg>
1.200000

>  <Method>
MMEC

>  <set>
0

$$$$
lit-141
  Cerius2 12180216403D 1   1.00000                          
 Structure written by MMmdl.
 44 47  0  0  0  0  0  0  0  0999 V2000
   -6.7973   -4.1075   16.7507 C   0  0  0  0  0  0
   -5.4074   -4.1376   16.6710 C   0  0  0  0  0  0
   -4.7903   -4.4434   15.4603 C   0  0  0  0  0  0
   -7.5683   -4.3746   15.6127 C   0  0  0  0  0  0
   -6.9658   -4.6621   14.3731 C   0  0  0  0  0  0
   -5.5566   -4.7219   14.3129 C   0  0  0  0  0  0
   -4.8150   -5.0264   13.0313 C   0  0  0  0  0  0
   -5.6950   -5.6007   11.9252 C   0  0  0  0  0  0
   -7.8098   -4.9971   13.1429 C   0  0  0  0  0  0
   -6.9950   -4.8004   11.8284 C   0  0  0  0  0  0
   -9.9798   -4.5952   11.7891 C   0  0  0  0  0  0
   -9.1808   -4.2726   13.0668 C   0  0  0  0  0  0
   -9.1433   -4.3797   10.5215 C   0  0  0  0  0  0
   -7.8622   -5.2300   10.6447 C   0  0  0  0  0  0
   -7.2747   -5.1948    9.2367 C   0  0  0  0  0  0
   -8.5099   -5.1789    8.3172 C   0  0  0  0  0  0
   -9.7325   -5.0018    9.2393 C   0  0  0  0  0  0
  -10.7346   -4.1991    8.6349 O   0  0  0  0  0  0
   -4.6391   -3.8743   17.7712 O   0  0  0  0  0  0
   -8.8977   -2.8621   10.3223 C   0  0  0  0  0  0
   -7.7916   -3.6760   18.5422 I   0  0  0  0  0  0
   -3.7036   -4.4709   15.3924 H   0  0  0  0  0  0
   -8.6517   -4.3643   15.7031 H   0  0  0  0  0  0
   -4.0007   -5.7329   13.2331 H   0  0  0  0  0  0
   -4.3603   -4.0922   12.6773 H   0  0  0  0  0  0
   -5.9167   -6.6553   12.1336 H   0  0  0  0  0  0
   -5.1391   -5.5723   10.9815 H   0  0  0  0  0  0
   -8.0337   -6.0711   13.2375 H   0  0  0  0  0  0
   -6.7232   -3.7426   11.7186 H   0  0  0  0  0  0
  -10.8908   -3.9852   11.7605 H   0  0  0  0  0  0
  -10.3115   -5.6403   11.8444 H   0  0  0  0  0  0
   -9.0327   -3.1893   13.1522 H   0  0  0  0  0  0
   -9.8095   -4.5615   13.9169 H   0  0  0  0  0  0
   -8.1531   -6.2783   10.8262 H   0  0  0  0  0  0
   -6.6409   -6.0643    9.0348 H   0  0  0  0  0  0
   -6.6674   -4.2971    9.0764 H   0  0  0  0  0  0
   -8.5934   -6.1185    7.7598 H   0  0  0  0  0  0
   -8.4331   -4.3753    7.5762 H   0  0  0  0  0  0
  -10.1739   -5.9830    9.4559 H   0  0  0  0  0  0
  -10.9805   -4.6504    7.7998 H   0  0  0  0  0  0
   -3.6945   -3.9433   17.5194 H   0  0  0  0  0  0
   -8.3263   -2.6464    9.4141 H   0  0  0  0  0  0
   -8.3546   -2.4078   11.1551 H   0  0  0  0  0  0
   -9.8504   -2.3263   10.2370 H   0  0  0  0  0  0
  1  2  2  0  0  0
  1  4  1  0  0  0
  1 21  1  0  0  0
  2  3  1  0  0  0
  2 19  1  0  0  0
  3  6  2  0  0  0
  3 22  1  0  0  0
  4  5  2  0  0  0
  4 23  1  0  0  0
  5  6  1  0  0  0
  5  9  1  0  0  0
  6  7  1  0  0  0
  7  8  1  0  0  0
  7 24  1  0  0  0
  7 25  1  0  0  0
  8 10  1  0  0  0
  8 26  1  0  0  0
  8 27  1  0  0  0
  9 10  1  0  0  0
  9 12  1  0  0  0
  9 28  1  0  0  0
 10 14  1  0  0  0
 10 29  1  0  0  0
 11 12  1  0  0  0
 11 13  1  0  0  0
 11 30  1  0  0  0
 11 31  1  0  0  0
 12 32  1  0  0  0
 12 33  1  0  0  0
 13 14  1  0  0  0
 13 17  1  0  0  0
 13 20  1  0  0  0
 14 15  1  0  0  0
 14 34  1  0  0  0
 15 16  1  0  0  0
 15 35  1  0  0  0
 15 36  1  0  0  0
 16 17  1  0  0  0
 16 37  1  0  0  0
 16 38  1  0  0  0
 17 18  1  0  0  0
 17 39  1  0  0  0
 18 40  1  0  0  0
 19 41  1  0  0  0
 20 42  1  0  0  0
 20 43  1  0  0  0
 20 44  1  0  0  0
M  END
>  <Name>
lit-141

>  <Family>
A.1

>  <RBA>
0.400000

>  <RBA_avg>
0.400000

>  <Method>
MMEC

>  <set>
0

$$$$
lit-142
  Cerius2 12180216403D 1   1.00000                          
 Structure written by MMmdl.
 44 47  0  0  0  0  0  0  0  0999 V2000
   -6.8015   -4.1047   16.7345 C   0  0  0  0  0  0
   -5.4179   -4.1102   16.6679 C   0  0  0  0  0  0
   -4.7640   -4.4201   15.4680 C   0  0  0  0  0  0
   -7.5487   -4.3929   15.5944 C   0  0  0  0  0  0
   -6.9301   -4.6838   14.3629 C   0  0  0  0  0  0
   -5.5102   -4.7364   14.3049 C   0  0  0  0  0  0
   -4.8068   -5.0786   13.0053 C   0  0  0  0  0  0
   -5.7044   -5.6360   11.9047 C   0  0  0  0  0  0
   -7.7879   -5.0184   13.1376 C   0  0  0  0  0  0
   -6.9887   -4.8179   11.8183 C   0  0  0  0  0  0
   -9.9709   -4.6005   11.8009 C   0  0  0  0  0  0
   -9.1609   -4.2923   13.0751 C   0  0  0  0  0  0
   -9.1435   -4.3755   10.5298 C   0  0  0  0  0  0
   -7.8667   -5.2332   10.6375 C   0  0  0  0  0  0
   -7.2882   -5.1889    9.2256 C   0  0  0  0  0  0
   -8.5292   -5.1577    8.3144 C   0  0  0  0  0  0
   -9.7447   -4.9825    9.2460 C   0  0  0  0  0  0
  -10.7462   -4.1687    8.6560 O   0  0  0  0  0  0
   -4.7530   -3.8042   17.8243 O   0  0  0  0  0  0
   -8.8914   -2.8574   10.3439 C   0  0  0  0  0  0
   -2.6410   -4.3749   15.4717 I   0  0  0  0  0  0
   -7.3077   -3.8759   17.6697 H   0  0  0  0  0  0
   -8.6319   -4.3891   15.6958 H   0  0  0  0  0  0
   -4.0259   -5.8256   13.1855 H   0  0  0  0  0  0
   -4.3277   -4.1650   12.6305 H   0  0  0  0  0  0
   -5.9396   -6.6881   12.1123 H   0  0  0  0  0  0
   -5.1540   -5.6158   10.9574 H   0  0  0  0  0  0
   -8.0125   -6.0921   13.2336 H   0  0  0  0  0  0
   -6.7056   -3.7628   11.7124 H   0  0  0  0  0  0
  -10.8800   -3.9875   11.7852 H   0  0  0  0  0  0
  -10.3055   -5.6452   11.8492 H   0  0  0  0  0  0
   -9.0118   -3.2100   13.1700 H   0  0  0  0  0  0
   -9.7853   -4.5895   13.9254 H   0  0  0  0  0  0
   -8.1621   -6.2815   10.8119 H   0  0  0  0  0  0
   -6.6610   -6.0603    9.0118 H   0  0  0  0  0  0
   -6.6767   -4.2934    9.0693 H   0  0  0  0  0  0
   -8.6215   -6.0916    7.7487 H   0  0  0  0  0  0
   -8.4527   -4.3477    7.5804 H   0  0  0  0  0  0
  -10.1901   -5.9633    9.4565 H   0  0  0  0  0  0
  -11.0010   -4.6114    7.8189 H   0  0  0  0  0  0
   -3.7928   -3.8481   17.6252 H   0  0  0  0  0  0
   -8.3254   -2.6359    9.4336 H   0  0  0  0  0  0
   -8.3397   -2.4143   11.1770 H   0  0  0  0  0  0
   -9.8419   -2.3159   10.2710 H   0  0  0  0  0  0
  1  2  2  0  0  0
  1  4  1  0  0  0
  1 22  1  0  0  0
  2  3  1  0  0  0
  2 19  1  0  0  0
  3  6  2  0  0  0
  3 21  1  0  0  0
  4  5  2  0  0  0
  4 23  1  0  0  0
  5  6  1  0  0  0
  5  9  1  0  0  0
  6  7  1  0  0  0
  7  8  1  0  0  0
  7 24  1  0  0  0
  7 25  1  0  0  0
  8 10  1  0  0  0
  8 26  1  0  0  0
  8 27  1  0  0  0
  9 10  1  0  0  0
  9 12  1  0  0  0
  9 28  1  0  0  0
 10 14  1  0  0  0
 10 29  1  0  0  0
 11 12  1  0  0  0
 11 13  1  0  0  0
 11 30  1  0  0  0
 11 31  1  0  0  0
 12 32  1  0  0  0
 12 33  1  0  0  0
 13 14  1  0  0  0
 13 17  1  0  0  0
 13 20  1  0  0  0
 14 15  1  0  0  0
 14 34  1  0  0  0
 15 16  1  0  0  0
 15 35  1  0  0  0
 15 36  1  0  0  0
 16 17  1  0  0  0
 16 37  1  0  0  0
 16 38  1  0  0  0
 17 18  1  0  0  0
 17 39  1  0  0  0
 18 40  1  0  0  0
 19 41  1  0  0  0
 20 42  1  0  0  0
 20 43  1  0  0  0
 20 44  1  0  0  0
M  END
>  <Name>
lit-142

>  <Family>
A.1

>  <RBA>
0.100000

>  <RBA_avg>
0.100000

>  <Method>
MMEC

>  <set>
0

$$$$
lit-143
  Cerius2 12180216403D 1   1.00000                          
 Structure written by MMmdl.
 43 46  0  0  0  0  0  0  0  0999 V2000
   -6.7900   -4.1037   16.7449 C   0  0  0  0  0  0
   -5.4085   -4.1405   16.6553 C   0  0  0  0  0  0
   -4.7836   -4.4465   15.4547 C   0  0  0  0  0  0
   -7.5610   -4.3693   15.6113 C   0  0  0  0  0  0
   -6.9593   -4.6609   14.3721 C   0  0  0  0  0  0
   -5.5482   -4.7241   14.3085 C   0  0  0  0  0  0
   -4.8092   -5.0303   13.0269 C   0  0  0  0  0  0
   -5.6924   -5.6026   11.9222 C   0  0  0  0  0  0
   -7.8051   -4.9965   13.1433 C   0  0  0  0  0  0
   -6.9920   -4.8008   11.8275 C   0  0  0  0  0  0
   -9.9774   -4.5949   11.7940 C   0  0  0  0  0  0
   -9.1759   -4.2718   13.0700 C   0  0  0  0  0  0
   -9.1430   -4.3795   10.5248 C   0  0  0  0  0  0
   -7.8617   -5.2301   10.6455 C   0  0  0  0  0  0
   -7.2770   -5.1948    9.2361 C   0  0  0  0  0  0
   -8.5142   -5.1785    8.3192 C   0  0  0  0  0  0
   -9.7349   -5.0015    9.2438 C   0  0  0  0  0  0
   -8.8975   -2.8620   10.3252 C   0  0  0  0  0  0
  -10.7382   -4.1987    8.6416 O   0  0  0  0  0  0
   -4.6669   -3.8830   17.7408 F   0  0  0  0  0  0
   -7.2667   -3.8738   17.6936 H   0  0  0  0  0  0
   -3.6969   -4.4698   15.4166 H   0  0  0  0  0  0
   -8.6430   -4.3498   15.7227 H   0  0  0  0  0  0
   -3.9961   -5.7385   13.2278 H   0  0  0  0  0  0
   -4.3528   -4.0972   12.6720 H   0  0  0  0  0  0
   -5.9150   -6.6571   12.1304 H   0  0  0  0  0  0
   -5.1383   -5.5746   10.9773 H   0  0  0  0  0  0
   -8.0290   -6.0704   13.2388 H   0  0  0  0  0  0
   -6.7195   -3.7434   11.7169 H   0  0  0  0  0  0
  -10.8884   -3.9851   11.7669 H   0  0  0  0  0  0
  -10.3086   -5.6401   11.8502 H   0  0  0  0  0  0
   -9.0275   -3.1885   13.1544 H   0  0  0  0  0  0
   -9.8022   -4.5602   13.9222 H   0  0  0  0  0  0
   -8.1526   -6.2783   10.8274 H   0  0  0  0  0  0
   -6.6438   -6.0644    9.0329 H   0  0  0  0  0  0
   -6.6699   -4.2971    9.0748 H   0  0  0  0  0  0
   -8.5990   -6.1180    7.7617 H   0  0  0  0  0  0
   -8.4387   -4.3747    7.5782 H   0  0  0  0  0  0
  -10.1758   -5.9827    9.4612 H   0  0  0  0  0  0
   -8.3278   -2.6464    9.4158 H   0  0  0  0  0  0
   -8.3525   -2.4079   11.1568 H   0  0  0  0  0  0
   -9.8501   -2.3259   10.2419 H   0  0  0  0  0  0
  -10.9861   -4.6500    7.8072 H   0  0  0  0  0  0
  1  2  2  0  0  0
  1  4  1  0  0  0
  1 21  1  0  0  0
  2  3  1  0  0  0
  2 20  1  0  0  0
  3  6  2  0  0  0
  3 22  1  0  0  0
  4  5  2  0  0  0
  4 23  1  0  0  0
  5  6  1  0  0  0
  5  9  1  0  0  0
  6  7  1  0  0  0
  7  8  1  0  0  0
  7 24  1  0  0  0
  7 25  1  0  0  0
  8 10  1  0  0  0
  8 26  1  0  0  0
  8 27  1  0  0  0
  9 10  1  0  0  0
  9 12  1  0  0  0
  9 28  1  0  0  0
 10 14  1  0  0  0
 10 29  1  0  0  0
 11 12  1  0  0  0
 11 13  1  0  0  0
 11 30  1  0  0  0
 11 31  1  0  0  0
 12 32  1  0  0  0
 12 33  1  0  0  0
 13 14  1  0  0  0
 13 17  1  0  0  0
 13 18  1  0  0  0
 14 15  1  0  0  0
 14 34  1  0  0  0
 15 16  1  0  0  0
 15 35  1  0  0  0
 15 36  1  0  0  0
 16 17  1  0  0  0
 16 37  1  0  0  0
 16 38  1  0  0  0
 17 19  1  0  0  0
 17 39  1  0  0  0
 18 40  1  0  0  0
 18 41  1  0  0  0
 18 42  1  0  0  0
 19 43  1  0  0  0
M  END
>  <Name>
lit-143

>  <Family>
A.1

>  <RBA>
0.430000

>  <RBA_avg>
0.430000

>  <Method>
RUC

>  <set>
0

$$$$
lit-144
  Cerius2 12180216403D 1   1.00000                          
 Structure written by MMmdl.
 47 50  0  0  0  0  0  0  0  0999 V2000
   -6.8116   -4.1055   16.7540 C   0  0  0  0  0  0
   -5.4236   -4.1338   16.6893 C   0  0  0  0  0  0
   -4.8114   -4.4419   15.4742 C   0  0  0  0  0  0
   -7.5764   -4.3725   15.6113 C   0  0  0  0  0  0
   -6.9752   -4.6611   14.3748 C   0  0  0  0  0  0
   -5.5681   -4.7209   14.3206 C   0  0  0  0  0  0
   -4.8198   -5.0238   13.0435 C   0  0  0  0  0  0
   -5.6947   -5.5957   11.9316 C   0  0  0  0  0  0
   -7.8148   -4.9967   13.1432 C   0  0  0  0  0  0
   -6.9963   -4.7976   11.8313 C   0  0  0  0  0  0
   -9.9820   -4.5993   11.7850 C   0  0  0  0  0  0
   -9.1868   -4.2748   13.0646 C   0  0  0  0  0  0
   -9.1426   -4.3811   10.5194 C   0  0  0  0  0  0
   -7.8595   -5.2282   10.6451 C   0  0  0  0  0  0
   -7.2688   -5.1902    9.2384 C   0  0  0  0  0  0
   -8.5021   -5.1772    8.3162 C   0  0  0  0  0  0
   -9.7273   -5.0040    9.2355 C   0  0  0  0  0  0
   -8.9005   -2.8627   10.3214 C   0  0  0  0  0  0
  -10.7301   -4.2035    8.6294 O   0  0  0  0  0  0
   -4.5635   -3.8896   17.7234 O   0  0  0  0  0  0
   -3.1693   -3.9735   17.4310 C   0  0  0  0  0  0
   -7.3412   -3.8838   17.6768 H   0  0  0  0  0  0
   -3.7228   -4.4675   15.4210 H   0  0  0  0  0  0
   -8.6593   -4.3553   15.7189 H   0  0  0  0  0  0
   -4.0071   -5.7311   13.2486 H   0  0  0  0  0  0
   -4.3626   -4.0895   12.6931 H   0  0  0  0  0  0
   -5.9157   -6.6513   12.1360 H   0  0  0  0  0  0
   -5.1351   -5.5638   10.9901 H   0  0  0  0  0  0
   -8.0370   -6.0712   13.2362 H   0  0  0  0  0  0
   -6.7260   -3.7393   11.7229 H   0  0  0  0  0  0
  -10.8944   -3.9918   11.7543 H   0  0  0  0  0  0
  -10.3108   -5.6453   11.8391 H   0  0  0  0  0  0
   -9.0410   -3.1912   13.1500 H   0  0  0  0  0  0
   -9.8158   -4.5648   13.9143 H   0  0  0  0  0  0
   -8.1483   -6.2774   10.8248 H   0  0  0  0  0  0
   -6.6319   -6.0576    9.0373 H   0  0  0  0  0  0
   -6.6638   -4.2905    9.0803 H   0  0  0  0  0  0
   -8.5817   -6.1169    7.7581 H   0  0  0  0  0  0
   -8.4257   -4.3732    7.5756 H   0  0  0  0  0  0
  -10.1666   -5.9865    9.4505 H   0  0  0  0  0  0
   -8.3284   -2.6451    9.4141 H   0  0  0  0  0  0
   -8.3593   -2.4078   11.1551 H   0  0  0  0  0  0
   -9.8544   -2.3292   10.2354 H   0  0  0  0  0  0
  -10.9731   -4.6552    7.7936 H   0  0  0  0  0  0
   -2.6226   -3.7634   18.3553 H   0  0  0  0  0  0
   -2.8770   -3.2209   16.6914 H   0  0  0  0  0  0
   -2.8961   -4.9818   17.1029 H   0  0  0  0  0  0
  1  2  2  0  0  0
  1  4  1  0  0  0
  1 22  1  0  0  0
  2  3  1  0  0  0
  2 20  1  0  0  0
  3  6  2  0  0  0
  3 23  1  0  0  0
  4  5  2  0  0  0
  4 24  1  0  0  0
  5  6  1  0  0  0
  5  9  1  0  0  0
  6  7  1  0  0  0
  7  8  1  0  0  0
  7 25  1  0  0  0
  7 26  1  0  0  0
  8 10  1  0  0  0
  8 27  1  0  0  0
  8 28  1  0  0  0
  9 10  1  0  0  0
  9 12  1  0  0  0
  9 29  1  0  0  0
 10 14  1  0  0  0
 10 30  1  0  0  0
 11 12  1  0  0  0
 11 13  1  0  0  0
 11 31  1  0  0  0
 11 32  1  0  0  0
 12 33  1  0  0  0
 12 34  1  0  0  0
 13 14  1  0  0  0
 13 17  1  0  0  0
 13 18  1  0  0  0
 14 15  1  0  0  0
 14 35  1  0  0  0
 15 16  1  0  0  0
 15 36  1  0  0  0
 15 37  1  0  0  0
 16 17  1  0  0  0
 16 38  1  0  0  0
 16 39  1  0  0  0
 17 19  1  0  0  0
 17 40  1  0  0  0
 18 41  1  0  0  0
 18 42  1  0  0  0
 18 43  1  0  0  0
 19 44  1  0  0  0
 20 21  1  0  0  0
 21 45  1  0  0  0
 21 46  1  0  0  0
 21 47  1  0  0  0
M  END
>  <Name>
lit-144

>  <Family>
A.1

>  <RBA>
0.7,3,0.06

>  <RBA_avg>
1.300000

>  <Method>
RUC,RBC,RUC*

>  <set>
0

$$$$
lit-147
  Cerius2 12180216403D 1   1.00000                          
 Structure written by MMmdl.
 47 50  0  0  0  0  0  0  0  0999 V2000
   -6.7881   -4.1029   16.7445 C   0  0  0  0  0  0
   -5.4059   -4.1405   16.6592 C   0  0  0  0  0  0
   -4.7818   -4.4482   15.4571 C   0  0  0  0  0  0
   -7.5594   -4.3680   15.6100 C   0  0  0  0  0  0
   -6.9596   -4.6607   14.3717 C   0  0  0  0  0  0
   -5.5492   -4.7253   14.3103 C   0  0  0  0  0  0
   -4.8105   -5.0328   13.0280 C   0  0  0  0  0  0
   -5.6939   -5.6025   11.9219 C   0  0  0  0  0  0
   -7.8052   -4.9957   13.1430 C   0  0  0  0  0  0
   -6.9924   -4.7987   11.8277 C   0  0  0  0  0  0
   -9.9779   -4.5971   11.7948 C   0  0  0  0  0  0
   -9.1759   -4.2716   13.0695 C   0  0  0  0  0  0
   -9.1485   -4.3774   10.5224 C   0  0  0  0  0  0
   -7.8628   -5.2252   10.6447 C   0  0  0  0  0  0
   -7.2753   -5.1907    9.2377 C   0  0  0  0  0  0
   -8.5089   -5.1804    8.3157 C   0  0  0  0  0  0
   -9.7419   -5.0093    9.2399 C   0  0  0  0  0  0
   -8.8946   -2.8613   10.3282 C   0  0  0  0  0  0
   -4.6849   -3.8728   17.7849 O   0  0  0  0  0  0
  -10.8927   -4.2568    8.5778 C   0  0  0  0  0  0
  -11.4089   -5.0370    7.4986 O   0  0  0  0  0  0
   -7.2760   -3.8724   17.6889 H   0  0  0  0  0  0
   -3.6951   -4.4783   15.3954 H   0  0  0  0  0  0
   -8.6413   -4.3466   15.7219 H   0  0  0  0  0  0
   -3.9992   -5.7430   13.2288 H   0  0  0  0  0  0
   -4.3519   -4.1006   12.6740 H   0  0  0  0  0  0
   -5.9181   -6.6569   12.1286 H   0  0  0  0  0  0
   -5.1391   -5.5739   10.9776 H   0  0  0  0  0  0
   -8.0288   -6.0697   13.2379 H   0  0  0  0  0  0
   -6.7173   -3.7419   11.7189 H   0  0  0  0  0  0
  -10.8906   -3.9897   11.7721 H   0  0  0  0  0  0
  -10.3064   -5.6432   11.8508 H   0  0  0  0  0  0
   -9.0281   -3.1882   13.1523 H   0  0  0  0  0  0
   -9.8014   -4.5593   13.9225 H   0  0  0  0  0  0
   -8.1513   -6.2742   10.8268 H   0  0  0  0  0  0
   -6.6395   -6.0592    9.0378 H   0  0  0  0  0  0
   -6.6693   -4.2923    9.0763 H   0  0  0  0  0  0
   -8.5833   -6.1155    7.7496 H   0  0  0  0  0  0
   -8.4234   -4.3643    7.5893 H   0  0  0  0  0  0
  -10.1031   -6.0223    9.4736 H   0  0  0  0  0  0
   -8.3402   -2.6433    9.4101 H   0  0  0  0  0  0
   -8.3306   -2.4168   11.1523 H   0  0  0  0  0  0
   -9.8431   -2.3152   10.2709 H   0  0  0  0  0  0
   -3.7310   -3.9390   17.5648 H   0  0  0  0  0  0
  -10.5709   -3.2929    8.1718 H   0  0  0  0  0  0
  -11.7047   -4.0881    9.2921 H   0  0  0  0  0  0
  -12.1468   -4.5110    7.1211 H   0  0  0  0  0  0
  1  2  2  0  0  0
  1  4  1  0  0  0
  1 22  1  0  0  0
  2  3  1  0  0  0
  2 19  1  0  0  0
  3  6  2  0  0  0
  3 23  1  0  0  0
  4  5  2  0  0  0
  4 24  1  0  0  0
  5  6  1  0  0  0
  5  9  1  0  0  0
  6  7  1  0  0  0
  7  8  1  0  0  0
  7 25  1  0  0  0
  7 26  1  0  0  0
  8 10  1  0  0  0
  8 27  1  0  0  0
  8 28  1  0  0  0
  9 10  1  0  0  0
  9 12  1  0  0  0
  9 29  1  0  0  0
 10 14  1  0  0  0
 10 30  1  0  0  0
 11 12  1  0  0  0
 11 13  1  0  0  0
 11 31  1  0  0  0
 11 32  1  0  0  0
 12 33  1  0  0  0
 12 34  1  0  0  0
 13 14  1  0  0  0
 13 17  1  0  0  0
 13 18  1  0  0  0
 14 15  1  0  0  0
 14 35  1  0  0  0
 15 16  1  0  0  0
 15 36  1  0  0  0
 15 37  1  0  0  0
 16 17  1  0  0  0
 16 38  1  0  0  0
 16 39  1  0  0  0
 17 20  1  0  0  0
 17 40  1  0  0  0
 18 41  1  0  0  0
 18 42  1  0  0  0
 18 43  1  0  0  0
 19 44  1  0  0  0
 20 21  1  0  0  0
 20 45  1  0  0  0
 20 46  1  0  0  0
 21 47  1  0  0  0
M  END
>  <Name>
lit-147

>  <Family>
A.1

>  <RBA>
62.000000

>  <RBA_avg>
62.000000

>  <Method>
MUC

>  <set>
0

$$$$
lit-148
  Cerius2 12180216403D 1   1.00000                          
 Structure written by MMmdl.
 45 48  0  0  0  0  0  0  0  0999 V2000
   -6.7873   -4.1021   16.7451 C   0  0  0  0  0  0
   -5.4050   -4.1404   16.6592 C   0  0  0  0  0  0
   -4.7815   -4.4477   15.4567 C   0  0  0  0  0  0
   -7.5590   -4.3665   15.6108 C   0  0  0  0  0  0
   -6.9600   -4.6591   14.3721 C   0  0  0  0  0  0
   -5.5496   -4.7241   14.3101 C   0  0  0  0  0  0
   -4.8114   -5.0317   13.0276 C   0  0  0  0  0  0
   -5.6950   -5.6038   11.9231 C   0  0  0  0  0  0
   -7.8065   -4.9941   13.1439 C   0  0  0  0  0  0
   -6.9937   -4.8002   11.8278 C   0  0  0  0  0  0
   -9.9814   -4.5942   11.7974 C   0  0  0  0  0  0
   -9.1768   -4.2686   13.0708 C   0  0  0  0  0  0
   -9.1511   -4.3831   10.5243 C   0  0  0  0  0  0
   -7.8639   -5.2299   10.6463 C   0  0  0  0  0  0
   -7.2767   -5.2026    9.2360 C   0  0  0  0  0  0
   -8.5085   -5.1478    8.3091 C   0  0  0  0  0  0
   -9.7344   -5.0249    9.2413 C   0  0  0  0  0  0
   -8.8915   -2.8664   10.3247 C   0  0  0  0  0  0
   -4.6835   -3.8739   17.7848 O   0  0  0  0  0  0
  -10.8682   -4.3414    8.6286 N   0  0  0  0  0  0
   -7.2747   -3.8721   17.6898 H   0  0  0  0  0  0
   -3.6949   -4.4784   15.3946 H   0  0  0  0  0  0
   -8.6409   -4.3449   15.7231 H   0  0  0  0  0  0
   -3.9989   -5.7405   13.2283 H   0  0  0  0  0  0
   -4.3543   -4.0991   12.6722 H   0  0  0  0  0  0
   -5.9191   -6.6578   12.1322 H   0  0  0  0  0  0
   -5.1408   -5.5772   10.9783 H   0  0  0  0  0  0
   -8.0315   -6.0677   13.2401 H   0  0  0  0  0  0
   -6.7188   -3.7435   11.7164 H   0  0  0  0  0  0
  -10.8917   -3.9832   11.7721 H   0  0  0  0  0  0
  -10.3137   -5.6389   11.8570 H   0  0  0  0  0  0
   -9.0277   -3.1852   13.1526 H   0  0  0  0  0  0
   -9.8019   -4.5544   13.9248 H   0  0  0  0  0  0
   -8.1521   -6.2783   10.8324 H   0  0  0  0  0  0
   -6.6682   -6.0898    9.0323 H   0  0  0  0  0  0
   -6.6426   -4.3226    9.0803 H   0  0  0  0  0  0
   -8.5818   -6.0472    7.6878 H   0  0  0  0  0  0
   -8.4183   -4.2914    7.6303 H   0  0  0  0  0  0
  -10.0755   -6.0416    9.4808 H   0  0  0  0  0  0
   -8.3196   -2.6523    9.4168 H   0  0  0  0  0  0
   -8.3424   -2.4181   11.1567 H   0  0  0  0  0  0
   -9.8386   -2.3201   10.2467 H   0  0  0  0  0  0
   -3.7298   -3.9419   17.5647 H   0  0  0  0  0  0
  -11.1086   -4.8317    7.7595 H   0  0  0  0  0  0
  -10.5625   -3.4212    8.2963 H   0  0  0  0  0  0
  1  2  2  0  0  0
  1  4  1  0  0  0
  1 21  1  0  0  0
  2  3  1  0  0  0
  2 19  1  0  0  0
  3  6  2  0  0  0
  3 22  1  0  0  0
  4  5  2  0  0  0
  4 23  1  0  0  0
  5  6  1  0  0  0
  5  9  1  0  0  0
  6  7  1  0  0  0
  7  8  1  0  0  0
  7 24  1  0  0  0
  7 25  1  0  0  0
  8 10  1  0  0  0
  8 26  1  0  0  0
  8 27  1  0  0  0
  9 10  1  0  0  0
  9 12  1  0  0  0
  9 28  1  0  0  0
 10 14  1  0  0  0
 10 29  1  0  0  0
 11 12  1  0  0  0
 11 13  1  0  0  0
 11 30  1  0  0  0
 11 31  1  0  0  0
 12 32  1  0  0  0
 12 33  1  0  0  0
 13 14  1  0  0  0
 13 17  1  0  0  0
 13 18  1  0  0  0
 14 15  1  0  0  0
 14 34  1  0  0  0
 15 16  1  0  0  0
 15 35  1  0  0  0
 15 36  1  0  0  0
 16 17  1  0  0  0
 16 37  1  0  0  0
 16 38  1  0  0  0
 17 20  1  0  0  0
 17 39  1  0  0  0
 18 40  1  0  0  0
 18 41  1  0  0  0
 18 42  1  0  0  0
 19 43  1  0  0  0
 20 44  1  0  0  0
 20 45  1  0  0  0
M  END
>  <Name>
lit-148

>  <Family>
A.1

>  <RBA>
82.000000

>  <RBA_avg>
82.000000

>  <Method>
RUC

>  <set>
1

$$$$
lit-149
  Cerius2 12180216403D 1   1.00000                          
 Structure written by MMmdl.
 46 49  0  0  0  0  0  0  0  0999 V2000
   -6.7879   -4.1013   16.7443 C   0  0  0  0  0  0
   -5.4057   -4.1405   16.6590 C   0  0  0  0  0  0
   -4.7819   -4.4490   15.4570 C   0  0  0  0  0  0
   -7.5595   -4.3660   15.6100 C   0  0  0  0  0  0
   -6.9600   -4.6597   14.3716 C   0  0  0  0  0  0
   -5.5496   -4.7256   14.3102 C   0  0  0  0  0  0
   -4.8111   -5.0341   13.0280 C   0  0  0  0  0  0
   -5.6949   -5.6035   11.9221 C   0  0  0  0  0  0
   -7.8059   -4.9948   13.1434 C   0  0  0  0  0  0
   -6.9930   -4.7988   11.8276 C   0  0  0  0  0  0
   -9.9804   -4.5960   11.7946 C   0  0  0  0  0  0
   -9.1774   -4.2710   13.0701 C   0  0  0  0  0  0
   -9.1511   -4.3782   10.5232 C   0  0  0  0  0  0
   -7.8639   -5.2251   10.6445 C   0  0  0  0  0  0
   -7.2783   -5.1916    9.2336 C   0  0  0  0  0  0
   -8.5132   -5.1676    8.3106 C   0  0  0  0  0  0
   -9.7278   -5.0233    9.2468 C   0  0  0  0  0  0
   -8.8906   -2.8617   10.3300 C   0  0  0  0  0  0
   -4.6845   -3.8735   17.7847 O   0  0  0  0  0  0
  -10.8096   -4.2653    8.6272 N   0  3  0  0  0  0
   -7.2756   -3.8703   17.6887 H   0  0  0  0  0  0
   -3.6953   -4.4804   15.3954 H   0  0  0  0  0  0
   -8.6414   -4.3436   15.7219 H   0  0  0  0  0  0
   -4.0004   -5.7449   13.2291 H   0  0  0  0  0  0
   -4.3517   -4.1024   12.6736 H   0  0  0  0  0  0
   -5.9199   -6.6577   12.1293 H   0  0  0  0  0  0
   -5.1404   -5.5758   10.9775 H   0  0  0  0  0  0
   -8.0298   -6.0688   13.2386 H   0  0  0  0  0  0
   -6.7169   -3.7424   11.7184 H   0  0  0  0  0  0
  -10.8926   -3.9877   11.7709 H   0  0  0  0  0  0
  -10.3098   -5.6417   11.8517 H   0  0  0  0  0  0
   -9.0300   -3.1874   13.1532 H   0  0  0  0  0  0
   -9.8029   -4.5591   13.9229 H   0  0  0  0  0  0
   -8.1518   -6.2743   10.8269 H   0  0  0  0  0  0
   -6.6506   -6.0656    9.0317 H   0  0  0  0  0  0
   -6.6641   -4.2985    9.0739 H   0  0  0  0  0  0
   -8.5855   -6.0930    7.7287 H   0  0  0  0  0  0
   -8.4315   -4.3385    7.5984 H   0  0  0  0  0  0
  -10.1403   -6.0164    9.4665 H   0  0  0  0  0  0
   -8.3305   -2.6450    9.4151 H   0  0  0  0  0  0
   -8.3305   -2.4185   11.1574 H   0  0  0  0  0  0
   -9.8374   -2.3129   10.2667 H   0  0  0  0  0  0
   -3.7307   -3.9421   17.5651 H   0  0  0  0  0  0
  -11.1919   -4.7549    7.8145 H   0  0  0  0  0  0
  -10.5400   -3.3400    8.2894 H   0  0  0  0  0  0
  -11.6049   -4.1300    9.2548 H   0  0  0  0  0  0
  1  2  2  0  0  0
  1  4  1  0  0  0
  1 21  1  0  0  0
  2  3  1  0  0  0
  2 19  1  0  0  0
  3  6  2  0  0  0
  3 22  1  0  0  0
  4  5  2  0  0  0
  4 23  1  0  0  0
  5  6  1  0  0  0
  5  9  1  0  0  0
  6  7  1  0  0  0
  7  8  1  0  0  0
  7 24  1  0  0  0
  7 25  1  0  0  0
  8 10  1  0  0  0
  8 26  1  0  0  0
  8 27  1  0  0  0
  9 10  1  0  0  0
  9 12  1  0  0  0
  9 28  1  0  0  0
 10 14  1  0  0  0
 10 29  1  0  0  0
 11 12  1  0  0  0
 11 13  1  0  0  0
 11 30  1  0  0  0
 11 31  1  0  0  0
 12 32  1  0  0  0
 12 33  1  0  0  0
 13 14  1  0  0  0
 13 17  1  0  0  0
 13 18  1  0  0  0
 14 15  1  0  0  0
 14 34  1  0  0  0
 15 16  1  0  0  0
 15 35  1  0  0  0
 15 36  1  0  0  0
 16 17  1  0  0  0
 16 37  1  0  0  0
 16 38  1  0  0  0
 17 20  1  0  0  0
 17 39  1  0  0  0
 18 40  1  0  0  0
 18 41  1  0  0  0
 18 42  1  0  0  0
 19 43  1  0  0  0
 20 44  1  0  0  0
 20 45  1  0  0  0
 20 46  1  0  0  0
M  CHG  1  20   1
M  END
>  <Name>
lit-149

>  <Family>
A.1

>  <RBA>
0.500000

>  <RBA_avg>
0.500000

>  <Method>
CUC

>  <set>
0

$$$$
lit-150
  Cerius2 12180216403D 1   1.00000                          
 Structure written by MMmdl.
 46 49  0  0  0  0  0  0  0  0999 V2000
   -6.7871   -4.1024   16.7453 C   0  0  0  0  0  0
   -5.4048   -4.1401   16.6593 C   0  0  0  0  0  0
   -4.7814   -4.4475   15.4567 C   0  0  0  0  0  0
   -7.5589   -4.3672   15.6111 C   0  0  0  0  0  0
   -6.9598   -4.6595   14.3723 C   0  0  0  0  0  0
   -5.5495   -4.7244   14.3104 C   0  0  0  0  0  0
   -4.8113   -5.0323   13.0277 C   0  0  0  0  0  0
   -5.6953   -5.6044   11.9235 C   0  0  0  0  0  0
   -7.8064   -4.9944   13.1442 C   0  0  0  0  0  0
   -6.9938   -4.8008   11.8281 C   0  0  0  0  0  0
   -9.9809   -4.5938   11.7979 C   0  0  0  0  0  0
   -9.1759   -4.2677   13.0709 C   0  0  0  0  0  0
   -9.1512   -4.3840   10.5236 C   0  0  0  0  0  0
   -7.8641   -5.2303   10.6464 C   0  0  0  0  0  0
   -7.2757   -5.2013    9.2373 C   0  0  0  0  0  0
   -8.5062   -5.1452    8.3097 C   0  0  0  0  0  0
   -9.7395   -5.0262    9.2392 C   0  0  0  0  0  0
   -8.8915   -2.8669   10.3232 C   0  0  0  0  0  0
   -4.6834   -3.8726   17.7846 O   0  0  0  0  0  0
  -10.8858   -4.3211    8.6576 N   0  0  0  0  0  0
  -11.2833   -5.0992    7.4927 O   0  0  0  0  0  0
   -7.2746   -3.8725   17.6900 H   0  0  0  0  0  0
   -3.6948   -4.4779   15.3946 H   0  0  0  0  0  0
   -8.6408   -4.3461   15.7235 H   0  0  0  0  0  0
   -3.9991   -5.7413   13.2286 H   0  0  0  0  0  0
   -4.3542   -4.0999   12.6722 H   0  0  0  0  0  0
   -5.9195   -6.6584   12.1327 H   0  0  0  0  0  0
   -5.1410   -5.5780   10.9786 H   0  0  0  0  0  0
   -8.0321   -6.0678   13.2405 H   0  0  0  0  0  0
   -6.7188   -3.7441   11.7167 H   0  0  0  0  0  0
  -10.8909   -3.9824   11.7729 H   0  0  0  0  0  0
  -10.3135   -5.6384   11.8583 H   0  0  0  0  0  0
   -9.0258   -3.1845   13.1517 H   0  0  0  0  0  0
   -9.8011   -4.5523   13.9251 H   0  0  0  0  0  0
   -8.1520   -6.2787   10.8318 H   0  0  0  0  0  0
   -6.6672   -6.0884    9.0333 H   0  0  0  0  0  0
   -6.6411   -4.3214    9.0831 H   0  0  0  0  0  0
   -8.5753   -6.0432    7.6858 H   0  0  0  0  0  0
   -8.4165   -4.2868    7.6335 H   0  0  0  0  0  0
  -10.0758   -6.0433    9.4885 H   0  0  0  0  0  0
   -8.3201   -2.6530    9.4149 H   0  0  0  0  0  0
   -8.3418   -2.4185   11.1548 H   0  0  0  0  0  0
   -9.8384   -2.3202   10.2454 H   0  0  0  0  0  0
   -3.7297   -3.9384   17.5641 H   0  0  0  0  0  0
  -10.5589   -3.4441    8.2304 H   0  0  0  0  0  0
  -12.2537   -5.2031    7.6140 H   0  0  0  0  0  0
  1  2  2  0  0  0
  1  4  1  0  0  0
  1 22  1  0  0  0
  2  3  1  0  0  0
  2 19  1  0  0  0
  3  6  2  0  0  0
  3 23  1  0  0  0
  4  5  2  0  0  0
  4 24  1  0  0  0
  5  6  1  0  0  0
  5  9  1  0  0  0
  6  7  1  0  0  0
  7  8  1  0  0  0
  7 25  1  0  0  0
  7 26  1  0  0  0
  8 10  1  0  0  0
  8 27  1  0  0  0
  8 28  1  0  0  0
  9 10  1  0  0  0
  9 12  1  0  0  0
  9 29  1  0  0  0
 10 14  1  0  0  0
 10 30  1  0  0  0
 11 12  1  0  0  0
 11 13  1  0  0  0
 11 31  1  0  0  0
 11 32  1  0  0  0
 12 33  1  0  0  0
 12 34  1  0  0  0
 13 14  1  0  0  0
 13 17  1  0  0  0
 13 18  1  0  0  0
 14 15  1  0  0  0
 14 35  1  0  0  0
 15 16  1  0  0  0
 15 36  1  0  0  0
 15 37  1  0  0  0
 16 17  1  0  0  0
 16 38  1  0  0  0
 16 39  1  0  0  0
 17 20  1  0  0  0
 17 40  1  0  0  0
 18 41  1  0  0  0
 18 42  1  0  0  0
 18 43  1  0  0  0
 19 44  1  0  0  0
 20 21  1  0  0  0
 20 45  1  0  0  0
 21 46  1  0  0  0
M  END
>  <Name>
lit-150

>  <Family>
A.1

>  <RBA>
13.000000

>  <RBA_avg>
13.000000

>  <Method>
RUC*

>  <set>
1

$$$$
lit-151
  Cerius2 12180216403D 1   1.00000                          
 Structure written by MMmdl.
 49 52  0  0  0  0  0  0  0  0999 V2000
   -6.7871   -4.1025   16.7453 C   0  0  0  0  0  0
   -5.4049   -4.1404   16.6594 C   0  0  0  0  0  0
   -4.7814   -4.4475   15.4568 C   0  0  0  0  0  0
   -7.5589   -4.3669   15.6111 C   0  0  0  0  0  0
   -6.9598   -4.6593   14.3722 C   0  0  0  0  0  0
   -5.5495   -4.7242   14.3104 C   0  0  0  0  0  0
   -4.8113   -5.0319   13.0277 C   0  0  0  0  0  0
   -5.6951   -5.6042   11.9235 C   0  0  0  0  0  0
   -7.8064   -4.9941   13.1441 C   0  0  0  0  0  0
   -6.9936   -4.8006   11.8281 C   0  0  0  0  0  0
   -9.9810   -4.5937   11.7976 C   0  0  0  0  0  0
   -9.1760   -4.2675   13.0707 C   0  0  0  0  0  0
   -9.1509   -4.3840   10.5237 C   0  0  0  0  0  0
   -7.8638   -5.2302   10.6464 C   0  0  0  0  0  0
   -7.2759   -5.2011    9.2370 C   0  0  0  0  0  0
   -8.5067   -5.1460    8.3098 C   0  0  0  0  0  0
   -9.7392   -5.0265    9.2399 C   0  0  0  0  0  0
   -8.8917   -2.8670   10.3226 C   0  0  0  0  0  0
   -4.6834   -3.8735   17.7848 O   0  0  0  0  0  0
  -10.8852   -4.3211    8.6605 N   0  0  0  0  0  0
  -11.2813   -5.1021    7.4938 O   0  0  0  0  0  0
  -12.6686   -5.4189    7.6136 C   0  0  0  0  0  0
   -7.2745   -3.8727   17.6901 H   0  0  0  0  0  0
   -3.6948   -4.4781   15.3947 H   0  0  0  0  0  0
   -8.6408   -4.3456   15.7235 H   0  0  0  0  0  0
   -3.9988   -5.7406   13.2286 H   0  0  0  0  0  0
   -4.3544   -4.0993   12.6722 H   0  0  0  0  0  0
   -5.9193   -6.6581   12.1329 H   0  0  0  0  0  0
   -5.1410   -5.5780   10.9787 H   0  0  0  0  0  0
   -8.0320   -6.0675   13.2405 H   0  0  0  0  0  0
   -6.7188   -3.7439   11.7166 H   0  0  0  0  0  0
  -10.8909   -3.9822   11.7724 H   0  0  0  0  0  0
  -10.3138   -5.6382   11.8581 H   0  0  0  0  0  0
   -9.0260   -3.1842   13.1515 H   0  0  0  0  0  0
   -9.8013   -4.5521   13.9249 H   0  0  0  0  0  0
   -8.1516   -6.2787   10.8317 H   0  0  0  0  0  0
   -6.6669   -6.0879    9.0329 H   0  0  0  0  0  0
   -6.6420   -4.3209    9.0825 H   0  0  0  0  0  0
   -8.5762   -6.0446    7.6867 H   0  0  0  0  0  0
   -8.4175   -4.2882    7.6327 H   0  0  0  0  0  0
  -10.0746   -6.0437    9.4903 H   0  0  0  0  0  0
   -8.3203   -2.6533    9.4142 H   0  0  0  0  0  0
   -8.3420   -2.4182   11.1541 H   0  0  0  0  0  0
   -9.8387   -2.3205   10.2446 H   0  0  0  0  0  0
   -3.7297   -3.9405   17.5644 H   0  0  0  0  0  0
  -10.5588   -3.4512    8.2227 H   0  0  0  0  0  0
  -12.9628   -6.0025    6.7372 H   0  0  0  0  0  0
  -13.2675   -4.5031    7.6431 H   0  0  0  0  0  0
  -12.8465   -6.0197    8.5113 H   0  0  0  0  0  0
  1  2  2  0  0  0
  1  4  1  0  0  0
  1 23  1  0  0  0
  2  3  1  0  0  0
  2 19  1  0  0  0
  3  6  2  0  0  0
  3 24  1  0  0  0
  4  5  2  0  0  0
  4 25  1  0  0  0
  5  6  1  0  0  0
  5  9  1  0  0  0
  6  7  1  0  0  0
  7  8  1  0  0  0
  7 26  1  0  0  0
  7 27  1  0  0  0
  8 10  1  0  0  0
  8 28  1  0  0  0
  8 29  1  0  0  0
  9 10  1  0  0  0
  9 12  1  0  0  0
  9 30  1  0  0  0
 10 14  1  0  0  0
 10 31  1  0  0  0
 11 12  1  0  0  0
 11 13  1  0  0  0
 11 32  1  0  0  0
 11 33  1  0  0  0
 12 34  1  0  0  0
 12 35  1  0  0  0
 13 14  1  0  0  0
 13 17  1  0  0  0
 13 18  1  0  0  0
 14 15  1  0  0  0
 14 36  1  0  0  0
 15 16  1  0  0  0
 15 37  1  0  0  0
 15 38  1  0  0  0
 16 17  1  0  0  0
 16 39  1  0  0  0
 16 40  1  0  0  0
 17 20  1  0  0  0
 17 41  1  0  0  0
 18 42  1  0  0  0
 18 43  1  0  0  0
 18 44  1  0  0  0
 19 45  1  0  0  0
 20 21  1  0  0  0
 20 46  1  0  0  0
 21 22  1  0  0  0
 22 47  1  0  0  0
 22 48  1  0  0  0
 22 49  1  0  0  0
M  END
>  <Name>
lit-151

>  <Family>
A.1

>  <RBA>
1.700000

>  <RBA_avg>
1.700000

>  <Method>
RUC

>  <set>
1

$$$$
lit-152
  Cerius2 12180216403D 1   1.00000                          
 Structure written by MMmdl.
 47 50  0  0  0  0  0  0  0  0999 V2000
   -6.7882   -4.1023   16.7446 C   0  0  0  0  0  0
   -5.4059   -4.1428   16.6601 C   0  0  0  0  0  0
   -4.7818   -4.4507   15.4581 C   0  0  0  0  0  0
   -7.5593   -4.3649   15.6096 C   0  0  0  0  0  0
   -6.9595   -4.6583   14.3713 C   0  0  0  0  0  0
   -5.5492   -4.7256   14.3107 C   0  0  0  0  0  0
   -4.8103   -5.0338   13.0286 C   0  0  0  0  0  0
   -5.6938   -5.6017   11.9219 C   0  0  0  0  0  0
   -7.8050   -4.9922   13.1424 C   0  0  0  0  0  0
   -6.9914   -4.7963   11.8272 C   0  0  0  0  0  0
   -9.9785   -4.5984   11.7952 C   0  0  0  0  0  0
   -9.1755   -4.2674   13.0680 C   0  0  0  0  0  0
   -9.1509   -4.3779   10.5228 C   0  0  0  0  0  0
   -7.8615   -5.2218   10.6436 C   0  0  0  0  0  0
   -7.2760   -5.1832    9.2349 C   0  0  0  0  0  0
   -8.5122   -5.1855    8.3161 C   0  0  0  0  0  0
   -9.7385   -5.0193    9.2429 C   0  0  0  0  0  0
   -8.8945   -2.8612   10.3269 C   0  0  0  0  0  0
   -4.6850   -3.8777   17.7864 O   0  0  0  0  0  0
  -10.8171   -4.2898    8.6113 N   0  0  0  0  0  0
  -11.8024   -4.8909    7.8838 C   0  0  0  0  0  0
  -12.6786   -4.2677    7.2919 O   0  0  0  0  0  0
   -7.2761   -3.8719   17.6890 H   0  0  0  0  0  0
   -3.6952   -4.4831   15.3970 H   0  0  0  0  0  0
   -8.6413   -4.3416   15.7210 H   0  0  0  0  0  0
   -4.0000   -5.7451   13.2298 H   0  0  0  0  0  0
   -4.3500   -4.1021   12.6752 H   0  0  0  0  0  0
   -5.9195   -6.6560   12.1281 H   0  0  0  0  0  0
   -5.1386   -5.5736   10.9778 H   0  0  0  0  0  0
   -8.0296   -6.0660   13.2372 H   0  0  0  0  0  0
   -6.7139   -3.7402   11.7189 H   0  0  0  0  0  0
  -10.8935   -3.9944   11.7705 H   0  0  0  0  0  0
  -10.3031   -5.6455   11.8540 H   0  0  0  0  0  0
   -9.0269   -3.1835   13.1458 H   0  0  0  0  0  0
   -9.8005   -4.5512   13.9225 H   0  0  0  0  0  0
   -8.1468   -6.2721   10.8242 H   0  0  0  0  0  0
   -6.6329   -6.0462    9.0346 H   0  0  0  0  0  0
   -6.6787   -4.2794    9.0717 H   0  0  0  0  0  0
   -8.5842   -6.1225    7.7525 H   0  0  0  0  0  0
   -8.4361   -4.3736    7.5834 H   0  0  0  0  0  0
  -10.1179   -6.0237    9.4794 H   0  0  0  0  0  0
   -8.3661   -2.6423    9.3938 H   0  0  0  0  0  0
   -8.3057   -2.4227   11.1367 H   0  0  0  0  0  0
   -9.8406   -2.3087   10.3006 H   0  0  0  0  0  0
   -3.7313   -3.9464   17.5670 H   0  0  0  0  0  0
  -10.8094   -3.2752    8.6036 H   0  0  0  0  0  0
  -11.7474   -5.9924    7.8785 H   0  0  0  0  0  0
  1  2  2  0  0  0
  1  4  1  0  0  0
  1 23  1  0  0  0
  2  3  1  0  0  0
  2 19  1  0  0  0
  3  6  2  0  0  0
  3 24  1  0  0  0
  4  5  2  0  0  0
  4 25  1  0  0  0
  5  6  1  0  0  0
  5  9  1  0  0  0
  6  7  1  0  0  0
  7  8  1  0  0  0
  7 26  1  0  0  0
  7 27  1  0  0  0
  8 10  1  0  0  0
  8 28  1  0  0  0
  8 29  1  0  0  0
  9 10  1  0  0  0
  9 12  1  0  0  0
  9 30  1  0  0  0
 10 14  1  0  0  0
 10 31  1  0  0  0
 11 12  1  0  0  0
 11 13  1  0  0  0
 11 32  1  0  0  0
 11 33  1  0  0  0
 12 34  1  0  0  0
 12 35  1  0  0  0
 13 14  1  0  0  0
 13 17  1  0  0  0
 13 18  1  0  0  0
 14 15  1  0  0  0
 14 36  1  0  0  0
 15 16  1  0  0  0
 15 37  1  0  0  0
 15 38  1  0  0  0
 16 17  1  0  0  0
 16 39  1  0  0  0
 16 40  1  0  0  0
 17 20  1  0  0  0
 17 41  1  0  0  0
 18 42  1  0  0  0
 18 43  1  0  0  0
 18 44  1  0  0  0
 19 45  1  0  0  0
 20 21  1  0  0  0
 20 46  1  0  0  0
 21 22  2  0  0  0
 21 47  1  0  0  0
M  END
>  <Name>
lit-152

>  <Family>
A.1

>  <RBA>
<1

>  <RBA_avg>
0.000000

>  <Method>
RUC

>  <set>
1

$$$$
lit-153
  Cerius2 12180216403D 1   1.00000                          
 Structure written by MMmdl.
 45 48  0  0  0  0  0  0  0  0999 V2000
   -6.7946   -4.1356   16.7474 C   0  0  0  0  0  0
   -5.4120   -4.1618   16.6635 C   0  0  0  0  0  0
   -4.7841   -4.4478   15.4579 C   0  0  0  0  0  0
   -7.5624   -4.3908   15.6085 C   0  0  0  0  0  0
   -6.9589   -4.6621   14.3671 C   0  0  0  0  0  0
   -5.5481   -4.7147   14.3064 C   0  0  0  0  0  0
   -4.8054   -4.9982   13.0208 C   0  0  0  0  0  0
   -5.6822   -5.5594   11.9051 C   0  0  0  0  0  0
   -7.8001   -4.9880   13.1335 C   0  0  0  0  0  0
   -6.9875   -4.7666   11.8201 C   0  0  0  0  0  0
   -9.9745   -4.5689   11.7821 C   0  0  0  0  0  0
   -9.1803   -4.2783   13.0708 C   0  0  0  0  0  0
   -9.1312   -4.3108   10.5362 C   0  0  0  0  0  0
   -7.8615   -5.1866   10.6384 C   0  0  0  0  0  0
   -7.2862   -5.1797    9.2259 C   0  0  0  0  0  0
   -8.5294   -5.4042    8.3519 C   0  0  0  0  0  0
   -9.6568   -4.8483    9.2128 C   0  0  0  0  0  0
   -8.8887   -2.8010   10.3384 C   0  0  0  0  0  0
   -4.6944   -3.9047   17.7937 O   0  0  0  0  0  0
  -10.9196   -4.7843    8.9029 N   0  0  0  0  0  0
  -11.2538   -5.2919    7.6959 N   0  0  0  0  0  0
   -7.2854   -3.9220   17.6944 H   0  0  0  0  0  0
   -3.6972   -4.4689   15.3973 H   0  0  0  0  0  0
   -8.6447   -4.3792   15.7189 H   0  0  0  0  0  0
   -3.9885   -5.7043   13.2128 H   0  0  0  0  0  0
   -4.3541   -4.0572   12.6807 H   0  0  0  0  0  0
   -5.8969   -6.6190   12.0954 H   0  0  0  0  0  0
   -5.1255   -5.5109   10.9627 H   0  0  0  0  0  0
   -8.0132   -6.0653   13.2139 H   0  0  0  0  0  0
   -6.7233   -3.7057   11.7233 H   0  0  0  0  0  0
  -10.8857   -3.9586   11.7680 H   0  0  0  0  0  0
  -10.3130   -5.6133   11.7975 H   0  0  0  0  0  0
   -9.0424   -3.1958   13.1826 H   0  0  0  0  0  0
   -9.8068   -4.5949   13.9127 H   0  0  0  0  0  0
   -8.1683   -6.2304   10.8257 H   0  0  0  0  0  0
   -6.5493   -5.9731    9.0674 H   0  0  0  0  0  0
   -6.8048   -4.2248    8.9891 H   0  0  0  0  0  0
   -8.6987   -6.4717    8.1804 H   0  0  0  0  0  0
   -8.4549   -4.8757    7.3985 H   0  0  0  0  0  0
   -8.3226   -2.5852    9.4261 H   0  0  0  0  0  0
   -8.3536   -2.3424   11.1738 H   0  0  0  0  0  0
   -9.8458   -2.2744   10.2386 H   0  0  0  0  0  0
   -3.7399   -3.9613   17.5741 H   0  0  0  0  0  0
  -12.2748   -5.2909    7.5669 H   0  0  0  0  0  0
  -11.0011   -6.2853    7.6012 H   0  0  0  0  0  0
  1  2  2  0  0  0
  1  4  1  0  0  0
  1 22  1  0  0  0
  2  3  1  0  0  0
  2 19  1  0  0  0
  3  6  2  0  0  0
  3 23  1  0  0  0
  4  5  2  0  0  0
  4 24  1  0  0  0
  5  6  1  0  0  0
  5  9  1  0  0  0
  6  7  1  0  0  0
  7  8  1  0  0  0
  7 25  1  0  0  0
  7 26  1  0  0  0
  8 10  1  0  0  0
  8 27  1  0  0  0
  8 28  1  0  0  0
  9 10  1  0  0  0
  9 12  1  0  0  0
  9 29  1  0  0  0
 10 14  1  0  0  0
 10 30  1  0  0  0
 11 12  1  0  0  0
 11 13  1  0  0  0
 11 31  1  0  0  0
 11 32  1  0  0  0
 12 33  1  0  0  0
 12 34  1  0  0  0
 13 14  1  0  0  0
 13 17  1  0  0  0
 13 18  1  0  0  0
 14 15  1  0  0  0
 14 35  1  0  0  0
 15 16  1  0  0  0
 15 36  1  0  0  0
 15 37  1  0  0  0
 16 17  1  0  0  0
 16 38  1  0  0  0
 16 39  1  0  0  0
 17 20  2  0  0  0
 18 40  1  0  0  0
 18 41  1  0  0  0
 18 42  1  0  0  0
 19 43  1  0  0  0
 20 21  1  0  0  0
 21 44  1  0  0  0
 21 45  1  0  0  0
M  END
>  <Name>
lit-153

>  <Family>
A.1

>  <RBA>
81.000000

>  <RBA_avg>
81.000000

>  <Method>
RUC

>  <set>
1

$$$$
lit-154
  Cerius2 12180216403D 1   1.00000                          
 Structure written by MMmdl.
 44 47  0  0  0  0  0  0  0  0999 V2000
   -6.7946   -4.1347   16.7472 C   0  0  0  0  0  0
   -5.4120   -4.1611   16.6633 C   0  0  0  0  0  0
   -4.7841   -4.4477   15.4579 C   0  0  0  0  0  0
   -7.5625   -4.3904   15.6083 C   0  0  0  0  0  0
   -6.9588   -4.6624   14.3671 C   0  0  0  0  0  0
   -5.5480   -4.7151   14.3065 C   0  0  0  0  0  0
   -4.8054   -4.9993   13.0211 C   0  0  0  0  0  0
   -5.6823   -5.5604   11.9053 C   0  0  0  0  0  0
   -7.8002   -4.9886   13.1337 C   0  0  0  0  0  0
   -6.9873   -4.7673   11.8203 C   0  0  0  0  0  0
   -9.9746   -4.5696   11.7819 C   0  0  0  0  0  0
   -9.1807   -4.2794   13.0709 C   0  0  0  0  0  0
   -9.1306   -4.3107   10.5371 C   0  0  0  0  0  0
   -7.8612   -5.1870   10.6386 C   0  0  0  0  0  0
   -7.2861   -5.1809    9.2255 C   0  0  0  0  0  0
   -8.5296   -5.3998    8.3512 C   0  0  0  0  0  0
   -9.6521   -4.8478    9.2154 C   0  0  0  0  0  0
   -8.8891   -2.8012   10.3387 C   0  0  0  0  0  0
   -4.6944   -3.9034   17.7934 O   0  0  0  0  0  0
  -10.9104   -4.7993    8.8967 N   0  0  0  0  0  0
  -11.1228   -5.3470    7.6264 O   0  0  0  0  0  0
   -7.2854   -3.9206   17.6939 H   0  0  0  0  0  0
   -3.6972   -4.4690   15.3973 H   0  0  0  0  0  0
   -8.6448   -4.3785   15.7186 H   0  0  0  0  0  0
   -3.9887   -5.7056   13.2133 H   0  0  0  0  0  0
   -4.3536   -4.0586   12.6808 H   0  0  0  0  0  0
   -5.8972   -6.6198   12.0960 H   0  0  0  0  0  0
   -5.1256   -5.5123   10.9630 H   0  0  0  0  0  0
   -8.0129   -6.0660   13.2142 H   0  0  0  0  0  0
   -6.7230   -3.7064   11.7235 H   0  0  0  0  0  0
  -10.8859   -3.9593   11.7677 H   0  0  0  0  0  0
  -10.3130   -5.6140   11.7968 H   0  0  0  0  0  0
   -9.0433   -3.1969   13.1835 H   0  0  0  0  0  0
   -9.8072   -4.5967   13.9126 H   0  0  0  0  0  0
   -8.1682   -6.2308   10.8260 H   0  0  0  0  0  0
   -6.5518   -5.9766    9.0663 H   0  0  0  0  0  0
   -6.8014   -4.2274    8.9900 H   0  0  0  0  0  0
   -8.7058   -6.4650    8.1729 H   0  0  0  0  0  0
   -8.4580   -4.8656    7.4009 H   0  0  0  0  0  0
   -8.3209   -2.5854    9.4276 H   0  0  0  0  0  0
   -8.3558   -2.3419   11.1750 H   0  0  0  0  0  0
   -9.8462   -2.2753   10.2366 H   0  0  0  0  0  0
   -3.7399   -3.9602   17.5738 H   0  0  0  0  0  0
  -12.0925   -5.2569    7.4970 H   0  0  0  0  0  0
  1  2  2  0  0  0
  1  4  1  0  0  0
  1 22  1  0  0  0
  2  3  1  0  0  0
  2 19  1  0  0  0
  3  6  2  0  0  0
  3 23  1  0  0  0
  4  5  2  0  0  0
  4 24  1  0  0  0
  5  6  1  0  0  0
  5  9  1  0  0  0
  6  7  1  0  0  0
  7  8  1  0  0  0
  7 25  1  0  0  0
  7 26  1  0  0  0
  8 10  1  0  0  0
  8 27  1  0  0  0
  8 28  1  0  0  0
  9 10  1  0  0  0
  9 12  1  0  0  0
  9 29  1  0  0  0
 10 14  1  0  0  0
 10 30  1  0  0  0
 11 12  1  0  0  0
 11 13  1  0  0  0
 11 31  1  0  0  0
 11 32  1  0  0  0
 12 33  1  0  0  0
 12 34  1  0  0  0
 13 14  1  0  0  0
 13 17  1  0  0  0
 13 18  1  0  0  0
 14 15  1  0  0  0
 14 35  1  0  0  0
 15 16  1  0  0  0
 15 36  1  0  0  0
 15 37  1  0  0  0
 16 17  1  0  0  0
 16 38  1  0  0  0
 16 39  1  0  0  0
 17 20  2  0  0  0
 18 40  1  0  0  0
 18 41  1  0  0  0
 18 42  1  0  0  0
 19 43  1  0  0  0
 20 21  1  0  0  0
 21 44  1  0  0  0
M  END
>  <Name>
lit-154

>  <Family>
A.1

>  <RBA>
13.000000

>  <RBA_avg>
13.000000

>  <Method>
RUC

>  <set>
1

$$$$
lit-155
  Cerius2 12180216403D 1   1.00000                          
 Structure written by MMmdl.
 47 50  0  0  0  0  0  0  0  0999 V2000
   -6.7947   -4.1348   16.7472 C   0  0  0  0  0  0
   -5.4121   -4.1611   16.6633 C   0  0  0  0  0  0
   -4.7842   -4.4476   15.4580 C   0  0  0  0  0  0
   -7.5625   -4.3905   15.6083 C   0  0  0  0  0  0
   -6.9589   -4.6624   14.3670 C   0  0  0  0  0  0
   -5.5481   -4.7151   14.3065 C   0  0  0  0  0  0
   -4.8053   -4.9991   13.0211 C   0  0  0  0  0  0
   -5.6820   -5.5602   11.9052 C   0  0  0  0  0  0
   -7.8000   -4.9886   13.1336 C   0  0  0  0  0  0
   -6.9871   -4.7673   11.8202 C   0  0  0  0  0  0
   -9.9744   -4.5695   11.7818 C   0  0  0  0  0  0
   -9.1807   -4.2796   13.0709 C   0  0  0  0  0  0
   -9.1302   -4.3106   10.5373 C   0  0  0  0  0  0
   -7.8611   -5.1871   10.6386 C   0  0  0  0  0  0
   -7.2864   -5.1814    9.2254 C   0  0  0  0  0  0
   -8.5302   -5.3998    8.3514 C   0  0  0  0  0  0
   -9.6519   -4.8472    9.2159 C   0  0  0  0  0  0
   -8.8889   -2.8011   10.3386 C   0  0  0  0  0  0
   -4.6945   -3.9034   17.7935 O   0  0  0  0  0  0
  -10.9099   -4.7976    8.8985 N   0  0  0  0  0  0
  -11.1195   -5.3467    7.6265 O   0  0  0  0  0  0
  -12.5106   -5.2732    7.3206 C   0  0  0  0  0  0
   -7.2855   -3.9209   17.6939 H   0  0  0  0  0  0
   -3.6973   -4.4687   15.3973 H   0  0  0  0  0  0
   -8.6448   -4.3787   15.7186 H   0  0  0  0  0  0
   -3.9887   -5.7055   13.2134 H   0  0  0  0  0  0
   -4.3535   -4.0584   12.6808 H   0  0  0  0  0  0
   -5.8969   -6.6197   12.0956 H   0  0  0  0  0  0
   -5.1254   -5.5118   10.9629 H   0  0  0  0  0  0
   -8.0128   -6.0661   13.2141 H   0  0  0  0  0  0
   -6.7230   -3.7063   11.7235 H   0  0  0  0  0  0
  -10.8857   -3.9590   11.7675 H   0  0  0  0  0  0
  -10.3131   -5.6138   11.7964 H   0  0  0  0  0  0
   -9.0434   -3.1971   13.1837 H   0  0  0  0  0  0
   -9.8073   -4.5972   13.9124 H   0  0  0  0  0  0
   -8.1684   -6.2307   10.8262 H   0  0  0  0  0  0
   -6.5524   -5.9774    9.0660 H   0  0  0  0  0  0
   -6.8014   -4.2280    8.9896 H   0  0  0  0  0  0
   -8.7070   -6.4650    8.1733 H   0  0  0  0  0  0
   -8.4588   -4.8658    7.4010 H   0  0  0  0  0  0
   -8.3204   -2.5853    9.4277 H   0  0  0  0  0  0
   -8.3561   -2.3416   11.1751 H   0  0  0  0  0  0
   -9.8462   -2.2754   10.2361 H   0  0  0  0  0  0
   -3.7400   -3.9604   17.5740 H   0  0  0  0  0  0
  -12.6685   -5.7032    6.3283 H   0  0  0  0  0  0
  -12.8401   -4.2298    7.3118 H   0  0  0  0  0  0
  -13.0882   -5.8469    8.0519 H   0  0  0  0  0  0
  1  2  2  0  0  0
  1  4  1  0  0  0
  1 23  1  0  0  0
  2  3  1  0  0  0
  2 19  1  0  0  0
  3  6  2  0  0  0
  3 24  1  0  0  0
  4  5  2  0  0  0
  4 25  1  0  0  0
  5  6  1  0  0  0
  5  9  1  0  0  0
  6  7  1  0  0  0
  7  8  1  0  0  0
  7 26  1  0  0  0
  7 27  1  0  0  0
  8 10  1  0  0  0
  8 28  1  0  0  0
  8 29  1  0  0  0
  9 10  1  0  0  0
  9 12  1  0  0  0
  9 30  1  0  0  0
 10 14  1  0  0  0
 10 31  1  0  0  0
 11 12  1  0  0  0
 11 13  1  0  0  0
 11 32  1  0  0  0
 11 33  1  0  0  0
 12 34  1  0  0  0
 12 35  1  0  0  0
 13 14  1  0  0  0
 13 17  1  0  0  0
 13 18  1  0  0  0
 14 15  1  0  0  0
 14 36  1  0  0  0
 15 16  1  0  0  0
 15 37  1  0  0  0
 15 38  1  0  0  0
 16 17  1  0  0  0
 16 39  1  0  0  0
 16 40  1  0  0  0
 17 20  2  0  0  0
 18 41  1  0  0  0
 18 42  1  0  0  0
 18 43  1  0  0  0
 19 44  1  0  0  0
 20 21  1  0  0  0
 21 22  1  0  0  0
 22 45  1  0  0  0
 22 46  1  0  0  0
 22 47  1  0  0  0
M  END
>  <Name>
lit-155

>  <Family>
A.1

>  <RBA>
2.200000

>  <RBA_avg>
2.200000

>  <Method>
RUC

>  <set>
2

$$$$
lit-156
  Cerius2 12180216403D 1   1.00000                          
 Structure written by MMmdl.
 47 50  0  0  0  0  0  0  0  0999 V2000
   -6.7903   -4.1473   16.7517 C   0  0  0  0  0  0
   -5.4078   -4.1682   16.6645 C   0  0  0  0  0  0
   -4.7819   -4.4465   15.4561 C   0  0  0  0  0  0
   -7.5600   -4.3995   15.6134 C   0  0  0  0  0  0
   -6.9583   -4.6624   14.3691 C   0  0  0  0  0  0
   -5.5477   -4.7106   14.3054 C   0  0  0  0  0  0
   -4.8087   -4.9871   13.0167 C   0  0  0  0  0  0
   -5.6878   -5.5490   11.9031 C   0  0  0  0  0  0
   -7.8013   -4.9843   13.1357 C   0  0  0  0  0  0
   -6.9962   -4.7592   11.8223 C   0  0  0  0  0  0
   -9.9778   -4.5587   11.7899 C   0  0  0  0  0  0
   -9.1727   -4.2673   13.0724 C   0  0  0  0  0  0
   -9.1630   -4.3061   10.5215 C   0  0  0  0  0  0
   -7.8754   -5.1792   10.6423 C   0  0  0  0  0  0
   -7.2735   -5.1879    9.2386 C   0  0  0  0  0  0
   -8.4958   -5.4321    8.3474 C   0  0  0  0  0  0
   -9.6125   -4.8608    9.1872 C   0  0  0  0  0  0
   -8.8947   -2.7996   10.3236 C   0  0  0  0  0  0
   -4.6885   -3.9141   17.7943 O   0  0  0  0  0  0
  -10.8352   -4.8515    8.7081 N   0  3  0  0  0  0
  -11.0586   -5.3580    7.5446 O   0  5  0  0  0  0
  -12.0047   -4.3007    9.4088 C   0  0  0  0  0  0
   -7.2797   -3.9401   17.7009 H   0  0  0  0  0  0
   -3.6951   -4.4640   15.3929 H   0  0  0  0  0  0
   -8.6419   -4.3926   15.7263 H   0  0  0  0  0  0
   -3.9881   -5.6905   13.2035 H   0  0  0  0  0  0
   -4.3623   -4.0434   12.6775 H   0  0  0  0  0  0
   -5.8992   -6.6094   12.0921 H   0  0  0  0  0  0
   -5.1322   -5.4972   10.9605 H   0  0  0  0  0  0
   -8.0181   -6.0610   13.2145 H   0  0  0  0  0  0
   -6.7332   -3.6983   11.7255 H   0  0  0  0  0  0
  -10.8766   -3.9335   11.8128 H   0  0  0  0  0  0
  -10.3261   -5.5993   11.8115 H   0  0  0  0  0  0
   -9.0271   -3.1849   13.1769 H   0  0  0  0  0  0
   -9.7989   -4.5731   13.9186 H   0  0  0  0  0  0
   -8.1827   -6.2224   10.8350 H   0  0  0  0  0  0
   -6.5293   -5.9786    9.1028 H   0  0  0  0  0  0
   -6.7945   -4.2324    8.9993 H   0  0  0  0  0  0
   -8.6647   -6.5024    8.1930 H   0  0  0  0  0  0
   -8.4033   -4.9203    7.3864 H   0  0  0  0  0  0
   -8.3434   -2.5919    9.4002 H   0  0  0  0  0  0
   -8.3318   -2.3555   11.1484 H   0  0  0  0  0  0
   -9.8368   -2.2459   10.2497 H   0  0  0  0  0  0
   -3.7343   -3.9670   17.5724 H   0  0  0  0  0  0
  -12.2630   -4.9682   10.2328 H   0  0  0  0  0  0
  -12.8462   -4.2555    8.7112 H   0  0  0  0  0  0
  -11.7854   -3.2902    9.7535 H   0  0  0  0  0  0
  1  2  2  0  0  0
  1  4  1  0  0  0
  1 23  1  0  0  0
  2  3  1  0  0  0
  2 19  1  0  0  0
  3  6  2  0  0  0
  3 24  1  0  0  0
  4  5  2  0  0  0
  4 25  1  0  0  0
  5  6  1  0  0  0
  5  9  1  0  0  0
  6  7  1  0  0  0
  7  8  1  0  0  0
  7 26  1  0  0  0
  7 27  1  0  0  0
  8 10  1  0  0  0
  8 28  1  0  0  0
  8 29  1  0  0  0
  9 10  1  0  0  0
  9 12  1  0  0  0
  9 30  1  0  0  0
 10 14  1  0  0  0
 10 31  1  0  0  0
 11 12  1  0  0  0
 11 13  1  0  0  0
 11 32  1  0  0  0
 11 33  1  0  0  0
 12 34  1  0  0  0
 12 35  1  0  0  0
 13 14  1  0  0  0
 13 17  1  0  0  0
 13 18  1  0  0  0
 14 15  1  0  0  0
 14 36  1  0  0  0
 15 16  1  0  0  0
 15 37  1  0  0  0
 15 38  1  0  0  0
 16 17  1  0  0  0
 16 39  1  0  0  0
 16 40  1  0  0  0
 17 20  2  0  0  0
 18 41  1  0  0  0
 18 42  1  0  0  0
 18 43  1  0  0  0
 19 44  1  0  0  0
 20 21  1  0  0  0
 20 22  1  0  0  0
 22 45  1  0  0  0
 22 46  1  0  0  0
 22 47  1  0  0  0
M  CHG  2  20   1  21  -1
M  END
>  <Name>
lit-156

>  <Family>
A.1

>  <RBA>
<1

>  <RBA_avg>
0.000000

>  <Method>
RUC

>  <set>
1

$$$$
lit-157
  Cerius2 12180216403D 1   1.00000                          
 Structure written by MMmdl.
 46 49  0  0  0  0  0  0  0  0999 V2000
   -6.7949   -4.1355   16.7476 C   0  0  0  0  0  0
   -5.4122   -4.1618   16.6639 C   0  0  0  0  0  0
   -4.7841   -4.4477   15.4584 C   0  0  0  0  0  0
   -7.5624   -4.3905   15.6083 C   0  0  0  0  0  0
   -6.9585   -4.6619   14.3671 C   0  0  0  0  0  0
   -5.5478   -4.7146   14.3067 C   0  0  0  0  0  0
   -4.8048   -4.9982   13.0212 C   0  0  0  0  0  0
   -5.6814   -5.5597   11.9053 C   0  0  0  0  0  0
   -7.7997   -4.9879   13.1336 C   0  0  0  0  0  0
   -6.9866   -4.7668   11.8200 C   0  0  0  0  0  0
   -9.9739   -4.5690   11.7810 C   0  0  0  0  0  0
   -9.1803   -4.2787   13.0704 C   0  0  0  0  0  0
   -9.1288   -4.3104   10.5368 C   0  0  0  0  0  0
   -7.8610   -5.1870   10.6385 C   0  0  0  0  0  0
   -7.2877   -5.1817    9.2252 C   0  0  0  0  0  0
   -8.5321   -5.4014    8.3527 C   0  0  0  0  0  0
   -9.6530   -4.8441    9.2146 C   0  0  0  0  0  0
   -8.8904   -2.8015   10.3368 C   0  0  0  0  0  0
   -4.6949   -3.9048   17.7943 O   0  0  0  0  0  0
  -10.9148   -4.7780    8.9119 N   0  0  0  0  0  0
  -11.2938   -5.3034    7.6287 N   0  3  0  0  0  0
   -7.2858   -3.9222   17.6944 H   0  0  0  0  0  0
   -3.6972   -4.4687   15.3981 H   0  0  0  0  0  0
   -8.6448   -4.3786   15.7185 H   0  0  0  0  0  0
   -3.9879   -5.7042   13.2134 H   0  0  0  0  0  0
   -4.3535   -4.0572   12.6811 H   0  0  0  0  0  0
   -5.8962   -6.6191   12.0959 H   0  0  0  0  0  0
   -5.1248   -5.5113   10.9630 H   0  0  0  0  0  0
   -8.0125   -6.0654   13.2141 H   0  0  0  0  0  0
   -6.7229   -3.7059   11.7229 H   0  0  0  0  0  0
  -10.8850   -3.9584   11.7667 H   0  0  0  0  0  0
  -10.3124   -5.6134   11.7959 H   0  0  0  0  0  0
   -9.0428   -3.1962   13.1829 H   0  0  0  0  0  0
   -9.8071   -4.5961   13.9118 H   0  0  0  0  0  0
   -8.1684   -6.2306   10.8265 H   0  0  0  0  0  0
   -6.5535   -5.9774    9.0656 H   0  0  0  0  0  0
   -6.8034   -4.2283    8.9886 H   0  0  0  0  0  0
   -8.7102   -6.4669    8.1786 H   0  0  0  0  0  0
   -8.4592   -4.8715    7.4002 H   0  0  0  0  0  0
   -8.3228   -2.5853    9.4254 H   0  0  0  0  0  0
   -8.3571   -2.3408   11.1724 H   0  0  0  0  0  0
   -9.8481   -2.2766   10.2351 H   0  0  0  0  0  0
   -3.7403   -3.9612   17.5749 H   0  0  0  0  0  0
  -11.1036   -6.3038    7.5138 H   0  0  0  0  0  0
  -10.8730   -4.8111    6.8345 H   0  0  0  0  0  0
  -12.3055   -5.2130    7.4839 H   0  0  0  0  0  0
  1  2  2  0  0  0
  1  4  1  0  0  0
  1 22  1  0  0  0
  2  3  1  0  0  0
  2 19  1  0  0  0
  3  6  2  0  0  0
  3 23  1  0  0  0
  4  5  2  0  0  0
  4 24  1  0  0  0
  5  6  1  0  0  0
  5  9  1  0  0  0
  6  7  1  0  0  0
  7  8  1  0  0  0
  7 25  1  0  0  0
  7 26  1  0  0  0
  8 10  1  0  0  0
  8 27  1  0  0  0
  8 28  1  0  0  0
  9 10  1  0  0  0
  9 12  1  0  0  0
  9 29  1  0  0  0
 10 14  1  0  0  0
 10 30  1  0  0  0
 11 12  1  0  0  0
 11 13  1  0  0  0
 11 31  1  0  0  0
 11 32  1  0  0  0
 12 33  1  0  0  0
 12 34  1  0  0  0
 13 14  1  0  0  0
 13 17  1  0  0  0
 13 18  1  0  0  0
 14 15  1  0  0  0
 14 35  1  0  0  0
 15 16  1  0  0  0
 15 36  1  0  0  0
 15 37  1  0  0  0
 16 17  1  0  0  0
 16 38  1  0  0  0
 16 39  1  0  0  0
 17 20  2  0  0  0
 18 40  1  0  0  0
 18 41  1  0  0  0
 18 42  1  0  0  0
 19 43  1  0  0  0
 20 21  1  0  0  0
 21 44  1  0  0  0
 21 45  1  0  0  0
 21 46  1  0  0  0
M  CHG  1  21   1
M  END
>  <Name>
lit-157

>  <Family>
A.1

>  <RBA>
<2

>  <RBA_avg>
0.000000

>  <Method>
RUC

>  <set>
0

$$$$
lit-158
  Cerius2 12180216413D 1   1.00000                          
 Structure written by MMmdl.
 45 48  0  0  0  0  0  0  0  0999 V2000
   -6.7939   -4.1285   16.7457 C   0  0  0  0  0  0
   -5.4113   -4.1568   16.6614 C   0  0  0  0  0  0
   -4.7842   -4.4474   15.4566 C   0  0  0  0  0  0
   -7.5624   -4.3860   15.6077 C   0  0  0  0  0  0
   -6.9595   -4.6619   14.3670 C   0  0  0  0  0  0
   -5.5489   -4.7169   14.3061 C   0  0  0  0  0  0
   -4.8073   -5.0059   13.0212 C   0  0  0  0  0  0
   -5.6857   -5.5686   11.9076 C   0  0  0  0  0  0
   -7.8015   -4.9899   13.1343 C   0  0  0  0  0  0
   -6.9897   -4.7733   11.8208 C   0  0  0  0  0  0
   -9.9738   -4.5782   11.7826 C   0  0  0  0  0  0
   -9.1793   -4.2781   13.0693 C   0  0  0  0  0  0
   -9.1342   -4.3251   10.5214 C   0  0  0  0  0  0
   -7.8628   -5.1943   10.6376 C   0  0  0  0  0  0
   -7.2820   -5.1760    9.2300 C   0  0  0  0  0  0
   -8.5292   -5.3674    8.3566 C   0  0  0  0  0  0
   -9.6771   -4.8434    9.1995 C   0  0  0  0  0  0
   -8.8826   -2.8080   10.3512 C   0  0  0  0  0  0
   -4.6931   -3.8971   17.7907 O   0  0  0  0  0  0
  -10.9228   -4.8265    8.8217 C   0  0  0  0  0  0
  -12.1647   -4.8082    8.4474 C   0  0  0  0  0  0
   -7.2841   -3.9115   17.6921 H   0  0  0  0  0  0
   -3.6973   -4.4703   15.3958 H   0  0  0  0  0  0
   -8.6447   -4.3724   15.7184 H   0  0  0  0  0  0
   -3.9917   -5.7130   13.2151 H   0  0  0  0  0  0
   -4.3540   -4.0668   12.6781 H   0  0  0  0  0  0
   -5.9026   -6.6271   12.1013 H   0  0  0  0  0  0
   -5.1293   -5.5243   10.9649 H   0  0  0  0  0  0
   -8.0162   -6.0667   13.2179 H   0  0  0  0  0  0
   -6.7222   -3.7135   11.7218 H   0  0  0  0  0  0
  -10.8863   -3.9692   11.7714 H   0  0  0  0  0  0
  -10.3041   -5.6253   11.8110 H   0  0  0  0  0  0
   -9.0420   -3.1954   13.1779 H   0  0  0  0  0  0
   -9.8058   -4.5910   13.9128 H   0  0  0  0  0  0
   -8.1632   -6.2401   10.8253 H   0  0  0  0  0  0
   -6.5581   -5.9799    9.0631 H   0  0  0  0  0  0
   -6.7834   -4.2264    9.0071 H   0  0  0  0  0  0
   -8.6829   -6.4308    8.1407 H   0  0  0  0  0  0
   -8.4330   -4.8247    7.4112 H   0  0  0  0  0  0
   -8.2922   -2.5774    9.4576 H   0  0  0  0  0  0
   -8.3594   -2.3652   11.2027 H   0  0  0  0  0  0
   -9.8340   -2.2710   10.2490 H   0  0  0  0  0  0
   -3.7387   -3.9553   17.5709 H   0  0  0  0  0  0
  -12.4299   -4.7563    7.3966 H   0  0  0  0  0  0
  -12.9671   -4.8433    9.1770 H   0  0  0  0  0  0
  1  2  2  0  0  0
  1  4  1  0  0  0
  1 22  1  0  0  0
  2  3  1  0  0  0
  2 19  1  0  0  0
  3  6  2  0  0  0
  3 23  1  0  0  0
  4  5  2  0  0  0
  4 24  1  0  0  0
  5  6  1  0  0  0
  5  9  1  0  0  0
  6  7  1  0  0  0
  7  8  1  0  0  0
  7 25  1  0  0  0
  7 26  1  0  0  0
  8 10  1  0  0  0
  8 27  1  0  0  0
  8 28  1  0  0  0
  9 10  1  0  0  0
  9 12  1  0  0  0
  9 29  1  0  0  0
 10 14  1  0  0  0
 10 30  1  0  0  0
 11 12  1  0  0  0
 11 13  1  0  0  0
 11 31  1  0  0  0
 11 32  1  0  0  0
 12 33  1  0  0  0
 12 34  1  0  0  0
 13 14  1  0  0  0
 13 17  1  0  0  0
 13 18  1  0  0  0
 14 15  1  0  0  0
 14 35  1  0  0  0
 15 16  1  0  0  0
 15 36  1  0  0  0
 15 37  1  0  0  0
 16 17  1  0  0  0
 16 38  1  0  0  0
 16 39  1  0  0  0
 17 20  2  0  0  0
 18 40  1  0  0  0
 18 41  1  0  0  0
 18 42  1  0  0  0
 19 43  1  0  0  0
 20 21  2  0  0  0
 21 44  1  0  0  0
 21 45  1  0  0  0
M  END
>  <Name>
lit-158

>  <Family>
A.1

>  <RBA>
<1

>  <RBA_avg>
0.000000

>  <Method>
RUC

>  <set>
1

$$$$
lit-159
  Cerius2 12180216413D 1   1.00000                          
 Structure written by MMmdl.
 44 47  0  0  0  0  0  0  0  0999 V2000
   -6.7907   -4.1273   16.7478 C   0  0  0  0  0  0
   -5.4083   -4.1557   16.6617 C   0  0  0  0  0  0
   -4.7829   -4.4469   15.4562 C   0  0  0  0  0  0
   -7.5608   -4.3851   15.6109 C   0  0  0  0  0  0
   -6.9598   -4.6613   14.3693 C   0  0  0  0  0  0
   -5.5493   -4.7168   14.3070 C   0  0  0  0  0  0
   -4.8096   -5.0072   13.0214 C   0  0  0  0  0  0
   -5.6898   -5.5745   11.9117 C   0  0  0  0  0  0
   -7.8041   -4.9890   13.1380 C   0  0  0  0  0  0
   -6.9939   -4.7790   11.8231 C   0  0  0  0  0  0
   -9.9758   -4.5758   11.7905 C   0  0  0  0  0  0
   -9.1761   -4.2680   13.0715 C   0  0  0  0  0  0
   -9.1412   -4.3402   10.5223 C   0  0  0  0  0  0
   -7.8663   -5.2039   10.6398 C   0  0  0  0  0  0
   -7.2766   -5.1752    9.2343 C   0  0  0  0  0  0
   -8.5146   -5.3328    8.3391 C   0  0  0  0  0  0
   -9.6745   -4.8754    9.2040 C   0  0  0  0  0  0
   -8.8931   -2.8247   10.3332 C   0  0  0  0  0  0
   -4.6886   -3.8956   17.7899 O   0  0  0  0  0  0
  -10.9606   -5.0123    8.8552 C   0  0  0  0  0  0
   -7.2797   -3.9101   17.6949 H   0  0  0  0  0  0
   -3.6961   -4.4700   15.3939 H   0  0  0  0  0  0
   -8.6429   -4.3719   15.7233 H   0  0  0  0  0  0
   -3.9925   -5.7126   13.2151 H   0  0  0  0  0  0
   -4.3589   -4.0683   12.6748 H   0  0  0  0  0  0
   -5.9069   -6.6321   12.1103 H   0  0  0  0  0  0
   -5.1345   -5.5347   10.9682 H   0  0  0  0  0  0
   -8.0246   -6.0644   13.2245 H   0  0  0  0  0  0
   -6.7265   -3.7195   11.7197 H   0  0  0  0  0  0
  -10.8850   -3.9621   11.7785 H   0  0  0  0  0  0
  -10.3107   -5.6210   11.8310 H   0  0  0  0  0  0
   -9.0308   -3.1854   13.1693 H   0  0  0  0  0  0
   -9.8026   -4.5684   13.9193 H   0  0  0  0  0  0
   -8.1619   -6.2516   10.8241 H   0  0  0  0  0  0
   -6.5623   -5.9868    9.0632 H   0  0  0  0  0  0
   -6.7599   -4.2308    9.0300 H   0  0  0  0  0  0
   -8.6456   -6.3830    8.0553 H   0  0  0  0  0  0
   -8.4167   -4.7248    7.4346 H   0  0  0  0  0  0
   -8.3051   -2.6008    9.4365 H   0  0  0  0  0  0
   -8.3696   -2.3713   11.1792 H   0  0  0  0  0  0
   -9.8466   -2.2925   10.2262 H   0  0  0  0  0  0
   -3.7345   -3.9534   17.5687 H   0  0  0  0  0  0
  -11.2430   -5.4385    7.8958 H   0  0  0  0  0  0
  -11.7690   -4.6996    9.5102 H   0  0  0  0  0  0
  1  2  2  0  0  0
  1  4  1  0  0  0
  1 21  1  0  0  0
  2  3  1  0  0  0
  2 19  1  0  0  0
  3  6  2  0  0  0
  3 22  1  0  0  0
  4  5  2  0  0  0
  4 23  1  0  0  0
  5  6  1  0  0  0
  5  9  1  0  0  0
  6  7  1  0  0  0
  7  8  1  0  0  0
  7 24  1  0  0  0
  7 25  1  0  0  0
  8 10  1  0  0  0
  8 26  1  0  0  0
  8 27  1  0  0  0
  9 10  1  0  0  0
  9 12  1  0  0  0
  9 28  1  0  0  0
 10 14  1  0  0  0
 10 29  1  0  0  0
 11 12  1  0  0  0
 11 13  1  0  0  0
 11 30  1  0  0  0
 11 31  1  0  0  0
 12 32  1  0  0  0
 12 33  1  0  0  0
 13 14  1  0  0  0
 13 17  1  0  0  0
 13 18  1  0  0  0
 14 15  1  0  0  0
 14 34  1  0  0  0
 15 16  1  0  0  0
 15 35  1  0  0  0
 15 36  1  0  0  0
 16 17  1  0  0  0
 16 37  1  0  0  0
 16 38  1  0  0  0
 17 20  2  0  0  0
 18 39  1  0  0  0
 18 40  1  0  0  0
 18 41  1  0  0  0
 19 42  1  0  0  0
 20 43  1  0  0  0
 20 44  1  0  0  0
M  END
>  <Name>
lit-159

>  <Family>
A.1

>  <RBA>
63.000000

>  <RBA_avg>
63.000000

>  <Method>
RUC

>  <set>
0

$$$$
lit-160
  Cerius2 12180216413D 1   1.00000                          
 Structure written by MMmdl.
 45 48  0  0  0  0  0  0  0  0999 V2000
   -6.7880   -4.1039   16.7450 C   0  0  0  0  0  0
   -5.4058   -4.1420   16.6597 C   0  0  0  0  0  0
   -4.7817   -4.4489   15.4574 C   0  0  0  0  0  0
   -7.5593   -4.3676   15.6102 C   0  0  0  0  0  0
   -6.9597   -4.6595   14.3716 C   0  0  0  0  0  0
   -5.5493   -4.7249   14.3104 C   0  0  0  0  0  0
   -4.8106   -5.0322   13.0280 C   0  0  0  0  0  0
   -5.6942   -5.6015   11.9219 C   0  0  0  0  0  0
   -7.8053   -4.9936   13.1428 C   0  0  0  0  0  0
   -6.9925   -4.7972   11.8275 C   0  0  0  0  0  0
   -9.9786   -4.5968   11.7958 C   0  0  0  0  0  0
   -9.1754   -4.2684   13.0690 C   0  0  0  0  0  0
   -9.1513   -4.3784   10.5214 C   0  0  0  0  0  0
   -7.8626   -5.2236   10.6443 C   0  0  0  0  0  0
   -7.2757   -5.1855    9.2369 C   0  0  0  0  0  0
   -8.5114   -5.1829    8.3169 C   0  0  0  0  0  0
   -9.7402   -5.0179    9.2405 C   0  0  0  0  0  0
   -8.8904   -2.8605   10.3264 C   0  0  0  0  0  0
   -4.6848   -3.8755   17.7856 O   0  0  0  0  0  0
  -10.8295   -4.2622    8.6034 C   0  0  0  0  0  0
  -11.7243   -3.6542    8.0814 C   0  0  0  0  0  0
   -7.2759   -3.8743   17.6896 H   0  0  0  0  0  0
   -3.6951   -4.4797   15.3958 H   0  0  0  0  0  0
   -8.6412   -4.3460   15.7220 H   0  0  0  0  0  0
   -3.9995   -5.7426   13.2286 H   0  0  0  0  0  0
   -4.3518   -4.0999   12.6741 H   0  0  0  0  0  0
   -5.9190   -6.6559   12.1287 H   0  0  0  0  0  0
   -5.1394   -5.5733   10.9776 H   0  0  0  0  0  0
   -8.0298   -6.0675   13.2377 H   0  0  0  0  0  0
   -6.7162   -3.7408   11.7188 H   0  0  0  0  0  0
  -10.8920   -3.9903   11.7728 H   0  0  0  0  0  0
  -10.3058   -5.6433   11.8544 H   0  0  0  0  0  0
   -9.0266   -3.1848   13.1490 H   0  0  0  0  0  0
   -9.8005   -4.5534   13.9231 H   0  0  0  0  0  0
   -8.1491   -6.2734   10.8253 H   0  0  0  0  0  0
   -6.6353   -6.0504    9.0364 H   0  0  0  0  0  0
   -6.6750   -4.2836    9.0750 H   0  0  0  0  0  0
   -8.5818   -6.1215    7.7551 H   0  0  0  0  0  0
   -8.4264   -4.3746    7.5808 H   0  0  0  0  0  0
  -10.1198   -6.0218    9.4791 H   0  0  0  0  0  0
   -8.3403   -2.6438    9.4053 H   0  0  0  0  0  0
   -8.3194   -2.4203   11.1479 H   0  0  0  0  0  0
   -9.8354   -2.3075   10.2765 H   0  0  0  0  0  0
   -3.7309   -3.9413   17.5653 H   0  0  0  0  0  0
  -12.5193   -3.1134    7.6178 H   0  0  0  0  0  0
  1  2  2  0  0  0
  1  4  1  0  0  0
  1 22  1  0  0  0
  2  3  1  0  0  0
  2 19  1  0  0  0
  3  6  2  0  0  0
  3 23  1  0  0  0
  4  5  2  0  0  0
  4 24  1  0  0  0
  5  6  1  0  0  0
  5  9  1  0  0  0
  6  7  1  0  0  0
  7  8  1  0  0  0
  7 25  1  0  0  0
  7 26  1  0  0  0
  8 10  1  0  0  0
  8 27  1  0  0  0
  8 28  1  0  0  0
  9 10  1  0  0  0
  9 12  1  0  0  0
  9 29  1  0  0  0
 10 14  1  0  0  0
 10 30  1  0  0  0
 11 12  1  0  0  0
 11 13  1  0  0  0
 11 31  1  0  0  0
 11 32  1  0  0  0
 12 33  1  0  0  0
 12 34  1  0  0  0
 13 14  1  0  0  0
 13 17  1  0  0  0
 13 18  1  0  0  0
 14 15  1  0  0  0
 14 35  1  0  0  0
 15 16  1  0  0  0
 15 36  1  0  0  0
 15 37  1  0  0  0
 16 17  1  0  0  0
 16 38  1  0  0  0
 16 39  1  0  0  0
 17 20  1  0  0  0
 17 40  1  0  0  0
 18 41  1  0  0  0
 18 42  1  0  0  0
 18 43  1  0  0  0
 19 44  1  0  0  0
 20 21  3  0  0  0
 21 45  1  0  0  0
M  END
>  <Name>
lit-160

>  <Family>
A.1

>  <RBA>
<1

>  <RBA_avg>
0.000000

>  <Method>
RUC

>  <set>
2

$$$$
lit-161
  Cerius2 12180216413D 1   1.00000                          
 Structure written by MMmdl.
 49 52  0  0  0  0  0  0  0  0999 V2000
   -6.7880   -4.1027   16.7446 C   0  0  0  0  0  0
   -5.4057   -4.1412   16.6595 C   0  0  0  0  0  0
   -4.7816   -4.4489   15.4573 C   0  0  0  0  0  0
   -7.5592   -4.3670   15.6100 C   0  0  0  0  0  0
   -6.9594   -4.6599   14.3716 C   0  0  0  0  0  0
   -5.5491   -4.7251   14.3105 C   0  0  0  0  0  0
   -4.8105   -5.0326   13.0280 C   0  0  0  0  0  0
   -5.6941   -5.6025   11.9222 C   0  0  0  0  0  0
   -7.8052   -4.9947   13.1429 C   0  0  0  0  0  0
   -6.9924   -4.7983   11.8278 C   0  0  0  0  0  0
   -9.9778   -4.5971   11.7951 C   0  0  0  0  0  0
   -9.1754   -4.2700   13.0692 C   0  0  0  0  0  0
   -9.1489   -4.3780   10.5220 C   0  0  0  0  0  0
   -7.8627   -5.2249   10.6449 C   0  0  0  0  0  0
   -7.2753   -5.1895    9.2383 C   0  0  0  0  0  0
   -8.5088   -5.1789    8.3165 C   0  0  0  0  0  0
   -9.7429   -5.0134    9.2381 C   0  0  0  0  0  0
   -8.8949   -2.8618   10.3276 C   0  0  0  0  0  0
   -4.6847   -3.8744   17.7853 O   0  0  0  0  0  0
  -10.9043   -4.2578    8.5845 C   0  0  0  0  0  0
  -11.5130   -5.0262    7.4191 C   0  0  0  0  0  0
   -7.2759   -3.8723   17.6891 H   0  0  0  0  0  0
   -3.6950   -4.4798   15.3958 H   0  0  0  0  0  0
   -8.6412   -4.3452   15.7218 H   0  0  0  0  0  0
   -3.9991   -5.7428   13.2288 H   0  0  0  0  0  0
   -4.3520   -4.1005   12.6739 H   0  0  0  0  0  0
   -5.9186   -6.6568   12.1294 H   0  0  0  0  0  0
   -5.1392   -5.5746   10.9778 H   0  0  0  0  0  0
   -8.0294   -6.0686   13.2381 H   0  0  0  0  0  0
   -6.7167   -3.7417   11.7187 H   0  0  0  0  0  0
  -10.8905   -3.9899   11.7726 H   0  0  0  0  0  0
  -10.3060   -5.6431   11.8524 H   0  0  0  0  0  0
   -9.0271   -3.1865   13.1504 H   0  0  0  0  0  0
   -9.8009   -4.5563   13.9226 H   0  0  0  0  0  0
   -8.1506   -6.2741   10.8268 H   0  0  0  0  0  0
   -6.6393   -6.0577    9.0380 H   0  0  0  0  0  0
   -6.6694   -4.2909    9.0772 H   0  0  0  0  0  0
   -8.5794   -6.1130    7.7482 H   0  0  0  0  0  0
   -8.4237   -4.3607    7.5925 H   0  0  0  0  0  0
  -10.1041   -6.0219    9.4897 H   0  0  0  0  0  0
   -8.3458   -2.6432    9.4066 H   0  0  0  0  0  0
   -8.3258   -2.4187   11.1488 H   0  0  0  0  0  0
   -9.8432   -2.3144   10.2773 H   0  0  0  0  0  0
   -3.7309   -3.9412   17.5653 H   0  0  0  0  0  0
  -10.5755   -3.2789    8.2181 H   0  0  0  0  0  0
  -11.6873   -4.0767    9.3300 H   0  0  0  0  0  0
  -12.3631   -4.4732    7.0069 H   0  0  0  0  0  0
  -11.8728   -6.0084    7.7417 H   0  0  0  0  0  0
  -10.7862   -5.1722    6.6143 H   0  0  0  0  0  0
  1  2  2  0  0  0
  1  4  1  0  0  0
  1 22  1  0  0  0
  2  3  1  0  0  0
  2 19  1  0  0  0
  3  6  2  0  0  0
  3 23  1  0  0  0
  4  5  2  0  0  0
  4 24  1  0  0  0
  5  6  1  0  0  0
  5  9  1  0  0  0
  6  7  1  0  0  0
  7  8  1  0  0  0
  7 25  1  0  0  0
  7 26  1  0  0  0
  8 10  1  0  0  0
  8 27  1  0  0  0
  8 28  1  0  0  0
  9 10  1  0  0  0
  9 12  1  0  0  0
  9 29  1  0  0  0
 10 14  1  0  0  0
 10 30  1  0  0  0
 11 12  1  0  0  0
 11 13  1  0  0  0
 11 31  1  0  0  0
 11 32  1  0  0  0
 12 33  1  0  0  0
 12 34  1  0  0  0
 13 14  1  0  0  0
 13 17  1  0  0  0
 13 18  1  0  0  0
 14 15  1  0  0  0
 14 35  1  0  0  0
 15 16  1  0  0  0
 15 36  1  0  0  0
 15 37  1  0  0  0
 16 17  1  0  0  0
 16 38  1  0  0  0
 16 39  1  0  0  0
 17 20  1  0  0  0
 17 40  1  0  0  0
 18 41  1  0  0  0
 18 42  1  0  0  0
 18 43  1  0  0  0
 19 44  1  0  0  0
 20 21  1  0  0  0
 20 45  1  0  0  0
 20 46  1  0  0  0
 21 47  1  0  0  0
 21 48  1  0  0  0
 21 49  1  0  0  0
M  END
>  <Name>
lit-161

>  <Family>
A.1

>  <RBA>
6.300000

>  <RBA_avg>
6.300000

>  <Method>
RUC

>  <set>
0

$$$$
lit-162
  Cerius2 12180216413D 1   1.00000                          
 Structure written by MMmdl.
 43 46  0  0  0  0  0  0  0  0999 V2000
   -6.7897   -4.1101   16.7455 C   0  0  0  0  0  0
   -5.4073   -4.1414   16.6597 C   0  0  0  0  0  0
   -4.7823   -4.4428   15.4565 C   0  0  0  0  0  0
   -7.5601   -4.3755   15.6107 C   0  0  0  0  0  0
   -6.9595   -4.6623   14.3713 C   0  0  0  0  0  0
   -5.5489   -4.7205   14.3093 C   0  0  0  0  0  0
   -4.8093   -5.0219   13.0260 C   0  0  0  0  0  0
   -5.6901   -5.5969   11.9208 C   0  0  0  0  0  0
   -7.8044   -4.9980   13.1425 C   0  0  0  0  0  0
   -6.9923   -4.7999   11.8266 C   0  0  0  0  0  0
   -9.9759   -4.5960   11.7922 C   0  0  0  0  0  0
   -9.1763   -4.2749   13.0697 C   0  0  0  0  0  0
   -9.1389   -4.3789   10.5274 C   0  0  0  0  0  0
   -7.8618   -5.2320   10.6456 C   0  0  0  0  0  0
   -7.2793   -5.1990    9.2379 C   0  0  0  0  0  0
   -8.5196   -5.2046    8.3277 C   0  0  0  0  0  0
   -9.7367   -4.9672    9.2412 C   0  0  0  0  0  0
   -8.8972   -2.8653   10.3145 C   0  0  0  0  0  0
   -4.6871   -3.8739   17.7859 O   0  0  0  0  0  0
   -7.2784   -3.8846   17.6908 H   0  0  0  0  0  0
   -3.6955   -4.4681   15.3945 H   0  0  0  0  0  0
   -8.6422   -4.3595   15.7227 H   0  0  0  0  0  0
   -3.9931   -5.7267   13.2256 H   0  0  0  0  0  0
   -4.3574   -4.0863   12.6722 H   0  0  0  0  0  0
   -5.9090   -6.6524   12.1285 H   0  0  0  0  0  0
   -5.1359   -5.5663   10.9762 H   0  0  0  0  0  0
   -8.0269   -6.0723   13.2371 H   0  0  0  0  0  0
   -6.7246   -3.7410   11.7157 H   0  0  0  0  0  0
  -10.8861   -3.9851   11.7641 H   0  0  0  0  0  0
  -10.3082   -5.6411   11.8460 H   0  0  0  0  0  0
   -9.0289   -3.1917   13.1562 H   0  0  0  0  0  0
   -9.8029   -4.5656   13.9209 H   0  0  0  0  0  0
   -8.1554   -6.2794   10.8286 H   0  0  0  0  0  0
   -6.6372   -6.0627    9.0377 H   0  0  0  0  0  0
   -6.6816   -4.2963    9.0692 H   0  0  0  0  0  0
   -8.6199   -6.1576    7.7975 H   0  0  0  0  0  0
   -8.4360   -4.4159    7.5718 H   0  0  0  0  0  0
  -10.4779   -4.3142    8.7689 H   0  0  0  0  0  0
  -10.2284   -5.9272    9.4432 H   0  0  0  0  0  0
   -8.3023   -2.6559    9.4201 H   0  0  0  0  0  0
   -8.3832   -2.3953   11.1570 H   0  0  0  0  0  0
   -9.8536   -2.3434   10.1902 H   0  0  0  0  0  0
   -3.7331   -3.9366   17.5657 H   0  0  0  0  0  0
  1  2  2  0  0  0
  1  4  1  0  0  0
  1 20  1  0  0  0
  2  3  1  0  0  0
  2 19  1  0  0  0
  3  6  2  0  0  0
  3 21  1  0  0  0
  4  5  2  0  0  0
  4 22  1  0  0  0
  5  6  1  0  0  0
  5  9  1  0  0  0
  6  7  1  0  0  0
  7  8  1  0  0  0
  7 23  1  0  0  0
  7 24  1  0  0  0
  8 10  1  0  0  0
  8 25  1  0  0  0
  8 26  1  0  0  0
  9 10  1  0  0  0
  9 12  1  0  0  0
  9 27  1  0  0  0
 10 14  1  0  0  0
 10 28  1  0  0  0
 11 12  1  0  0  0
 11 13  1  0  0  0
 11 29  1  0  0  0
 11 30  1  0  0  0
 12 31  1  0  0  0
 12 32  1  0  0  0
 13 14  1  0  0  0
 13 17  1  0  0  0
 13 18  1  0  0  0
 14 15  1  0  0  0
 14 33  1  0  0  0
 15 16  1  0  0  0
 15 34  1  0  0  0
 15 35  1  0  0  0
 16 17  1  0  0  0
 16 36  1  0  0  0
 16 37  1  0  0  0
 17 38  1  0  0  0
 17 39  1  0  0  0
 18 40  1  0  0  0
 18 41  1  0  0  0
 18 42  1  0  0  0
 19 43  1  0  0  0
M  END
>  <Name>
lit-162

>  <Family>
A.1

>  <RBA>
2,14.4,74

>  <RBA_avg>
30.000000

>  <Method>
RUC,RBC,RUC*

>  <set>
0

$$$$
lit-163
  Cerius2 12180216413D 1   1.00000                          
 Structure written by MMmdl.
 43 46  0  0  0  0  0  0  0  0999 V2000
   -6.7877   -4.1056   16.7440 C   0  0  0  0  0  0
   -5.4012   -4.1399   16.6669 C   0  0  0  0  0  0
   -4.7861   -4.4477   15.4566 C   0  0  0  0  0  0
   -7.5588   -4.3699   15.6095 C   0  0  0  0  0  0
   -6.9599   -4.6606   14.3708 C   0  0  0  0  0  0
   -5.5506   -4.7242   14.3093 C   0  0  0  0  0  0
   -4.8104   -5.0296   13.0277 C   0  0  0  0  0  0
   -5.6925   -5.6013   11.9217 C   0  0  0  0  0  0
   -7.8054   -4.9954   13.1424 C   0  0  0  0  0  0
   -6.9924   -4.7998   11.8266 C   0  0  0  0  0  0
   -9.9778   -4.5941   11.7931 C   0  0  0  0  0  0
   -9.1762   -4.2704   13.0690 C   0  0  0  0  0  0
   -9.1435   -4.3794   10.5237 C   0  0  0  0  0  0
   -7.8620   -5.2296   10.6448 C   0  0  0  0  0  0
   -7.2774   -5.1950    9.2354 C   0  0  0  0  0  0
   -8.5146   -5.1795    8.3185 C   0  0  0  0  0  0
   -9.7353   -5.0025    9.2431 C   0  0  0  0  0  0
   -8.8983   -2.8620   10.3230 C   0  0  0  0  0  0
  -10.7391   -4.2004    8.6408 O   0  0  0  0  0  0
   -7.2750   -3.8769   17.6902 H   0  0  0  0  0  0
   -4.7986   -3.9320   17.5490 H   0  0  0  0  0  0
   -3.6974   -4.4742   15.4086 H   0  0  0  0  0  0
   -8.6408   -4.3497   15.7216 H   0  0  0  0  0  0
   -3.9975   -5.7378   13.2288 H   0  0  0  0  0  0
   -4.3539   -4.0962   12.6738 H   0  0  0  0  0  0
   -5.9152   -6.6560   12.1290 H   0  0  0  0  0  0
   -5.1378   -5.5725   10.9773 H   0  0  0  0  0  0
   -8.0298   -6.0692   13.2376 H   0  0  0  0  0  0
   -6.7199   -3.7424   11.7157 H   0  0  0  0  0  0
  -10.8888   -3.9843   11.7658 H   0  0  0  0  0  0
  -10.3090   -5.6393   11.8499 H   0  0  0  0  0  0
   -9.0276   -3.1871   13.1527 H   0  0  0  0  0  0
   -9.8023   -4.5581   13.9214 H   0  0  0  0  0  0
   -8.1527   -6.2780   10.8270 H   0  0  0  0  0  0
   -6.6441   -6.0645    9.0325 H   0  0  0  0  0  0
   -6.6704   -4.2974    9.0736 H   0  0  0  0  0  0
   -8.5992   -6.1192    7.7614 H   0  0  0  0  0  0
   -8.4396   -4.3760    7.5772 H   0  0  0  0  0  0
  -10.1758   -5.9836    9.4612 H   0  0  0  0  0  0
   -8.3286   -2.6469    9.4135 H   0  0  0  0  0  0
   -8.3535   -2.4073   11.1544 H   0  0  0  0  0  0
   -9.8511   -2.3263   10.2394 H   0  0  0  0  0  0
  -10.9871   -4.6525    7.8066 H   0  0  0  0  0  0
  1  2  2  0  0  0
  1  4  1  0  0  0
  1 20  1  0  0  0
  2  3  1  0  0  0
  2 21  1  0  0  0
  3  6  2  0  0  0
  3 22  1  0  0  0
  4  5  2  0  0  0
  4 23  1  0  0  0
  5  6  1  0  0  0
  5  9  1  0  0  0
  6  7  1  0  0  0
  7  8  1  0  0  0
  7 24  1  0  0  0
  7 25  1  0  0  0
  8 10  1  0  0  0
  8 26  1  0  0  0
  8 27  1  0  0  0
  9 10  1  0  0  0
  9 12  1  0  0  0
  9 28  1  0  0  0
 10 14  1  0  0  0
 10 29  1  0  0  0
 11 12  1  0  0  0
 11 13  1  0  0  0
 11 30  1  0  0  0
 11 31  1  0  0  0
 12 32  1  0  0  0
 12 33  1  0  0  0
 13 14  1  0  0  0
 13 17  1  0  0  0
 13 18  1  0  0  0
 14 15  1  0  0  0
 14 34  1  0  0  0
 15 16  1  0  0  0
 15 35  1  0  0  0
 15 36  1  0  0  0
 16 17  1  0  0  0
 16 37  1  0  0  0
 16 38  1  0  0  0
 17 19  1  0  0  0
 17 39  1  0  0  0
 18 40  1  0  0  0
 18 41  1  0  0  0
 18 42  1  0  0  0
 19 43  1  0  0  0
M  END
>  <Name>
lit-163

>  <Family>
A.1

>  <RBA>
1.7,8

>  <RBA_avg>
4.900000

>  <Method>
RBC,MCF-7

>  <set>
0

$$$$
lit-164
  Cerius2 12180216413D 1   1.00000                          
 Structure written by MMmdl.
 47 50  0  0  0  0  0  0  0  0999 V2000
   -6.7909   -4.1022   16.7433 C   0  0  0  0  0  0
   -5.4085   -4.1386   16.6591 C   0  0  0  0  0  0
   -4.7833   -4.4463   15.4575 C   0  0  0  0  0  0
   -7.5611   -4.3685   15.6084 C   0  0  0  0  0  0
   -6.9602   -4.6612   14.3705 C   0  0  0  0  0  0
   -5.5497   -4.7248   14.3103 C   0  0  0  0  0  0
   -4.8096   -5.0330   13.0289 C   0  0  0  0  0  0
   -5.6915   -5.6054   11.9232 C   0  0  0  0  0  0
   -7.8047   -4.9973   13.1415 C   0  0  0  0  0  0
   -6.9905   -4.8028   11.8265 C   0  0  0  0  0  0
   -9.9754   -4.5963   11.7899 C   0  0  0  0  0  0
   -9.1751   -4.2718   13.0660 C   0  0  0  0  0  0
   -9.1401   -4.3826   10.5205 C   0  0  0  0  0  0
   -7.8588   -5.2320   10.6433 C   0  0  0  0  0  0
   -7.2722   -5.1947    9.2357 C   0  0  0  0  0  0
   -8.5072   -5.1721    8.3164 C   0  0  0  0  0  0
   -9.7371   -5.0072    9.2381 C   0  0  0  0  0  0
   -8.8945   -2.8647   10.3205 C   0  0  0  0  0  0
   -4.6886   -3.8697   17.7850 O   0  0  0  0  0  0
  -10.7558   -4.1888    8.6675 O   0  0  0  0  0  0
  -11.4467   -4.8401    7.6026 C   0  0  0  0  0  0
   -7.2797   -3.8720   17.6872 H   0  0  0  0  0  0
   -3.6967   -4.4758   15.3967 H   0  0  0  0  0  0
   -8.6431   -4.3481   15.7194 H   0  0  0  0  0  0
   -3.9975   -5.7419   13.2313 H   0  0  0  0  0  0
   -4.3520   -4.1007   12.6740 H   0  0  0  0  0  0
   -5.9152   -6.6596   12.1316 H   0  0  0  0  0  0
   -5.1360   -5.5783   10.9792 H   0  0  0  0  0  0
   -8.0295   -6.0710   13.2375 H   0  0  0  0  0  0
   -6.7169   -3.7456   11.7157 H   0  0  0  0  0  0
  -10.8864   -3.9864   11.7613 H   0  0  0  0  0  0
  -10.3069   -5.6413   11.8471 H   0  0  0  0  0  0
   -9.0262   -3.1885   13.1491 H   0  0  0  0  0  0
   -9.8021   -4.5587   13.9182 H   0  0  0  0  0  0
   -8.1491   -6.2806   10.8244 H   0  0  0  0  0  0
   -6.6414   -6.0660    9.0315 H   0  0  0  0  0  0
   -6.6616   -4.2990    9.0775 H   0  0  0  0  0  0
   -8.5852   -6.1061    7.7486 H   0  0  0  0  0  0
   -8.4294   -4.3592    7.5856 H   0  0  0  0  0  0
  -10.1568   -5.9955    9.4727 H   0  0  0  0  0  0
   -8.3282   -2.6487    9.4091 H   0  0  0  0  0  0
   -8.3459   -2.4115   11.1503 H   0  0  0  0  0  0
   -9.8468   -2.3274   10.2417 H   0  0  0  0  0  0
   -3.7346   -3.9353   17.5656 H   0  0  0  0  0  0
  -12.2282   -4.1656    7.2424 H   0  0  0  0  0  0
  -11.9185   -5.7608    7.9589 H   0  0  0  0  0  0
  -10.7681   -5.0577    6.7732 H   0  0  0  0  0  0
  1  2  2  0  0  0
  1  4  1  0  0  0
  1 22  1  0  0  0
  2  3  1  0  0  0
  2 19  1  0  0  0
  3  6  2  0  0  0
  3 23  1  0  0  0
  4  5  2  0  0  0
  4 24  1  0  0  0
  5  6  1  0  0  0
  5  9  1  0  0  0
  6  7  1  0  0  0
  7  8  1  0  0  0
  7 25  1  0  0  0
  7 26  1  0  0  0
  8 10  1  0  0  0
  8 27  1  0  0  0
  8 28  1  0  0  0
  9 10  1  0  0  0
  9 12  1  0  0  0
  9 29  1  0  0  0
 10 14  1  0  0  0
 10 30  1  0  0  0
 11 12  1  0  0  0
 11 13  1  0  0  0
 11 31  1  0  0  0
 11 32  1  0  0  0
 12 33  1  0  0  0
 12 34  1  0  0  0
 13 14  1  0  0  0
 13 17  1  0  0  0
 13 18  1  0  0  0
 14 15  1  0  0  0
 14 35  1  0  0  0
 15 16  1  0  0  0
 15 36  1  0  0  0
 15 37  1  0  0  0
 16 17  1  0  0  0
 16 38  1  0  0  0
 16 39  1  0  0  0
 17 20  1  0  0  0
 17 40  1  0  0  0
 18 41  1  0  0  0
 18 42  1  0  0  0
 18 43  1  0  0  0
 19 44  1  0  0  0
 20 21  1  0  0  0
 21 45  1  0  0  0
 21 46  1  0  0  0
 21 47  1  0  0  0
M  END
>  <Name>
lit-164

>  <Family>
A.1

>  <RBA>
7,14

>  <RBA_avg>
11.000000

>  <Method>
RUC,RUC*

>  <set>
1

$$$$
lit-165
  Cerius2 12180216413D 1   1.00000                          
 Structure written by MMmdl.
 49 52  0  0  0  0  0  0  0  0999 V2000
   -6.7901   -4.1051   16.7444 C   0  0  0  0  0  0
   -5.4076   -4.1389   16.6593 C   0  0  0  0  0  0
   -4.7825   -4.4434   15.4570 C   0  0  0  0  0  0
   -7.5603   -4.3710   15.6094 C   0  0  0  0  0  0
   -6.9595   -4.6608   14.3709 C   0  0  0  0  0  0
   -5.5489   -4.7215   14.3098 C   0  0  0  0  0  0
   -4.8090   -5.0262   13.0275 C   0  0  0  0  0  0
   -5.6903   -5.6011   11.9226 C   0  0  0  0  0  0
   -7.8041   -4.9974   13.1422 C   0  0  0  0  0  0
   -6.9912   -4.8016   11.8265 C   0  0  0  0  0  0
   -9.9766   -4.6018   11.7922 C   0  0  0  0  0  0
   -9.1755   -4.2738   13.0673 C   0  0  0  0  0  0
   -9.1430   -4.3878   10.5221 C   0  0  0  0  0  0
   -7.8596   -5.2333   10.6442 C   0  0  0  0  0  0
   -7.2764   -5.1905    9.2360 C   0  0  0  0  0  0
   -8.5147   -5.1930    8.3206 C   0  0  0  0  0  0
   -9.7426   -5.0167    9.2415 C   0  0  0  0  0  0
   -8.9011   -2.8693   10.3208 C   0  0  0  0  0  0
   -4.6877   -3.8707   17.7856 O   0  0  0  0  0  0
  -10.7343   -4.1561    8.6522 O   0  0  0  0  0  0
  -11.6632   -4.5888    7.7671 C   0  0  0  0  0  0
  -12.4405   -3.7855    7.2489 O   0  0  0  0  0  0
  -11.7217   -6.0550    7.4634 C   0  0  0  0  0  0
   -7.2788   -3.8774   17.6889 H   0  0  0  0  0  0
   -3.6957   -4.4708   15.3956 H   0  0  0  0  0  0
   -8.6423   -4.3530   15.7211 H   0  0  0  0  0  0
   -3.9942   -5.7323   13.2285 H   0  0  0  0  0  0
   -4.3550   -4.0920   12.6727 H   0  0  0  0  0  0
   -5.9113   -6.6558   12.1315 H   0  0  0  0  0  0
   -5.1356   -5.5729   10.9781 H   0  0  0  0  0  0
   -8.0274   -6.0715   13.2380 H   0  0  0  0  0  0
   -6.7198   -3.7439   11.7154 H   0  0  0  0  0  0
  -10.8891   -3.9942   11.7637 H   0  0  0  0  0  0
  -10.3056   -5.6475   11.8516 H   0  0  0  0  0  0
   -9.0277   -3.1901   13.1480 H   0  0  0  0  0  0
   -9.8014   -4.5599   13.9204 H   0  0  0  0  0  0
   -8.1460   -6.2830   10.8245 H   0  0  0  0  0  0
   -6.6310   -6.0511    9.0326 H   0  0  0  0  0  0
   -6.6819   -4.2848    9.0732 H   0  0  0  0  0  0
   -8.5818   -6.1422    7.7783 H   0  0  0  0  0  0
   -8.4456   -4.3991    7.5688 H   0  0  0  0  0  0
  -10.1761   -5.9930    9.4883 H   0  0  0  0  0  0
   -8.3458   -2.6521    9.4030 H   0  0  0  0  0  0
   -8.3437   -2.4163   11.1446 H   0  0  0  0  0  0
   -9.8545   -2.3321   10.2541 H   0  0  0  0  0  0
   -3.7337   -3.9344   17.5656 H   0  0  0  0  0  0
  -12.5088   -6.2300    6.7225 H   0  0  0  0  0  0
  -11.9826   -6.6207    8.3606 H   0  0  0  0  0  0
  -10.7826   -6.4002    7.0289 H   0  0  0  0  0  0
  1  2  2  0  0  0
  1  4  1  0  0  0
  1 24  1  0  0  0
  2  3  1  0  0  0
  2 19  1  0  0  0
  3  6  2  0  0  0
  3 25  1  0  0  0
  4  5  2  0  0  0
  4 26  1  0  0  0
  5  6  1  0  0  0
  5  9  1  0  0  0
  6  7  1  0  0  0
  7  8  1  0  0  0
  7 27  1  0  0  0
  7 28  1  0  0  0
  8 10  1  0  0  0
  8 29  1  0  0  0
  8 30  1  0  0  0
  9 10  1  0  0  0
  9 12  1  0  0  0
  9 31  1  0  0  0
 10 14  1  0  0  0
 10 32  1  0  0  0
 11 12  1  0  0  0
 11 13  1  0  0  0
 11 33  1  0  0  0
 11 34  1  0  0  0
 12 35  1  0  0  0
 12 36  1  0  0  0
 13 14  1  0  0  0
 13 17  1  0  0  0
 13 18  1  0  0  0
 14 15  1  0  0  0
 14 37  1  0  0  0
 15 16  1  0  0  0
 15 38  1  0  0  0
 15 39  1  0  0  0
 16 17  1  0  0  0
 16 40  1  0  0  0
 16 41  1  0  0  0
 17 20  1  0  0  0
 17 42  1  0  0  0
 18 43  1  0  0  0
 18 44  1  0  0  0
 18 45  1  0  0  0
 19 46  1  0  0  0
 20 21  1  0  0  0
 21 22  2  0  0  0
 21 23  1  0  0  0
 23 47  1  0  0  0
 23 48  1  0  0  0
 23 49  1  0  0  0
M  END
>  <Name>
lit-165

>  <Family>
A.1

>  <RBA>
2.2,22

>  <RBA_avg>
12.000000

>  <Method>
RUC,RUC*

>  <set>
0

$$$$
lit-166
  Cerius2 12180216413D 1   1.00000                          
 Structure written by MMmdl.
 44 47  0  0  0  0  0  0  0  0999 V2000
   -6.8045   -4.1092   16.7210 C   0  0  0  0  0  0
   -5.4288   -4.2542   16.6469 C   0  0  0  0  0  0
   -4.8193   -4.5936   15.4458 C   0  0  0  0  0  0
   -7.5834   -4.2974   15.5765 C   0  0  0  0  0  0
   -6.9967   -4.6195   14.3391 C   0  0  0  0  0  0
   -5.5953   -4.7941   14.2888 C   0  0  0  0  0  0
   -4.8712   -5.1422   13.0086 C   0  0  0  0  0  0
   -5.7865   -5.6313   11.8902 C   0  0  0  0  0  0
   -7.8549   -4.8705   13.0990 C   0  0  0  0  0  0
   -7.0173   -4.7274   11.7927 C   0  0  0  0  0  0
   -9.9715   -4.2815   11.7361 C   0  0  0  0  0  0
   -9.1587   -4.0330   13.0217 C   0  0  0  0  0  0
   -9.1145   -4.1193   10.4723 C   0  0  0  0  0  0
   -7.9064   -5.0723   10.5959 C   0  0  0  0  0  0
   -7.2964   -5.0606    9.1981 C   0  0  0  0  0  0
   -8.5081   -4.9253    8.2545 C   0  0  0  0  0  0
   -9.7302   -4.6197    9.1470 C   0  0  0  0  0  0
   -8.7352   -2.6262   10.2940 C   0  0  0  0  0  0
   -4.6998   -4.0596   17.7823 O   0  0  0  0  0  0
  -10.4766   -5.8232    9.3415 O   0  0  0  0  0  0
   -7.2818   -3.8542   17.6646 H   0  0  0  0  0  0
   -3.7380   -4.7086   15.3929 H   0  0  0  0  0  0
   -8.6614   -4.1929   15.6794 H   0  0  0  0  0  0
   -4.1177   -5.9140   13.2071 H   0  0  0  0  0  0
   -4.3405   -4.2435   12.6688 H   0  0  0  0  0  0
   -6.0946   -6.6666   12.0851 H   0  0  0  0  0  0
   -5.2224   -5.6382   10.9510 H   0  0  0  0  0  0
   -8.1679   -5.9231   13.1796 H   0  0  0  0  0  0
   -6.6601   -3.6939   11.6966 H   0  0  0  0  0  0
  -10.8308   -3.6009   11.7070 H   0  0  0  0  0  0
  -10.3843   -5.2965   11.7912 H   0  0  0  0  0  0
   -8.9227   -2.9666   13.1177 H   0  0  0  0  0  0
   -9.8148   -4.2755   13.8659 H   0  0  0  0  0  0
   -8.2787   -6.0969   10.7594 H   0  0  0  0  0  0
   -6.7354   -5.9774    8.9899 H   0  0  0  0  0  0
   -6.6101   -4.2170    9.0641 H   0  0  0  0  0  0
   -8.6467   -5.8413    7.6702 H   0  0  0  0  0  0
   -8.3262   -4.1028    7.5536 H   0  0  0  0  0  0
  -10.4005   -3.8859    8.6873 H   0  0  0  0  0  0
   -8.1098   -2.4515    9.4130 H   0  0  0  0  0  0
   -8.1956   -2.2178   11.1523 H   0  0  0  0  0  0
   -9.6406   -2.0208   10.1670 H   0  0  0  0  0  0
   -3.7521   -4.1981   17.5695 H   0  0  0  0  0  0
  -10.8167   -6.0795    8.4581 H   0  0  0  0  0  0
  1  2  2  0  0  0
  1  4  1  0  0  0
  1 21  1  0  0  0
  2  3  1  0  0  0
  2 19  1  0  0  0
  3  6  2  0  0  0
  3 22  1  0  0  0
  4  5  2  0  0  0
  4 23  1  0  0  0
  5  6  1  0  0  0
  5  9  1  0  0  0
  6  7  1  0  0  0
  7  8  1  0  0  0
  7 24  1  0  0  0
  7 25  1  0  0  0
  8 10  1  0  0  0
  8 26  1  0  0  0
  8 27  1  0  0  0
  9 10  1  0  0  0
  9 12  1  0  0  0
  9 28  1  0  0  0
 10 14  1  0  0  0
 10 29  1  0  0  0
 11 12  1  0  0  0
 11 13  1  0  0  0
 11 30  1  0  0  0
 11 31  1  0  0  0
 12 32  1  0  0  0
 12 33  1  0  0  0
 13 14  1  0  0  0
 13 17  1  0  0  0
 13 18  1  0  0  0
 14 15  1  0  0  0
 14 34  1  0  0  0
 15 16  1  0  0  0
 15 35  1  0  0  0
 15 36  1  0  0  0
 16 17  1  0  0  0
 16 37  1  0  0  0
 16 38  1  0  0  0
 17 20  1  0  0  0
 17 39  1  0  0  0
 18 40  1  0  0  0
 18 41  1  0  0  0
 18 42  1  0  0  0
 19 43  1  0  0  0
 20 44  1  0  0  0
M  END
>  <Name>
lit-166

>  <Family>
A.1

>  <RBA>
11,25,49,22,38,17

>  <RBA_avg>
27.000000

>  <Method>
RUC,RUC,RBC,MCF-7,LUC,hERa

>  <set>
0

$$$$
lit-167
  Cerius2 12180216413D 1   1.00000                          
 Structure written by MMmdl.
 44 47  0  0  0  0  0  0  0  0999 V2000
   -6.7896   -4.1088   16.7456 C   0  0  0  0  0  0
   -5.4073   -4.1407   16.6599 C   0  0  0  0  0  0
   -4.7822   -4.4431   15.4568 C   0  0  0  0  0  0
   -7.5601   -4.3748   15.6108 C   0  0  0  0  0  0
   -6.9594   -4.6624   14.3716 C   0  0  0  0  0  0
   -5.5489   -4.7211   14.3098 C   0  0  0  0  0  0
   -4.8094   -5.0235   13.0268 C   0  0  0  0  0  0
   -5.6903   -5.5982   11.9215 C   0  0  0  0  0  0
   -7.8045   -4.9983   13.1428 C   0  0  0  0  0  0
   -6.9924   -4.8010   11.8267 C   0  0  0  0  0  0
   -9.9756   -4.5962   11.7930 C   0  0  0  0  0  0
   -9.1758   -4.2744   13.0700 C   0  0  0  0  0  0
   -9.1396   -4.3790   10.5274 C   0  0  0  0  0  0
   -7.8621   -5.2326   10.6450 C   0  0  0  0  0  0
   -7.2759   -5.2014    9.2351 C   0  0  0  0  0  0
   -8.5194   -5.1961    8.3248 C   0  0  0  0  0  0
   -9.7384   -4.9715    9.2432 C   0  0  0  0  0  0
   -8.8988   -2.8652   10.3145 C   0  0  0  0  0  0
   -4.6870   -3.8728   17.7858 O   0  0  0  0  0  0
   -8.6362   -6.4450    7.6490 O   0  0  0  0  0  0
   -7.2782   -3.8827   17.6907 H   0  0  0  0  0  0
   -3.6955   -4.4687   15.3949 H   0  0  0  0  0  0
   -8.6421   -4.3582   15.7229 H   0  0  0  0  0  0
   -3.9937   -5.7290   13.2266 H   0  0  0  0  0  0
   -4.3567   -4.0884   12.6727 H   0  0  0  0  0  0
   -5.9096   -6.6536   12.1291 H   0  0  0  0  0  0
   -5.1358   -5.5679   10.9771 H   0  0  0  0  0  0
   -8.0274   -6.0725   13.2378 H   0  0  0  0  0  0
   -6.7244   -3.7423   11.7155 H   0  0  0  0  0  0
  -10.8862   -3.9857   11.7652 H   0  0  0  0  0  0
  -10.3075   -5.6413   11.8473 H   0  0  0  0  0  0
   -9.0278   -3.1912   13.1555 H   0  0  0  0  0  0
   -9.8023   -4.5640   13.9215 H   0  0  0  0  0  0
   -8.1561   -6.2799   10.8276 H   0  0  0  0  0  0
   -6.6225   -6.0594    9.0471 H   0  0  0  0  0  0
   -6.6894   -4.2883    9.0836 H   0  0  0  0  0  0
   -8.4316   -4.4081    7.5691 H   0  0  0  0  0  0
  -10.4728   -4.3080    8.7734 H   0  0  0  0  0  0
  -10.2490   -5.9222    9.4427 H   0  0  0  0  0  0
   -8.3073   -2.6549    9.4182 H   0  0  0  0  0  0
   -8.3820   -2.3957   11.1555 H   0  0  0  0  0  0
   -9.8558   -2.3435   10.1937 H   0  0  0  0  0  0
   -3.7330   -3.9351   17.5656 H   0  0  0  0  0  0
   -9.4578   -6.3894    7.1151 H   0  0  0  0  0  0
  1  2  2  0  0  0
  1  4  1  0  0  0
  1 21  1  0  0  0
  2  3  1  0  0  0
  2 19  1  0  0  0
  3  6  2  0  0  0
  3 22  1  0  0  0
  4  5  2  0  0  0
  4 23  1  0  0  0
  5  6  1  0  0  0
  5  9  1  0  0  0
  6  7  1  0  0  0
  7  8  1  0  0  0
  7 24  1  0  0  0
  7 25  1  0  0  0
  8 10  1  0  0  0
  8 26  1  0  0  0
  8 27  1  0  0  0
  9 10  1  0  0  0
  9 12  1  0  0  0
  9 28  1  0  0  0
 10 14  1  0  0  0
 10 29  1  0  0  0
 11 12  1  0  0  0
 11 13  1  0  0  0
 11 30  1  0  0  0
 11 31  1  0  0  0
 12 32  1  0  0  0
 12 33  1  0  0  0
 13 14  1  0  0  0
 13 17  1  0  0  0
 13 18  1  0  0  0
 14 15  1  0  0  0
 14 34  1  0  0  0
 15 16  1  0  0  0
 15 35  1  0  0  0
 15 36  1  0  0  0
 16 17  1  0  0  0
 16 20  1  0  0  0
 16 37  1  0  0  0
 17 38  1  0  0  0
 17 39  1  0  0  0
 18 40  1  0  0  0
 18 41  1  0  0  0
 18 42  1  0  0  0
 19 43  1  0  0  0
 20 44  1  0  0  0
M  END
>  <Name>
lit-167

>  <Family>
A.1

>  <RBA>
46,35,80

>  <RBA_avg>
54.000000

>  <Method>
RUC,MCF-7,MCF-7

>  <set>
0

$$$$
lit-168
  Cerius2 12180216413D 1   1.00000                          
 Structure written by MMmdl.
 42 45  0  0  0  0  0  0  0  0999 V2000
   -6.7953   -4.1333   16.7465 C   0  0  0  0  0  0
   -5.4126   -4.1595   16.6630 C   0  0  0  0  0  0
   -4.7844   -4.4473   15.4580 C   0  0  0  0  0  0
   -7.5628   -4.3903   15.6078 C   0  0  0  0  0  0
   -6.9588   -4.6634   14.3671 C   0  0  0  0  0  0
   -5.5480   -4.7161   14.3068 C   0  0  0  0  0  0
   -4.8049   -5.0014   13.0217 C   0  0  0  0  0  0
   -5.6815   -5.5620   11.9055 C   0  0  0  0  0  0
   -7.7996   -4.9905   13.1338 C   0  0  0  0  0  0
   -6.9863   -4.7686   11.8205 C   0  0  0  0  0  0
   -9.9732   -4.5713   11.7798 C   0  0  0  0  0  0
   -9.1813   -4.2827   13.0705 C   0  0  0  0  0  0
   -9.1269   -4.3098   10.5379 C   0  0  0  0  0  0
   -7.8603   -5.1875   10.6386 C   0  0  0  0  0  0
   -7.2884   -5.1799    9.2254 C   0  0  0  0  0  0
   -8.5351   -5.3942    8.3534 C   0  0  0  0  0  0
   -9.6594   -4.8450    9.2173 C   0  0  0  0  0  0
   -8.8869   -2.8011   10.3387 C   0  0  0  0  0  0
   -4.6954   -3.9003   17.7930 O   0  0  0  0  0  0
  -10.8375   -4.8191    8.8703 O   0  0  0  0  0  0
   -7.2863   -3.9183   17.6931 H   0  0  0  0  0  0
   -3.6974   -4.4683   15.3977 H   0  0  0  0  0  0
   -8.6452   -4.3783   15.7178 H   0  0  0  0  0  0
   -3.9889   -5.7084   13.2147 H   0  0  0  0  0  0
   -4.3521   -4.0612   12.6814 H   0  0  0  0  0  0
   -5.8968   -6.6214   12.0956 H   0  0  0  0  0  0
   -5.1248   -5.5137   10.9632 H   0  0  0  0  0  0
   -8.0115   -6.0681   13.2142 H   0  0  0  0  0  0
   -6.7221   -3.7077   11.7244 H   0  0  0  0  0  0
  -10.8850   -3.9617   11.7634 H   0  0  0  0  0  0
  -10.3115   -5.6158   11.7917 H   0  0  0  0  0  0
   -9.0451   -3.2002   13.1848 H   0  0  0  0  0  0
   -9.8083   -4.6021   13.9110 H   0  0  0  0  0  0
   -8.1681   -6.2310   10.8253 H   0  0  0  0  0  0
   -6.5563   -5.9770    9.0628 H   0  0  0  0  0  0
   -6.8016   -4.2273    8.9902 H   0  0  0  0  0  0
   -8.7136   -6.4589    8.1774 H   0  0  0  0  0  0
   -8.4640   -4.8497    7.4094 H   0  0  0  0  0  0
   -8.3148   -2.5851    9.4300 H   0  0  0  0  0  0
   -8.3584   -2.3397   11.1771 H   0  0  0  0  0  0
   -9.8447   -2.2776   10.2309 H   0  0  0  0  0  0
   -3.7407   -3.9565   17.5735 H   0  0  0  0  0  0
  1  2  2  0  0  0
  1  4  1  0  0  0
  1 21  1  0  0  0
  2  3  1  0  0  0
  2 19  1  0  0  0
  3  6  2  0  0  0
  3 22  1  0  0  0
  4  5  2  0  0  0
  4 23  1  0  0  0
  5  6  1  0  0  0
  5  9  1  0  0  0
  6  7  1  0  0  0
  7  8  1  0  0  0
  7 24  1  0  0  0
  7 25  1  0  0  0
  8 10  1  0  0  0
  8 26  1  0  0  0
  8 27  1  0  0  0
  9 10  1  0  0  0
  9 12  1  0  0  0
  9 28  1  0  0  0
 10 14  1  0  0  0
 10 29  1  0  0  0
 11 12  1  0  0  0
 11 13  1  0  0  0
 11 30  1  0  0  0
 11 31  1  0  0  0
 12 32  1  0  0  0
 12 33  1  0  0  0
 13 14  1  0  0  0
 13 17  1  0  0  0
 13 18  1  0  0  0
 14 15  1  0  0  0
 14 34  1  0  0  0
 15 16  1  0  0  0
 15 35  1  0  0  0
 15 36  1  0  0  0
 16 17  1  0  0  0
 16 37  1  0  0  0
 16 38  1  0  0  0
 17 20  2  0  0  0
 18 39  1  0  0  0
 18 40  1  0  0  0
 18 41  1  0  0  0
 19 42  1  0  0  0
M  END
>  <Name>
lit-168

>  <Family>
A.1

>  <RBA>
11,12,46,66,32,24,13,22,38,45,7

>  <RBA_avg>
29.000000

>  <Method>
RUC,RUC*,RUC,RBC,RBC,RBC,MCF-7,MCF-7-LUC,CUC,CUC

>  <set>
0

$$$$
lit-170
  Cerius2 12180216413D 1   1.00000                          
 Structure written by MMmdl.
 45 48  0  0  0  0  0  0  0  0999 V2000
   -6.7884   -4.1099   16.7463 C   0  0  0  0  0  0
   -5.4061   -4.1427   16.6602 C   0  0  0  0  0  0
   -4.7816   -4.4443   15.4567 C   0  0  0  0  0  0
   -7.5594   -4.3741   15.6115 C   0  0  0  0  0  0
   -6.9592   -4.6612   14.3718 C   0  0  0  0  0  0
   -5.5488   -4.7207   14.3095 C   0  0  0  0  0  0
   -4.8097   -5.0222   13.0260 C   0  0  0  0  0  0
   -5.6913   -5.5952   11.9204 C   0  0  0  0  0  0
   -7.8047   -4.9958   13.1431 C   0  0  0  0  0  0
   -6.9931   -4.7967   11.8268 C   0  0  0  0  0  0
   -9.9780   -4.5898   11.7941 C   0  0  0  0  0  0
   -9.1775   -4.2743   13.0729 C   0  0  0  0  0  0
   -9.1429   -4.3721   10.5241 C   0  0  0  0  0  0
   -7.8634   -5.2271   10.6450 C   0  0  0  0  0  0
   -7.2755   -5.2010    9.2343 C   0  0  0  0  0  0
   -8.5128   -5.2102    8.3147 C   0  0  0  0  0  0
   -9.7415   -4.9985    9.2456 C   0  0  0  0  0  0
   -8.8962   -2.8545   10.3353 C   0  0  0  0  0  0
   -4.6853   -3.8764   17.7863 O   0  0  0  0  0  0
   -8.3908   -4.1694    7.3396 O   0  0  0  0  0  0
  -10.7397   -4.1931    8.6272 O   0  0  0  0  0  0
   -7.2766   -3.8841   17.6917 H   0  0  0  0  0  0
   -3.6949   -4.4708   15.3944 H   0  0  0  0  0  0
   -8.6413   -4.3567   15.7239 H   0  0  0  0  0  0
   -3.9943   -5.7282   13.2249 H   0  0  0  0  0  0
   -4.3567   -4.0869   12.6728 H   0  0  0  0  0  0
   -5.9114   -6.6506   12.1272 H   0  0  0  0  0  0
   -5.1372   -5.5645   10.9759 H   0  0  0  0  0  0
   -8.0265   -6.0704   13.2367 H   0  0  0  0  0  0
   -6.7236   -3.7384   11.7166 H   0  0  0  0  0  0
  -10.8876   -3.9777   11.7686 H   0  0  0  0  0  0
  -10.3123   -5.6343   11.8470 H   0  0  0  0  0  0
   -9.0323   -3.1914   13.1662 H   0  0  0  0  0  0
   -9.8034   -4.5704   13.9228 H   0  0  0  0  0  0
   -8.1573   -6.2740   10.8307 H   0  0  0  0  0  0
   -6.6511   -6.0824    9.0527 H   0  0  0  0  0  0
   -6.6521   -4.3150    9.0695 H   0  0  0  0  0  0
   -8.6052   -6.1576    7.7740 H   0  0  0  0  0  0
  -10.1844   -5.9734    9.4880 H   0  0  0  0  0  0
   -8.2889   -2.6331    9.4533 H   0  0  0  0  0  0
   -8.3850   -2.4000   11.1881 H   0  0  0  0  0  0
   -9.8465   -2.3215   10.2165 H   0  0  0  0  0  0
   -3.7314   -3.9392   17.5657 H   0  0  0  0  0  0
   -9.2576   -3.7047    7.3515 H   0  0  0  0  0  0
  -11.2100   -4.7791    7.9960 H   0  0  0  0  0  0
  1  2  2  0  0  0
  1  4  1  0  0  0
  1 22  1  0  0  0
  2  3  1  0  0  0
  2 19  1  0  0  0
  3  6  2  0  0  0
  3 23  1  0  0  0
  4  5  2  0  0  0
  4 24  1  0  0  0
  5  6  1  0  0  0
  5  9  1  0  0  0
  6  7  1  0  0  0
  7  8  1  0  0  0
  7 25  1  0  0  0
  7 26  1  0  0  0
  8 10  1  0  0  0
  8 27  1  0  0  0
  8 28  1  0  0  0
  9 10  1  0  0  0
  9 12  1  0  0  0
  9 29  1  0  0  0
 10 14  1  0  0  0
 10 30  1  0  0  0
 11 12  1  0  0  0
 11 13  1  0  0  0
 11 31  1  0  0  0
 11 32  1  0  0  0
 12 33  1  0  0  0
 12 34  1  0  0  0
 13 14  1  0  0  0
 13 17  1  0  0  0
 13 18  1  0  0  0
 14 15  1  0  0  0
 14 35  1  0  0  0
 15 16  1  0  0  0
 15 36  1  0  0  0
 15 37  1  0  0  0
 16 17  1  0  0  0
 16 20  1  0  0  0
 16 38  1  0  0  0
 17 21  1  0  0  0
 17 39  1  0  0  0
 18 40  1  0  0  0
 18 41  1  0  0  0
 18 42  1  0  0  0
 19 43  1  0  0  0
 20 44  1  0  0  0
 21 45  1  0  0  0
M  END
>  <Name>
lit-170

>  <Family>
A.1

>  <RBA>
40,44

>  <RBA_avg>
42.000000

>  <Method>
RUC,RBC

>  <set>
0

$$$$
lit-171
  Cerius2 12180216413D 1   1.00000                          
 Structure written by MMmdl.
 43 46  0  0  0  0  0  0  0  0999 V2000
   -6.6143   -3.9409   16.6518 C   0  0  0  0  0  0
   -5.2680   -4.2332   16.5057 C   0  0  0  0  0  0
   -4.7775   -4.7120   15.2976 C   0  0  0  0  0  0
   -7.4830   -4.1213   15.5726 C   0  0  0  0  0  0
   -7.0158   -4.5832   14.3286 C   0  0  0  0  0  0
   -5.6455   -4.9057   14.2066 C   0  0  0  0  0  0
   -5.0471   -5.4097   12.9136 C   0  0  0  0  0  0
   -6.0784   -5.8686   11.8866 C   0  0  0  0  0  0
   -7.9755   -4.8239   13.1641 C   0  0  0  0  0  0
   -7.2166   -4.8503   11.8008 C   0  0  0  0  0  0
  -10.1087   -4.0888   11.8872 C   0  0  0  0  0  0
   -9.1981   -3.8676   13.1104 C   0  0  0  0  0  0
   -9.3093   -4.0809   10.5875 C   0  0  0  0  0  0
   -8.2223   -5.1738   10.6941 C   0  0  0  0  0  0
   -7.7326   -5.3694    9.2591 C   0  0  0  0  0  0
   -9.0363   -5.3673    8.4402 C   0  0  0  0  0  0
  -10.0172   -4.6028    9.3479 C   0  0  0  0  0  0
   -8.8102   -2.6631   10.2523 C   0  0  0  0  0  0
   -4.4486   -4.0417   17.5783 O   0  0  0  0  0  0
  -11.2114   -4.4496    9.0991 O   0  0  0  0  0  0
   -9.4690   -6.6967    8.1909 O   0  0  0  0  0  0
   -6.9993   -3.5764   17.6015 H   0  0  0  0  0  0
   -3.7189   -4.9422   15.1880 H   0  0  0  0  0  0
   -8.5359   -3.8983   15.7322 H   0  0  0  0  0  0
   -4.3649   -6.2431   13.1210 H   0  0  0  0  0  0
   -4.4507   -4.5959   12.4813 H   0  0  0  0  0  0
   -6.4744   -6.8528   12.1682 H   0  0  0  0  0  0
   -5.5798   -5.9901   10.9188 H   0  0  0  0  0  0
   -8.3822   -5.8327   13.3367 H   0  0  0  0  0  0
   -6.7668   -3.8672   11.6105 H   0  0  0  0  0  0
  -10.8900   -3.3192   11.8662 H   0  0  0  0  0  0
  -10.6344   -5.0461   11.9997 H   0  0  0  0  0  0
   -8.8518   -2.8269   13.1293 H   0  0  0  0  0  0
   -9.8208   -3.9989   14.0028 H   0  0  0  0  0  0
   -8.7063   -6.1259   10.9725 H   0  0  0  0  0  0
   -7.1788   -6.3064    9.1426 H   0  0  0  0  0  0
   -7.0796   -4.5437    8.9564 H   0  0  0  0  0  0
   -8.8999   -4.8397    7.4917 H   0  0  0  0  0  0
   -8.2685   -2.6241    9.3013 H   0  0  0  0  0  0
   -8.1525   -2.2514   11.0221 H   0  0  0  0  0  0
   -9.6607   -1.9779   10.1503 H   0  0  0  0  0  0
   -3.5360   -4.2921   17.3194 H   0  0  0  0  0  0
  -10.3234   -6.6100    7.7152 H   0  0  0  0  0  0
  1  2  2  0  0  0
  1  4  1  0  0  0
  1 22  1  0  0  0
  2  3  1  0  0  0
  2 19  1  0  0  0
  3  6  2  0  0  0
  3 23  1  0  0  0
  4  5  2  0  0  0
  4 24  1  0  0  0
  5  6  1  0  0  0
  5  9  1  0  0  0
  6  7  1  0  0  0
  7  8  1  0  0  0
  7 25  1  0  0  0
  7 26  1  0  0  0
  8 10  1  0  0  0
  8 27  1  0  0  0
  8 28  1  0  0  0
  9 10  1  0  0  0
  9 12  1  0  0  0
  9 29  1  0  0  0
 10 14  1  0  0  0
 10 30  1  0  0  0
 11 12  1  0  0  0
 11 13  1  0  0  0
 11 31  1  0  0  0
 11 32  1  0  0  0
 12 33  1  0  0  0
 12 34  1  0  0  0
 13 14  1  0  0  0
 13 17  1  0  0  0
 13 18  1  0  0  0
 14 15  1  0  0  0
 14 35  1  0  0  0
 15 16  1  0  0  0
 15 36  1  0  0  0
 15 37  1  0  0  0
 16 17  1  0  0  0
 16 21  1  0  0  0
 16 38  1  0  0  0
 17 20  2  0  0  0
 18 39  1  0  0  0
 18 40  1  0  0  0
 18 41  1  0  0  0
 19 42  1  0  0  0
 21 43  1  0  0  0
M  END
>  <Name>
lit-171

>  <Family>
A.1

>  <RBA>
7.000000

>  <RBA_avg>
7.000000

>  <Method>
MCF-7

>  <set>
0

$$$$
lit-172
  Cerius2 12180216413D 1   1.00000                          
 Structure written by MMmdl.
 46 49  0  0  0  0  0  0  0  0999 V2000
   -6.7974   -4.1148   16.7480 C   0  0  0  0  0  0
   -5.4148   -4.1407   16.6671 C   0  0  0  0  0  0
   -4.7849   -4.4378   15.4656 C   0  0  0  0  0  0
   -7.5625   -4.3804   15.6095 C   0  0  0  0  0  0
   -6.9570   -4.6615   14.3708 C   0  0  0  0  0  0
   -5.5469   -4.7158   14.3150 C   0  0  0  0  0  0
   -4.8026   -5.0146   13.0354 C   0  0  0  0  0  0
   -5.6762   -5.5987   11.9292 C   0  0  0  0  0  0
   -7.7974   -4.9957   13.1380 C   0  0  0  0  0  0
   -6.9825   -4.8094   11.8194 C   0  0  0  0  0  0
   -9.9666   -4.5822   11.7910 C   0  0  0  0  0  0
   -9.1621   -4.2603   13.0633 C   0  0  0  0  0  0
   -9.1332   -4.3800   10.5190 C   0  0  0  0  0  0
   -7.8577   -5.2452   10.6350 C   0  0  0  0  0  0
   -7.2806   -5.2211    9.2149 C   0  0  0  0  0  0
   -8.5350   -5.1687    8.2940 C   0  0  0  0  0  0
   -9.7475   -5.0007    9.2482 C   0  0  0  0  0  0
   -8.8756   -2.8653   10.3117 C   0  0  0  0  0  0
   -4.6995   -3.8729   17.7962 O   0  0  0  0  0  0
  -10.7750   -4.1943    8.6809 O   0  0  0  0  0  0
   -8.6407   -6.3818    7.5330 O   0  0  0  0  0  0
   -6.4860   -6.3795    8.9538 O   0  0  0  0  0  0
   -7.2904   -3.8934   17.6920 H   0  0  0  0  0  0
   -3.6979   -4.4599   15.4071 H   0  0  0  0  0  0
   -8.6449   -4.3692   15.7188 H   0  0  0  0  0  0
   -3.9818   -5.7133   13.2380 H   0  0  0  0  0  0
   -4.3560   -4.0768   12.6805 H   0  0  0  0  0  0
   -5.8908   -6.6545   12.1384 H   0  0  0  0  0  0
   -5.1114   -5.5650   10.9919 H   0  0  0  0  0  0
   -8.0281   -6.0680   13.2352 H   0  0  0  0  0  0
   -6.7136   -3.7517   11.7023 H   0  0  0  0  0  0
  -10.8728   -3.9651   11.7626 H   0  0  0  0  0  0
  -10.3066   -5.6243   11.8525 H   0  0  0  0  0  0
   -9.0048   -3.1779   13.1434 H   0  0  0  0  0  0
   -9.7908   -4.5399   13.9166 H   0  0  0  0  0  0
   -8.1474   -6.2905   10.8359 H   0  0  0  0  0  0
   -6.6564   -4.3342    9.0621 H   0  0  0  0  0  0
   -8.4565   -4.3363    7.5858 H   0  0  0  0  0  0
  -10.1906   -5.9805    9.4686 H   0  0  0  0  0  0
   -8.3023   -2.6588    9.4027 H   0  0  0  0  0  0
   -8.3288   -2.4108   11.1420 H   0  0  0  0  0  0
   -9.8236   -2.3217   10.2245 H   0  0  0  0  0  0
   -3.7445   -3.9309   17.5789 H   0  0  0  0  0  0
  -11.1263   -4.6876    7.9104 H   0  0  0  0  0  0
   -9.4166   -6.2686    6.9439 H   0  0  0  0  0  0
   -7.0119   -6.9007    8.3027 H   0  0  0  0  0  0
  1  2  2  0  0  0
  1  4  1  0  0  0
  1 23  1  0  0  0
  2  3  1  0  0  0
  2 19  1  0  0  0
  3  6  2  0  0  0
  3 24  1  0  0  0
  4  5  2  0  0  0
  4 25  1  0  0  0
  5  6  1  0  0  0
  5  9  1  0  0  0
  6  7  1  0  0  0
  7  8  1  0  0  0
  7 26  1  0  0  0
  7 27  1  0  0  0
  8 10  1  0  0  0
  8 28  1  0  0  0
  8 29  1  0  0  0
  9 10  1  0  0  0
  9 12  1  0  0  0
  9 30  1  0  0  0
 10 14  1  0  0  0
 10 31  1  0  0  0
 11 12  1  0  0  0
 11 13  1  0  0  0
 11 32  1  0  0  0
 11 33  1  0  0  0
 12 34  1  0  0  0
 12 35  1  0  0  0
 13 14  1  0  0  0
 13 17  1  0  0  0
 13 18  1  0  0  0
 14 15  1  0  0  0
 14 36  1  0  0  0
 15 16  1  0  0  0
 15 22  1  0  0  0
 15 37  1  0  0  0
 16 17  1  0  0  0
 16 21  1  0  0  0
 16 38  1  0  0  0
 17 20  1  0  0  0
 17 39  1  0  0  0
 18 40  1  0  0  0
 18 41  1  0  0  0
 18 42  1  0  0  0
 19 43  1  0  0  0
 20 44  1  0  0  0
 21 45  1  0  0  0
 22 46  1  0  0  0
M  END
>  <Name>
lit-172

>  <Family>
A.1

>  <RBA>
0.500000

>  <RBA_avg>
0.500000

>  <Method>
RUC

>  <set>
0

$$$$
lit-173
  Cerius2 12180216413D 1   1.00000                          
 Structure written by MMmdl.
 53 56  0  0  0  0  0  0  0  0999 V2000
   -6.7801   -4.0986   16.7480 C   0  0  0  0  0  0
   -5.3980   -4.1296   16.6572 C   0  0  0  0  0  0
   -4.7775   -4.4360   15.4529 C   0  0  0  0  0  0
   -7.5546   -4.3689   15.6170 C   0  0  0  0  0  0
   -6.9586   -4.6604   14.3764 C   0  0  0  0  0  0
   -5.5484   -4.7189   14.3098 C   0  0  0  0  0  0
   -4.8135   -5.0271   13.0256 C   0  0  0  0  0  0
   -5.6986   -5.6106   11.9286 C   0  0  0  0  0  0
   -7.8085   -5.0016   13.1521 C   0  0  0  0  0  0
   -7.0015   -4.8131   11.8324 C   0  0  0  0  0  0
   -9.9879   -4.6194   11.8143 C   0  0  0  0  0  0
   -9.1773   -4.2744   13.0797 C   0  0  0  0  0  0
   -9.1680   -4.4204   10.5261 C   0  0  0  0  0  0
   -7.8707   -5.2523   10.6509 C   0  0  0  0  0  0
   -7.2765   -5.2012    9.2453 C   0  0  0  0  0  0
   -8.4973   -5.1483    8.3033 C   0  0  0  0  0  0
   -9.7534   -5.0065    9.2041 C   0  0  0  0  0  0
   -8.9152   -2.8937   10.3449 C   0  0  0  0  0  0
  -10.6955   -4.1220    8.6041 O   0  0  0  0  0  0
   -4.6737   -3.8571   17.7795 O   0  0  0  0  0  0
  -10.4146   -6.3195    9.3722 C   0  0  0  0  0  0
  -10.9532   -7.3865    9.5044 C   0  0  0  0  0  0
  -11.6069   -8.6983    9.6692 C   0  0  0  0  0  0
  -11.8981   -9.0087   11.1360 C   0  0  0  0  0  0
  -12.9962   -8.2230   11.6114 O   0  0  0  0  0  0
   -7.2653   -3.8696   17.6941 H   0  0  0  0  0  0
   -3.6910   -4.4614   15.3869 H   0  0  0  0  0  0
   -8.6361   -4.3531   15.7336 H   0  0  0  0  0  0
   -3.9953   -5.7295   13.2259 H   0  0  0  0  0  0
   -4.3645   -4.0931   12.6639 H   0  0  0  0  0  0
   -5.9177   -6.6641   12.1457 H   0  0  0  0  0  0
   -5.1476   -5.5883   10.9819 H   0  0  0  0  0  0
   -8.0334   -6.0747   13.2537 H   0  0  0  0  0  0
   -6.7299   -3.7562   11.7146 H   0  0  0  0  0  0
  -10.9020   -4.0140   11.7862 H   0  0  0  0  0  0
  -10.3121   -5.6623   11.9112 H   0  0  0  0  0  0
   -9.0290   -3.1905   13.1508 H   0  0  0  0  0  0
   -9.7983   -4.5511   13.9397 H   0  0  0  0  0  0
   -8.1378   -6.3051   10.8350 H   0  0  0  0  0  0
   -6.6550   -6.0781    9.0362 H   0  0  0  0  0  0
   -6.6508   -4.3125    9.1053 H   0  0  0  0  0  0
   -8.5360   -6.0482    7.6776 H   0  0  0  0  0  0
   -8.3983   -4.2978    7.6179 H   0  0  0  0  0  0
   -8.3500   -2.6667    9.4357 H   0  0  0  0  0  0
   -8.3627   -2.4498   11.1766 H   0  0  0  0  0  0
   -9.8663   -2.3526   10.2769 H   0  0  0  0  0  0
  -10.9332   -4.5251    7.7443 H   0  0  0  0  0  0
   -3.7205   -3.9190   17.5554 H   0  0  0  0  0  0
  -10.9487   -9.4737    9.2618 H   0  0  0  0  0  0
  -12.5389   -8.7107    9.0930 H   0  0  0  0  0  0
  -11.0276   -8.8108   11.7707 H   0  0  0  0  0  0
  -12.1794  -10.0615   11.2409 H   0  0  0  0  0  0
  -13.1145   -8.4800   12.5510 H   0  0  0  0  0  0
  1  2  2  0  0  0
  1  4  1  0  0  0
  1 26  1  0  0  0
  2  3  1  0  0  0
  2 20  1  0  0  0
  3  6  2  0  0  0
  3 27  1  0  0  0
  4  5  2  0  0  0
  4 28  1  0  0  0
  5  6  1  0  0  0
  5  9  1  0  0  0
  6  7  1  0  0  0
  7  8  1  0  0  0
  7 29  1  0  0  0
  7 30  1  0  0  0
  8 10  1  0  0  0
  8 31  1  0  0  0
  8 32  1  0  0  0
  9 10  1  0  0  0
  9 12  1  0  0  0
  9 33  1  0  0  0
 10 14  1  0  0  0
 10 34  1  0  0  0
 11 12  1  0  0  0
 11 13  1  0  0  0
 11 35  1  0  0  0
 11 36  1  0  0  0
 12 37  1  0  0  0
 12 38  1  0  0  0
 13 14  1  0  0  0
 13 17  1  0  0  0
 13 18  1  0  0  0
 14 15  1  0  0  0
 14 39  1  0  0  0
 15 16  1  0  0  0
 15 40  1  0  0  0
 15 41  1  0  0  0
 16 17  1  0  0  0
 16 42  1  0  0  0
 16 43  1  0  0  0
 17 19  1  0  0  0
 17 21  1  0  0  0
 18 44  1  0  0  0
 18 45  1  0  0  0
 18 46  1  0  0  0
 19 47  1  0  0  0
 20 48  1  0  0  0
 21 22  3  0  0  0
 22 23  1  0  0  0
 23 24  1  0  0  0
 23 49  1  0  0  0
 23 50  1  0  0  0
 24 25  1  0  0  0
 24 51  1  0  0  0
 24 52  1  0  0  0
 25 53  1  0  0  0
M  END
>  <Name>
lit-173

>  <Family>
A.1

>  <RBA>
3.900000

>  <RBA_avg>
3.900000

>  <Method>
LUC*

>  <set>
0

$$$$
lit-174
  Cerius2 12180216413D 1   1.00000                          
 Structure written by MMmdl.
 58 62  0  0  0  0  0  0  0  0999 V2000
   -6.7751   -4.0765   16.7429 C   0  0  0  0  0  0
   -5.3934   -4.1161   16.6508 C   0  0  0  0  0  0
   -4.7760   -4.4391   15.4492 C   0  0  0  0  0  0
   -7.5526   -4.3551   15.6160 C   0  0  0  0  0  0
   -6.9600   -4.6639   14.3781 C   0  0  0  0  0  0
   -5.5500   -4.7299   14.3101 C   0  0  0  0  0  0
   -4.8183   -5.0525   13.0276 C   0  0  0  0  0  0
   -5.7084   -5.6286   11.9306 C   0  0  0  0  0  0
   -7.8118   -5.0122   13.1573 C   0  0  0  0  0  0
   -7.0074   -4.8238   11.8366 C   0  0  0  0  0  0
   -9.9907   -4.6421   11.8199 C   0  0  0  0  0  0
   -9.1837   -4.2926   13.0861 C   0  0  0  0  0  0
   -9.1765   -4.4299   10.5282 C   0  0  0  0  0  0
   -7.8770   -5.2568   10.6526 C   0  0  0  0  0  0
   -7.2725   -5.1996    9.2509 C   0  0  0  0  0  0
   -8.4796   -5.0769    8.3027 C   0  0  0  0  0  0
   -9.7524   -5.0240    9.1886 C   0  0  0  0  0  0
  -10.6771   -4.1061    8.5905 O   0  0  0  0  0  0
   -4.6662   -3.8343   17.7689 O   0  0  0  0  0  0
   -8.9261   -2.9000   10.3645 C   0  0  0  0  0  0
  -10.5592   -6.2942    9.3778 C   0  0  0  0  0  0
  -11.7665   -6.5897    9.8894 C   0  0  0  0  0  0
  -12.7743   -5.7015   10.4623 C   0  0  0  0  0  0
  -12.8049   -5.4762   11.8435 C   0  0  0  0  0  0
  -13.7774   -4.6416   12.3986 C   0  0  0  0  0  0
  -14.7289   -4.0373   11.5780 C   0  0  0  0  0  0
  -14.7134   -4.2712   10.2034 C   0  0  0  0  0  0
  -13.7418   -5.1060    9.6468 C   0  0  0  0  0  0
   -7.2578   -3.8340   17.6871 H   0  0  0  0  0  0
   -3.6898   -4.4704   15.3820 H   0  0  0  0  0  0
   -8.6339   -4.3306   15.7337 H   0  0  0  0  0  0
   -4.0087   -5.7639   13.2315 H   0  0  0  0  0  0
   -4.3575   -4.1255   12.6627 H   0  0  0  0  0  0
   -5.9334   -6.6813   12.1463 H   0  0  0  0  0  0
   -5.1579   -5.6091   10.9836 H   0  0  0  0  0  0
   -8.0319   -6.0861   13.2623 H   0  0  0  0  0  0
   -6.7318   -3.7678   11.7204 H   0  0  0  0  0  0
  -10.9126   -4.0489   11.7948 H   0  0  0  0  0  0
  -10.2974   -5.6903   11.9168 H   0  0  0  0  0  0
   -9.0430   -3.2080   13.1605 H   0  0  0  0  0  0
   -9.8029   -4.5756   13.9455 H   0  0  0  0  0  0
   -8.1470   -6.3075   10.8345 H   0  0  0  0  0  0
   -6.6816   -6.0940    9.0303 H   0  0  0  0  0  0
   -6.6109   -4.3340    9.1325 H   0  0  0  0  0  0
   -8.4906   -5.8694    7.5554 H   0  0  0  0  0  0
   -8.3800   -4.1536    7.7163 H   0  0  0  0  0  0
  -10.8989   -4.4814    7.7133 H   0  0  0  0  0  0
   -3.7135   -3.9036   17.5443 H   0  0  0  0  0  0
   -8.3463   -2.6583    9.4689 H   0  0  0  0  0  0
   -8.3871   -2.4624   11.2083 H   0  0  0  0  0  0
   -9.8785   -2.3620   10.2891 H   0  0  0  0  0  0
  -10.0084   -7.1709    9.0230 H   0  0  0  0  0  0
  -12.0731   -7.6375    9.8950 H   0  0  0  0  0  0
  -12.0689   -5.9442   12.4953 H   0  0  0  0  0  0
  -13.7926   -4.4643   13.4726 H   0  0  0  0  0  0
  -15.4868   -3.3866   12.0110 H   0  0  0  0  0  0
  -15.4603   -3.8050    9.5635 H   0  0  0  0  0  0
  -13.7480   -5.2873    8.5736 H   0  0  0  0  0  0
  1  2  2  0  0  0
  1  4  1  0  0  0
  1 29  1  0  0  0
  2  3  1  0  0  0
  2 19  1  0  0  0
  3  6  2  0  0  0
  3 30  1  0  0  0
  4  5  2  0  0  0
  4 31  1  0  0  0
  5  6  1  0  0  0
  5  9  1  0  0  0
  6  7  1  0  0  0
  7  8  1  0  0  0
  7 32  1  0  0  0
  7 33  1  0  0  0
  8 10  1  0  0  0
  8 34  1  0  0  0
  8 35  1  0  0  0
  9 10  1  0  0  0
  9 12  1  0  0  0
  9 36  1  0  0  0
 10 14  1  0  0  0
 10 37  1  0  0  0
 11 12  1  0  0  0
 11 13  1  0  0  0
 11 38  1  0  0  0
 11 39  1  0  0  0
 12 40  1  0  0  0
 12 41  1  0  0  0
 13 14  1  0  0  0
 13 17  1  0  0  0
 13 20  1  0  0  0
 14 15  1  0  0  0
 14 42  1  0  0  0
 15 16  1  0  0  0
 15 43  1  0  0  0
 15 44  1  0  0  0
 16 17  1  0  0  0
 16 45  1  0  0  0
 16 46  1  0  0  0
 17 18  1  0  0  0
 17 21  1  0  0  0
 18 47  1  0  0  0
 19 48  1  0  0  0
 20 49  1  0  0  0
 20 50  1  0  0  0
 20 51  1  0  0  0
 21 22  2  0  0  0
 21 52  1  0  0  0
 22 23  1  0  0  0
 22 53  1  0  0  0
 23 24  2  0  0  0
 23 28  1  0  0  0
 24 25  1  0  0  0
 24 54  1  0  0  0
 25 26  2  0  0  0
 25 55  1  0  0  0
 26 27  1  0  0  0
 26 56  1  0  0  0
 27 28  2  0  0  0
 27 57  1  0  0  0
 28 58  1  0  0  0
M  END
>  <Name>
lit-174

>  <Family>
A.1

>  <RBA>
48.000000

>  <RBA_avg>
48.000000

>  <Method>
LUC*

>  <set>
2

$$$$
lit-175
  Cerius2 12180216413D 1   1.00000                          
 Structure written by MMmdl.
 58 62  0  0  0  0  0  0  0  0999 V2000
   -6.7780   -4.0907   16.7464 C   0  0  0  0  0  0
   -5.3960   -4.1238   16.6545 C   0  0  0  0  0  0
   -4.7768   -4.4354   15.4508 C   0  0  0  0  0  0
   -7.5537   -4.3641   15.6172 C   0  0  0  0  0  0
   -6.9592   -4.6610   14.3771 C   0  0  0  0  0  0
   -5.5491   -4.7213   14.3094 C   0  0  0  0  0  0
   -4.8157   -5.0349   13.0257 C   0  0  0  0  0  0
   -5.7028   -5.6183   11.9300 C   0  0  0  0  0  0
   -7.8102   -5.0055   13.1547 C   0  0  0  0  0  0
   -7.0046   -4.8190   11.8338 C   0  0  0  0  0  0
   -9.9893   -4.6261   11.8171 C   0  0  0  0  0  0
   -9.1803   -4.2812   13.0833 C   0  0  0  0  0  0
   -9.1716   -4.4232   10.5271 C   0  0  0  0  0  0
   -7.8759   -5.2581   10.6533 C   0  0  0  0  0  0
   -7.2762   -5.2211    9.2479 C   0  0  0  0  0  0
   -8.4848   -5.0896    8.3007 C   0  0  0  0  0  0
   -9.7533   -5.0182    9.1970 C   0  0  0  0  0  0
  -10.6936   -4.1237    8.5980 O   0  0  0  0  0  0
   -4.6704   -3.8481   17.7752 O   0  0  0  0  0  0
   -8.9134   -2.8967   10.3528 C   0  0  0  0  0  0
  -10.5083   -6.3203    9.3829 C   0  0  0  0  0  0
  -11.7135   -6.5131    9.9473 C   0  0  0  0  0  0
  -12.3634   -7.8270   10.0759 C   0  0  0  0  0  0
  -12.2548   -8.8206    9.0933 C   0  0  0  0  0  0
  -12.9158  -10.0434    9.2406 C   0  0  0  0  0  0
  -13.7016  -10.2821   10.3659 C   0  0  0  0  0  0
  -13.8315   -9.2967   11.3419 C   0  0  0  0  0  0
  -13.1707   -8.0740   11.1946 C   0  0  0  0  0  0
   -7.2619   -3.8575   17.6921 H   0  0  0  0  0  0
   -3.6904   -4.4625   15.3839 H   0  0  0  0  0  0
   -8.6352   -4.3466   15.7345 H   0  0  0  0  0  0
   -3.9996   -5.7393   13.2276 H   0  0  0  0  0  0
   -4.3638   -4.1032   12.6618 H   0  0  0  0  0  0
   -5.9231   -6.6712   12.1487 H   0  0  0  0  0  0
   -5.1523   -5.5983   10.9828 H   0  0  0  0  0  0
   -8.0333   -6.0788   13.2585 H   0  0  0  0  0  0
   -6.7321   -3.7624   11.7145 H   0  0  0  0  0  0
  -10.9059   -4.0247   11.7899 H   0  0  0  0  0  0
  -10.3069   -5.6711   11.9141 H   0  0  0  0  0  0
   -9.0354   -3.1972   13.1580 H   0  0  0  0  0  0
   -9.8008   -4.5621   13.9424 H   0  0  0  0  0  0
   -8.1472   -6.3082   10.8439 H   0  0  0  0  0  0
   -6.7062   -6.1313    9.0340 H   0  0  0  0  0  0
   -6.6002   -4.3685    9.1189 H   0  0  0  0  0  0
   -8.5124   -5.9036    7.5698 H   0  0  0  0  0  0
   -8.3803   -4.1754    7.7019 H   0  0  0  0  0  0
  -10.9165   -4.5094    7.7258 H   0  0  0  0  0  0
   -3.7175   -3.9147   17.5512 H   0  0  0  0  0  0
   -8.3226   -2.6663    9.4614 H   0  0  0  0  0  0
   -8.3820   -2.4537   11.1988 H   0  0  0  0  0  0
   -9.8623   -2.3555   10.2619 H   0  0  0  0  0  0
   -9.9672   -7.1883    9.0042 H   0  0  0  0  0  0
  -12.2844   -5.6798   10.3501 H   0  0  0  0  0  0
  -11.6633   -8.6538    8.1946 H   0  0  0  0  0  0
  -12.8202  -10.8079    8.4714 H   0  0  0  0  0  0
  -14.2173  -11.2340   10.4794 H   0  0  0  0  0  0
  -14.4498   -9.4773   12.2194 H   0  0  0  0  0  0
  -13.2886   -7.3168   11.9691 H   0  0  0  0  0  0
  1  2  2  0  0  0
  1  4  1  0  0  0
  1 29  1  0  0  0
  2  3  1  0  0  0
  2 19  1  0  0  0
  3  6  2  0  0  0
  3 30  1  0  0  0
  4  5  2  0  0  0
  4 31  1  0  0  0
  5  6  1  0  0  0
  5  9  1  0  0  0
  6  7  1  0  0  0
  7  8  1  0  0  0
  7 32  1  0  0  0
  7 33  1  0  0  0
  8 10  1  0  0  0
  8 34  1  0  0  0
  8 35  1  0  0  0
  9 10  1  0  0  0
  9 12  1  0  0  0
  9 36  1  0  0  0
 10 14  1  0  0  0
 10 37  1  0  0  0
 11 12  1  0  0  0
 11 13  1  0  0  0
 11 38  1  0  0  0
 11 39  1  0  0  0
 12 40  1  0  0  0
 12 41  1  0  0  0
 13 14  1  0  0  0
 13 17  1  0  0  0
 13 20  1  0  0  0
 14 15  1  0  0  0
 14 42  1  0  0  0
 15 16  1  0  0  0
 15 43  1  0  0  0
 15 44  1  0  0  0
 16 17  1  0  0  0
 16 45  1  0  0  0
 16 46  1  0  0  0
 17 18  1  0  0  0
 17 21  1  0  0  0
 18 47  1  0  0  0
 19 48  1  0  0  0
 20 49  1  0  0  0
 20 50  1  0  0  0
 20 51  1  0  0  0
 21 22  2  0  0  0
 21 52  1  0  0  0
 22 23  1  0  0  0
 22 53  1  0  0  0
 23 24  2  0  0  0
 23 28  1  0  0  0
 24 25  1  0  0  0
 24 54  1  0  0  0
 25 26  2  0  0  0
 25 55  1  0  0  0
 26 27  1  0  0  0
 26 56  1  0  0  0
 27 28  2  0  0  0
 27 57  1  0  0  0
 28 58  1  0  0  0
M  END
>  <Name>
lit-175

>  <Family>
A.1

>  <RBA>
14.800000

>  <RBA_avg>
15.000000

>  <Method>
LUC*

>  <set>
0

$$$$
lit-176
  Cerius2 12180216413D 1   1.00000                          
 Structure written by MMmdl.
 50 53  0  0  0  0  0  0  0  0999 V2000
   -6.7800   -4.0946   16.7467 C   0  0  0  0  0  0
   -5.3980   -4.1270   16.6561 C   0  0  0  0  0  0
   -4.7777   -4.4366   15.4526 C   0  0  0  0  0  0
   -7.5547   -4.3668   15.6162 C   0  0  0  0  0  0
   -6.9590   -4.6616   14.3763 C   0  0  0  0  0  0
   -5.5486   -4.7211   14.3099 C   0  0  0  0  0  0
   -4.8138   -5.0318   13.0264 C   0  0  0  0  0  0
   -5.6993   -5.6135   11.9287 C   0  0  0  0  0  0
   -7.8087   -5.0041   13.1523 C   0  0  0  0  0  0
   -7.0015   -4.8149   11.8327 C   0  0  0  0  0  0
   -9.9882   -4.6230   11.8140 C   0  0  0  0  0  0
   -9.1785   -4.2790   13.0801 C   0  0  0  0  0  0
   -9.1679   -4.4213   10.5267 C   0  0  0  0  0  0
   -7.8703   -5.2526   10.6504 C   0  0  0  0  0  0
   -7.2756   -5.1985    9.2450 C   0  0  0  0  0  0
   -8.4958   -5.1429    8.3025 C   0  0  0  0  0  0
   -9.7525   -5.0048    9.2032 C   0  0  0  0  0  0
  -10.6952   -4.1192    8.6059 O   0  0  0  0  0  0
   -4.6737   -3.8524   17.7778 O   0  0  0  0  0  0
   -8.9158   -2.8941   10.3486 C   0  0  0  0  0  0
  -10.4136   -6.3183    9.3650 C   0  0  0  0  0  0
  -10.9545   -7.3859    9.4849 C   0  0  0  0  0  0
  -11.6123   -8.6858    9.6314 C   0  0  0  0  0  0
  -11.8433   -8.9311   11.0167 O   0  0  0  0  0  0
   -7.2652   -3.8630   17.6923 H   0  0  0  0  0  0
   -3.6912   -4.4631   15.3867 H   0  0  0  0  0  0
   -8.6363   -4.3497   15.7326 H   0  0  0  0  0  0
   -3.9974   -5.7361   13.2277 H   0  0  0  0  0  0
   -4.3622   -4.0991   12.6645 H   0  0  0  0  0  0
   -5.9192   -6.6670   12.1450 H   0  0  0  0  0  0
   -5.1479   -5.5912   10.9823 H   0  0  0  0  0  0
   -8.0323   -6.0775   13.2541 H   0  0  0  0  0  0
   -6.7292   -3.7582   11.7160 H   0  0  0  0  0  0
  -10.9029   -4.0186   11.7864 H   0  0  0  0  0  0
  -10.3112   -5.6664   11.9088 H   0  0  0  0  0  0
   -9.0317   -3.1948   13.1528 H   0  0  0  0  0  0
   -9.7992   -4.5577   13.9395 H   0  0  0  0  0  0
   -8.1371   -6.3060   10.8326 H   0  0  0  0  0  0
   -6.6544   -6.0752    9.0342 H   0  0  0  0  0  0
   -6.6494   -4.3098    9.1074 H   0  0  0  0  0  0
   -8.5337   -6.0406    7.6736 H   0  0  0  0  0  0
   -8.3969   -4.2900    7.6201 H   0  0  0  0  0  0
  -10.9223   -4.5119    7.7383 H   0  0  0  0  0  0
   -3.7205   -3.9158   17.5542 H   0  0  0  0  0  0
   -8.3509   -2.6649    9.4396 H   0  0  0  0  0  0
   -8.3629   -2.4517   11.1809 H   0  0  0  0  0  0
   -9.8670   -2.3530   10.2820 H   0  0  0  0  0  0
  -10.9828   -9.4885    9.2358 H   0  0  0  0  0  0
  -12.5742   -8.6977    9.1102 H   0  0  0  0  0  0
  -12.2820   -9.8073   11.0430 H   0  0  0  0  0  0
  1  2  2  0  0  0
  1  4  1  0  0  0
  1 25  1  0  0  0
  2  3  1  0  0  0
  2 19  1  0  0  0
  3  6  2  0  0  0
  3 26  1  0  0  0
  4  5  2  0  0  0
  4 27  1  0  0  0
  5  6  1  0  0  0
  5  9  1  0  0  0
  6  7  1  0  0  0
  7  8  1  0  0  0
  7 28  1  0  0  0
  7 29  1  0  0  0
  8 10  1  0  0  0
  8 30  1  0  0  0
  8 31  1  0  0  0
  9 10  1  0  0  0
  9 12  1  0  0  0
  9 32  1  0  0  0
 10 14  1  0  0  0
 10 33  1  0  0  0
 11 12  1  0  0  0
 11 13  1  0  0  0
 11 34  1  0  0  0
 11 35  1  0  0  0
 12 36  1  0  0  0
 12 37  1  0  0  0
 13 14  1  0  0  0
 13 17  1  0  0  0
 13 20  1  0  0  0
 14 15  1  0  0  0
 14 38  1  0  0  0
 15 16  1  0  0  0
 15 39  1  0  0  0
 15 40  1  0  0  0
 16 17  1  0  0  0
 16 41  1  0  0  0
 16 42  1  0  0  0
 17 18  1  0  0  0
 17 21  1  0  0  0
 18 43  1  0  0  0
 19 44  1  0  0  0
 20 45  1  0  0  0
 20 46  1  0  0  0
 20 47  1  0  0  0
 21 22  3  0  0  0
 22 23  1  0  0  0
 23 24  1  0  0  0
 23 48  1  0  0  0
 23 49  1  0  0  0
 24 50  1  0  0  0
M  END
>  <Name>
lit-176

>  <Family>
A.1

>  <RBA>
3.600000

>  <RBA_avg>
3.600000

>  <Method>
LUC*

>  <set>
0

$$$$
lit-177
  Cerius2 12180216413D 1   1.00000                          
 Structure written by MMmdl.
 49 52  0  0  0  0  0  0  0  0999 V2000
   -6.7800   -4.0964   16.7471 C   0  0  0  0  0  0
   -5.3980   -4.1279   16.6563 C   0  0  0  0  0  0
   -4.7776   -4.4363   15.4525 C   0  0  0  0  0  0
   -7.5549   -4.3685   15.6167 C   0  0  0  0  0  0
   -6.9590   -4.6620   14.3765 C   0  0  0  0  0  0
   -5.5488   -4.7206   14.3099 C   0  0  0  0  0  0
   -4.8138   -5.0297   13.0259 C   0  0  0  0  0  0
   -5.6993   -5.6125   11.9287 C   0  0  0  0  0  0
   -7.8089   -5.0037   13.1523 C   0  0  0  0  0  0
   -7.0016   -4.8142   11.8329 C   0  0  0  0  0  0
   -9.9881   -4.6202   11.8141 C   0  0  0  0  0  0
   -9.1779   -4.2771   13.0801 C   0  0  0  0  0  0
   -9.1675   -4.4200   10.5264 C   0  0  0  0  0  0
   -7.8704   -5.2521   10.6508 C   0  0  0  0  0  0
   -7.2757   -5.1997    9.2453 C   0  0  0  0  0  0
   -8.4961   -5.1448    8.3029 C   0  0  0  0  0  0
   -9.7522   -5.0051    9.2035 C   0  0  0  0  0  0
  -10.6965   -4.1223    8.6053 O   0  0  0  0  0  0
   -4.6737   -3.8536   17.7782 O   0  0  0  0  0  0
   -8.9151   -2.8933   10.3467 C   0  0  0  0  0  0
  -10.4107   -6.3184    9.3718 C   0  0  0  0  0  0
  -10.9432   -7.3874    9.5147 C   0  0  0  0  0  0
  -11.5873   -8.6891    9.7054 C   0  0  0  0  0  0
  -11.2227   -9.2535   11.3556 Cl  0  0  0  0  0  0
   -7.2649   -3.8655   17.6928 H   0  0  0  0  0  0
   -3.6911   -4.4617   15.3862 H   0  0  0  0  0  0
   -8.6363   -4.3520   15.7332 H   0  0  0  0  0  0
   -3.9963   -5.7327   13.2264 H   0  0  0  0  0  0
   -4.3642   -4.0961   12.6643 H   0  0  0  0  0  0
   -5.9189   -6.6659   12.1456 H   0  0  0  0  0  0
   -5.1480   -5.5902   10.9821 H   0  0  0  0  0  0
   -8.0333   -6.0769   13.2535 H   0  0  0  0  0  0
   -6.7296   -3.7573   11.7161 H   0  0  0  0  0  0
  -10.9020   -4.0147   11.7864 H   0  0  0  0  0  0
  -10.3123   -5.6630   11.9100 H   0  0  0  0  0  0
   -9.0302   -3.1932   13.1528 H   0  0  0  0  0  0
   -9.7991   -4.5553   13.9395 H   0  0  0  0  0  0
   -8.1376   -6.3052   10.8341 H   0  0  0  0  0  0
   -6.6549   -6.0770    9.0355 H   0  0  0  0  0  0
   -6.6493   -4.3114    9.1066 H   0  0  0  0  0  0
   -8.5345   -6.0433    7.6751 H   0  0  0  0  0  0
   -8.3968   -4.2928    7.6193 H   0  0  0  0  0  0
  -10.9258   -4.5190    7.7400 H   0  0  0  0  0  0
   -3.7205   -3.9180   17.5548 H   0  0  0  0  0  0
   -8.3504   -2.6649    9.4374 H   0  0  0  0  0  0
   -8.3624   -2.4502   11.1788 H   0  0  0  0  0  0
   -9.8663   -2.3522   10.2796 H   0  0  0  0  0  0
  -11.2076   -9.4334    9.0009 H   0  0  0  0  0  0
  -12.6733   -8.6199    9.6025 H   0  0  0  0  0  0
  1  2  2  0  0  0
  1  4  1  0  0  0
  1 25  1  0  0  0
  2  3  1  0  0  0
  2 19  1  0  0  0
  3  6  2  0  0  0
  3 26  1  0  0  0
  4  5  2  0  0  0
  4 27  1  0  0  0
  5  6  1  0  0  0
  5  9  1  0  0  0
  6  7  1  0  0  0
  7  8  1  0  0  0
  7 28  1  0  0  0
  7 29  1  0  0  0
  8 10  1  0  0  0
  8 30  1  0  0  0
  8 31  1  0  0  0
  9 10  1  0  0  0
  9 12  1  0  0  0
  9 32  1  0  0  0
 10 14  1  0  0  0
 10 33  1  0  0  0
 11 12  1  0  0  0
 11 13  1  0  0  0
 11 34  1  0  0  0
 11 35  1  0  0  0
 12 36  1  0  0  0
 12 37  1  0  0  0
 13 14  1  0  0  0
 13 17  1  0  0  0
 13 20  1  0  0  0
 14 15  1  0  0  0
 14 38  1  0  0  0
 15 16  1  0  0  0
 15 39  1  0  0  0
 15 40  1  0  0  0
 16 17  1  0  0  0
 16 41  1  0  0  0
 16 42  1  0  0  0
 17 18  1  0  0  0
 17 21  1  0  0  0
 18 43  1  0  0  0
 19 44  1  0  0  0
 20 45  1  0  0  0
 20 46  1  0  0  0
 20 47  1  0  0  0
 21 22  3  0  0  0
 22 23  1  0  0  0
 23 24  1  0  0  0
 23 48  1  0  0  0
 23 49  1  0  0  0
M  END
>  <Name>
lit-177

>  <Family>
A.1

>  <RBA>
19.500000

>  <RBA_avg>
20.000000

>  <Method>
LUC*

>  <set>
1

$$$$
lit-178
  Cerius2 12180216413D 1   1.00000                          
 Structure written by MMmdl.
 48 51  0  0  0  0  0  0  0  0999 V2000
   -6.7818   -4.1038   16.7493 C   0  0  0  0  0  0
   -5.3997   -4.1332   16.6590 C   0  0  0  0  0  0
   -4.7786   -4.4358   15.4542 C   0  0  0  0  0  0
   -7.5555   -4.3713   15.6171 C   0  0  0  0  0  0
   -6.9592   -4.6579   14.3754 C   0  0  0  0  0  0
   -5.5488   -4.7159   14.3098 C   0  0  0  0  0  0
   -4.8129   -5.0214   13.0259 C   0  0  0  0  0  0
   -5.6971   -5.6095   11.9310 C   0  0  0  0  0  0
   -7.8097   -4.9936   13.1494 C   0  0  0  0  0  0
   -6.9998   -4.8120   11.8302 C   0  0  0  0  0  0
   -9.9932   -4.5947   11.8165 C   0  0  0  0  0  0
   -9.1703   -4.2516   13.0752 C   0  0  0  0  0  0
   -9.1719   -4.4490   10.5248 C   0  0  0  0  0  0
   -7.8657   -5.2600   10.6490 C   0  0  0  0  0  0
   -7.2721   -5.1972    9.2422 C   0  0  0  0  0  0
   -8.4898   -5.1198    8.2954 C   0  0  0  0  0  0
   -9.7611   -5.0406    9.1961 C   0  0  0  0  0  0
  -10.7006   -4.1129    8.6397 O   0  0  0  0  0  0
   -4.6762   -3.8634   17.7824 O   0  0  0  0  0  0
   -8.9107   -2.9163   10.3294 C   0  0  0  0  0  0
  -10.4699   -6.3830    9.1385 C   0  0  0  0  0  0
  -11.6709   -6.7753    9.5852 C   0  0  0  0  0  0
   -7.2677   -3.8782   17.6959 H   0  0  0  0  0  0
   -3.6921   -4.4607   15.3888 H   0  0  0  0  0  0
   -8.6371   -4.3574   15.7338 H   0  0  0  0  0  0
   -3.9922   -5.7208   13.2261 H   0  0  0  0  0  0
   -4.3677   -4.0861   12.6631 H   0  0  0  0  0  0
   -5.9164   -6.6620   12.1527 H   0  0  0  0  0  0
   -5.1456   -5.5915   10.9844 H   0  0  0  0  0  0
   -8.0445   -6.0645   13.2514 H   0  0  0  0  0  0
   -6.7274   -3.7561   11.7076 H   0  0  0  0  0  0
  -10.8844   -3.9561   11.7786 H   0  0  0  0  0  0
  -10.3651   -5.6122   11.9453 H   0  0  0  0  0  0
   -9.0079   -3.1690   13.1378 H   0  0  0  0  0  0
   -9.7919   -4.5117   13.9398 H   0  0  0  0  0  0
   -8.1049   -6.3152   10.8322 H   0  0  0  0  0  0
   -6.6611   -6.0796    9.0248 H   0  0  0  0  0  0
   -6.6343   -4.3159    9.1116 H   0  0  0  0  0  0
   -8.5018   -5.9907    7.6286 H   0  0  0  0  0  0
   -8.4025   -4.2409    7.6450 H   0  0  0  0  0  0
  -10.7687   -4.3168    7.6848 H   0  0  0  0  0  0
   -3.7228   -3.9240   17.5588 H   0  0  0  0  0  0
   -8.3465   -2.6931    9.4189 H   0  0  0  0  0  0
   -8.3544   -2.4685   11.1565 H   0  0  0  0  0  0
   -9.8587   -2.3693   10.2615 H   0  0  0  0  0  0
   -9.8747   -7.1702    8.6685 H   0  0  0  0  0  0
  -11.9915   -7.8065    9.4506 H   0  0  0  0  0  0
  -12.3668   -6.1303   10.1064 H   0  0  0  0  0  0
  1  2  2  0  0  0
  1  4  1  0  0  0
  1 23  1  0  0  0
  2  3  1  0  0  0
  2 19  1  0  0  0
  3  6  2  0  0  0
  3 24  1  0  0  0
  4  5  2  0  0  0
  4 25  1  0  0  0
  5  6  1  0  0  0
  5  9  1  0  0  0
  6  7  1  0  0  0
  7  8  1  0  0  0
  7 26  1  0  0  0
  7 27  1  0  0  0
  8 10  1  0  0  0
  8 28  1  0  0  0
  8 29  1  0  0  0
  9 10  1  0  0  0
  9 12  1  0  0  0
  9 30  1  0  0  0
 10 14  1  0  0  0
 10 31  1  0  0  0
 11 12  1  0  0  0
 11 13  1  0  0  0
 11 32  1  0  0  0
 11 33  1  0  0  0
 12 34  1  0  0  0
 12 35  1  0  0  0
 13 14  1  0  0  0
 13 17  1  0  0  0
 13 20  1  0  0  0
 14 15  1  0  0  0
 14 36  1  0  0  0
 15 16  1  0  0  0
 15 37  1  0  0  0
 15 38  1  0  0  0
 16 17  1  0  0  0
 16 39  1  0  0  0
 16 40  1  0  0  0
 17 18  1  0  0  0
 17 21  1  0  0  0
 18 41  1  0  0  0
 19 42  1  0  0  0
 20 43  1  0  0  0
 20 44  1  0  0  0
 20 45  1  0  0  0
 21 22  2  0  0  0
 21 46  1  0  0  0
 22 47  1  0  0  0
 22 48  1  0  0  0
M  END
>  <Name>
lit-178

>  <Family>
A.1

>  <RBA>
63.100000

>  <RBA_avg>
63.000000

>  <Method>
LUC*

>  <set>
0

$$$$
lit-179
  Cerius2 12180216413D 1   1.00000                          
 Structure written by MMmdl.
 50 53  0  0  0  0  0  0  0  0999 V2000
   -6.7798   -4.0972   16.7451 C   0  0  0  0  0  0
   -5.3977   -4.1170   16.6521 C   0  0  0  0  0  0
   -4.7765   -4.4207   15.4475 C   0  0  0  0  0  0
   -7.5540   -4.3767   15.6161 C   0  0  0  0  0  0
   -6.9575   -4.6664   14.3754 C   0  0  0  0  0  0
   -5.5468   -4.7121   14.3061 C   0  0  0  0  0  0
   -4.8110   -5.0140   13.0207 C   0  0  0  0  0  0
   -5.6929   -5.5976   11.9208 C   0  0  0  0  0  0
   -7.8051   -5.0181   13.1530 C   0  0  0  0  0  0
   -7.0034   -4.8114   11.8318 C   0  0  0  0  0  0
   -9.9948   -4.6625   11.8178 C   0  0  0  0  0  0
   -9.1900   -4.3202   13.0883 C   0  0  0  0  0  0
   -9.1782   -4.4329   10.5348 C   0  0  0  0  0  0
   -7.8746   -5.2540   10.6525 C   0  0  0  0  0  0
   -7.2958   -5.1991    9.2441 C   0  0  0  0  0  0
   -8.5266   -5.2447    8.3162 C   0  0  0  0  0  0
   -9.7760   -4.9908    9.2019 C   0  0  0  0  0  0
  -10.5933   -3.9874    8.5699 O   0  0  0  0  0  0
   -4.6740   -3.8359   17.7727 O   0  0  0  0  0  0
   -8.9268   -2.9013   10.3851 C   0  0  0  0  0  0
  -10.6471   -6.2732    9.3576 C   0  0  0  0  0  0
  -10.2848   -7.3937    9.0033 O   0  0  0  0  0  0
  -11.8479   -6.0176    9.9453 O   0  0  0  0  0  0
  -12.6935   -7.1604   10.1128 C   0  0  0  0  0  0
   -7.2655   -3.8697   17.6914 H   0  0  0  0  0  0
   -3.6900   -4.4367   15.3797 H   0  0  0  0  0  0
   -8.6354   -4.3689   15.7342 H   0  0  0  0  0  0
   -3.9898   -5.7133   13.2193 H   0  0  0  0  0  0
   -4.3659   -4.0769   12.6619 H   0  0  0  0  0  0
   -5.9016   -6.6546   12.1309 H   0  0  0  0  0  0
   -5.1437   -5.5635   10.9734 H   0  0  0  0  0  0
   -8.0092   -6.0958   13.2517 H   0  0  0  0  0  0
   -6.7397   -3.7524   11.7201 H   0  0  0  0  0  0
  -10.9183   -4.0714   11.7971 H   0  0  0  0  0  0
  -10.3021   -5.7121   11.8967 H   0  0  0  0  0  0
   -9.0651   -3.2343   13.1746 H   0  0  0  0  0  0
   -9.8043   -4.6221   13.9448 H   0  0  0  0  0  0
   -8.1217   -6.3067   10.8450 H   0  0  0  0  0  0
   -6.6211   -6.0378    9.0438 H   0  0  0  0  0  0
   -6.7293   -4.2754    9.0804 H   0  0  0  0  0  0
   -8.5782   -6.2172    7.8135 H   0  0  0  0  0  0
   -8.4233   -4.4891    7.5284 H   0  0  0  0  0  0
  -10.9042   -4.3722    7.7238 H   0  0  0  0  0  0
   -3.7207   -3.8914   17.5476 H   0  0  0  0  0  0
   -8.3775   -2.6590    9.4695 H   0  0  0  0  0  0
   -8.3605   -2.4734   11.2158 H   0  0  0  0  0  0
   -9.8777   -2.3564   10.3479 H   0  0  0  0  0  0
  -13.6233   -6.8267   10.5813 H   0  0  0  0  0  0
  -12.2159   -7.8944   10.7689 H   0  0  0  0  0  0
  -12.9324   -7.6033    9.1410 H   0  0  0  0  0  0
  1  2  2  0  0  0
  1  4  1  0  0  0
  1 25  1  0  0  0
  2  3  1  0  0  0
  2 19  1  0  0  0
  3  6  2  0  0  0
  3 26  1  0  0  0
  4  5  2  0  0  0
  4 27  1  0  0  0
  5  6  1  0  0  0
  5  9  1  0  0  0
  6  7  1  0  0  0
  7  8  1  0  0  0
  7 28  1  0  0  0
  7 29  1  0  0  0
  8 10  1  0  0  0
  8 30  1  0  0  0
  8 31  1  0  0  0
  9 10  1  0  0  0
  9 12  1  0  0  0
  9 32  1  0  0  0
 10 14  1  0  0  0
 10 33  1  0  0  0
 11 12  1  0  0  0
 11 13  1  0  0  0
 11 34  1  0  0  0
 11 35  1  0  0  0
 12 36  1  0  0  0
 12 37  1  0  0  0
 13 14  1  0  0  0
 13 17  1  0  0  0
 13 20  1  0  0  0
 14 15  1  0  0  0
 14 38  1  0  0  0
 15 16  1  0  0  0
 15 39  1  0  0  0
 15 40  1  0  0  0
 16 17  1  0  0  0
 16 41  1  0  0  0
 16 42  1  0  0  0
 17 18  1  0  0  0
 17 21  1  0  0  0
 18 43  1  0  0  0
 19 44  1  0  0  0
 20 45  1  0  0  0
 20 46  1  0  0  0
 20 47  1  0  0  0
 21 22  2  0  0  0
 21 23  1  0  0  0
 23 24  1  0  0  0
 24 48  1  0  0  0
 24 49  1  0  0  0
 24 50  1  0  0  0
M  END
>  <Name>
lit-179

>  <Family>
A.1

>  <RBA>
22.000000

>  <RBA_avg>
22.000000

>  <Method>
RUC*

>  <set>
2

$$$$
lit-180
  Cerius2 12180216413D 1   1.00000                          
 Structure written by MMmdl.
 49 52  0  0  0  0  0  0  0  0999 V2000
   -6.7803   -4.0983   16.7456 C   0  0  0  0  0  0
   -5.3982   -4.1190   16.6528 C   0  0  0  0  0  0
   -4.7770   -4.4220   15.4481 C   0  0  0  0  0  0
   -7.5544   -4.3761   15.6161 C   0  0  0  0  0  0
   -6.9580   -4.6649   14.3751 C   0  0  0  0  0  0
   -5.5472   -4.7120   14.3063 C   0  0  0  0  0  0
   -4.8114   -5.0141   13.0211 C   0  0  0  0  0  0
   -5.6935   -5.5989   11.9221 C   0  0  0  0  0  0
   -7.8060   -5.0144   13.1523 C   0  0  0  0  0  0
   -7.0029   -4.8111   11.8313 C   0  0  0  0  0  0
   -9.9969   -4.6511   11.8177 C   0  0  0  0  0  0
   -9.1881   -4.3107   13.0865 C   0  0  0  0  0  0
   -9.1783   -4.4400   10.5340 C   0  0  0  0  0  0
   -7.8734   -5.2556   10.6521 C   0  0  0  0  0  0
   -7.2932   -5.2052    9.2429 C   0  0  0  0  0  0
   -8.5227   -5.2157    8.3108 C   0  0  0  0  0  0
   -9.7725   -5.0036    9.2038 C   0  0  0  0  0  0
  -10.6033   -4.0009    8.5835 O   0  0  0  0  0  0
   -4.6745   -3.8392   17.7738 O   0  0  0  0  0  0
   -8.9232   -2.9073   10.3765 C   0  0  0  0  0  0
  -10.6539   -6.2905    9.3172 C   0  0  0  0  0  0
  -10.2382   -7.3870    8.9088 O   0  0  0  0  0  0
  -12.0344   -6.2137    9.9239 C   0  0  0  0  0  0
   -7.2659   -3.8715   17.6921 H   0  0  0  0  0  0
   -3.6905   -4.4390   15.3806 H   0  0  0  0  0  0
   -8.6358   -4.3679   15.7341 H   0  0  0  0  0  0
   -3.9899   -5.7130   13.2198 H   0  0  0  0  0  0
   -4.3669   -4.0772   12.6614 H   0  0  0  0  0  0
   -5.9036   -6.6553   12.1343 H   0  0  0  0  0  0
   -5.1441   -5.5675   10.9746 H   0  0  0  0  0  0
   -8.0144   -6.0911   13.2513 H   0  0  0  0  0  0
   -6.7379   -3.7527   11.7176 H   0  0  0  0  0  0
  -10.9122   -4.0473   11.7934 H   0  0  0  0  0  0
  -10.3219   -5.6928   11.9046 H   0  0  0  0  0  0
   -9.0578   -3.2252   13.1702 H   0  0  0  0  0  0
   -9.8034   -4.6071   13.9442 H   0  0  0  0  0  0
   -8.1168   -6.3067   10.8465 H   0  0  0  0  0  0
   -6.6388   -6.0592    9.0397 H   0  0  0  0  0  0
   -6.7041   -4.2949    9.0849 H   0  0  0  0  0  0
   -8.5706   -6.1565    7.7526 H   0  0  0  0  0  0
   -8.4200   -4.4205    7.5624 H   0  0  0  0  0  0
  -10.9674   -4.4083    7.7696 H   0  0  0  0  0  0
   -3.7211   -3.8946   17.5486 H   0  0  0  0  0  0
   -8.3695   -2.6696    9.4624 H   0  0  0  0  0  0
   -8.3593   -2.4764   11.2072 H   0  0  0  0  0  0
   -9.8726   -2.3602   10.3331 H   0  0  0  0  0  0
  -12.3457   -7.2198   10.2231 H   0  0  0  0  0  0
  -12.7511   -5.8381    9.1922 H   0  0  0  0  0  0
  -12.0424   -5.5928   10.8204 H   0  0  0  0  0  0
  1  2  2  0  0  0
  1  4  1  0  0  0
  1 24  1  0  0  0
  2  3  1  0  0  0
  2 19  1  0  0  0
  3  6  2  0  0  0
  3 25  1  0  0  0
  4  5  2  0  0  0
  4 26  1  0  0  0
  5  6  1  0  0  0
  5  9  1  0  0  0
  6  7  1  0  0  0
  7  8  1  0  0  0
  7 27  1  0  0  0
  7 28  1  0  0  0
  8 10  1  0  0  0
  8 29  1  0  0  0
  8 30  1  0  0  0
  9 10  1  0  0  0
  9 12  1  0  0  0
  9 31  1  0  0  0
 10 14  1  0  0  0
 10 32  1  0  0  0
 11 12  1  0  0  0
 11 13  1  0  0  0
 11 33  1  0  0  0
 11 34  1  0  0  0
 12 35  1  0  0  0
 12 36  1  0  0  0
 13 14  1  0  0  0
 13 17  1  0  0  0
 13 20  1  0  0  0
 14 15  1  0  0  0
 14 37  1  0  0  0
 15 16  1  0  0  0
 15 38  1  0  0  0
 15 39  1  0  0  0
 16 17  1  0  0  0
 16 40  1  0  0  0
 16 41  1  0  0  0
 17 18  1  0  0  0
 17 21  1  0  0  0
 18 42  1  0  0  0
 19 43  1  0  0  0
 20 44  1  0  0  0
 20 45  1  0  0  0
 20 46  1  0  0  0
 21 22  2  0  0  0
 21 23  1  0  0  0
 23 47  1  0  0  0
 23 48  1  0  0  0
 23 49  1  0  0  0
M  END
>  <Name>
lit-180

>  <Family>
A.1

>  <RBA>
36.300000

>  <RBA_avg>
36.000000

>  <Method>
RUC*

>  <set>
1

$$$$
lit-181
  Cerius2 12180216413D 1   1.00000                          
 Structure written by MMmdl.
 58 61  0  0  0  0  0  0  0  0999 V2000
   -6.7802   -4.0958   16.7471 C   0  0  0  0  0  0
   -5.3982   -4.1286   16.6567 C   0  0  0  0  0  0
   -4.7776   -4.4375   15.4532 C   0  0  0  0  0  0
   -7.5548   -4.3671   15.6163 C   0  0  0  0  0  0
   -6.9588   -4.6610   14.3763 C   0  0  0  0  0  0
   -5.5486   -4.7209   14.3101 C   0  0  0  0  0  0
   -4.8135   -5.0305   13.0264 C   0  0  0  0  0  0
   -5.6990   -5.6119   11.9285 C   0  0  0  0  0  0
   -7.8085   -5.0026   13.1520 C   0  0  0  0  0  0
   -7.0011   -4.8133   11.8324 C   0  0  0  0  0  0
   -9.9878   -4.6206   11.8141 C   0  0  0  0  0  0
   -9.1778   -4.2765   13.0798 C   0  0  0  0  0  0
   -9.1673   -4.4198   10.5263 C   0  0  0  0  0  0
   -7.8699   -5.2516   10.6505 C   0  0  0  0  0  0
   -7.2758   -5.2000    9.2448 C   0  0  0  0  0  0
   -8.4965   -5.1439    8.3026 C   0  0  0  0  0  0
   -9.7522   -5.0057    9.2040 C   0  0  0  0  0  0
  -10.6980   -4.1244    8.6057 O   0  0  0  0  0  0
   -4.6739   -3.8551   17.7789 O   0  0  0  0  0  0
   -8.9155   -2.8932   10.3461 C   0  0  0  0  0  0
  -10.4068   -6.3210    9.3735 C   0  0  0  0  0  0
  -10.9317   -7.3935    9.5146 C   0  0  0  0  0  0
  -11.5674   -8.7169    9.7102 C   0  0  0  0  0  0
  -11.7069   -8.9932   11.2138 C   0  0  0  0  0  0
  -10.6921   -9.8011    9.0671 C   0  0  0  0  0  0
  -12.9549   -8.7187    9.0551 C   0  0  0  0  0  0
   -7.2654   -3.8648   17.6928 H   0  0  0  0  0  0
   -3.6911   -4.4643   15.3875 H   0  0  0  0  0  0
   -8.6363   -4.3498   15.7326 H   0  0  0  0  0  0
   -3.9970   -5.7346   13.2273 H   0  0  0  0  0  0
   -4.3624   -4.0974   12.6650 H   0  0  0  0  0  0
   -5.9189   -6.6655   12.1445 H   0  0  0  0  0  0
   -5.1475   -5.5893   10.9820 H   0  0  0  0  0  0
   -8.0327   -6.0758   13.2533 H   0  0  0  0  0  0
   -6.7291   -3.7564   11.7155 H   0  0  0  0  0  0
  -10.9022   -4.0156   11.7862 H   0  0  0  0  0  0
  -10.3114   -5.6636   11.9101 H   0  0  0  0  0  0
   -9.0302   -3.1925   13.1519 H   0  0  0  0  0  0
   -9.7987   -4.5544   13.9395 H   0  0  0  0  0  0
   -8.1367   -6.3046   10.8342 H   0  0  0  0  0  0
   -6.6561   -6.0779    9.0348 H   0  0  0  0  0  0
   -6.6485   -4.3123    9.1056 H   0  0  0  0  0  0
   -8.5351   -6.0413    7.6733 H   0  0  0  0  0  0
   -8.3979   -4.2907    7.6204 H   0  0  0  0  0  0
  -10.9422   -4.5329    7.7504 H   0  0  0  0  0  0
   -3.7207   -3.9192   17.5554 H   0  0  0  0  0  0
   -8.3494   -2.6653    9.4376 H   0  0  0  0  0  0
   -8.3641   -2.4494   11.1785 H   0  0  0  0  0  0
   -9.8670   -2.3526   10.2772 H   0  0  0  0  0  0
  -12.1737   -9.9677   11.3966 H   0  0  0  0  0  0
  -12.3229   -8.2299   11.7041 H   0  0  0  0  0  0
  -10.7299   -8.9913   11.7121 H   0  0  0  0  0  0
  -11.1340  -10.7957    9.1958 H   0  0  0  0  0  0
   -9.6898   -9.8204    9.5117 H   0  0  0  0  0  0
  -10.5673   -9.6271    7.9917 H   0  0  0  0  0  0
  -13.4529   -9.6864    9.1835 H   0  0  0  0  0  0
  -12.8882   -8.5170    7.9793 H   0  0  0  0  0  0
  -13.6028   -7.9487    9.4907 H   0  0  0  0  0  0
  1  2  2  0  0  0
  1  4  1  0  0  0
  1 27  1  0  0  0
  2  3  1  0  0  0
  2 19  1  0  0  0
  3  6  2  0  0  0
  3 28  1  0  0  0
  4  5  2  0  0  0
  4 29  1  0  0  0
  5  6  1  0  0  0
  5  9  1  0  0  0
  6  7  1  0  0  0
  7  8  1  0  0  0
  7 30  1  0  0  0
  7 31  1  0  0  0
  8 10  1  0  0  0
  8 32  1  0  0  0
  8 33  1  0  0  0
  9 10  1  0  0  0
  9 12  1  0  0  0
  9 34  1  0  0  0
 10 14  1  0  0  0
 10 35  1  0  0  0
 11 12  1  0  0  0
 11 13  1  0  0  0
 11 36  1  0  0  0
 11 37  1  0  0  0
 12 38  1  0  0  0
 12 39  1  0  0  0
 13 14  1  0  0  0
 13 17  1  0  0  0
 13 20  1  0  0  0
 14 15  1  0  0  0
 14 40  1  0  0  0
 15 16  1  0  0  0
 15 41  1  0  0  0
 15 42  1  0  0  0
 16 17  1  0  0  0
 16 43  1  0  0  0
 16 44  1  0  0  0
 17 18  1  0  0  0
 17 21  1  0  0  0
 18 45  1  0  0  0
 19 46  1  0  0  0
 20 47  1  0  0  0
 20 48  1  0  0  0
 20 49  1  0  0  0
 21 22  3  0  0  0
 22 23  1  0  0  0
 23 24  1  0  0  0
 23 25  1  0  0  0
 23 26  1  0  0  0
 24 50  1  0  0  0
 24 51  1  0  0  0
 24 52  1  0  0  0
 25 53  1  0  0  0
 25 54  1  0  0  0
 25 55  1  0  0  0
 26 56  1  0  0  0
 26 57  1  0  0  0
 26 58  1  0  0  0
M  END
>  <Name>
lit-181

>  <Family>
A.1

>  <RBA>
1.4,1.5

>  <RBA_avg>
1.500000

>  <Method>
RUC*,LUC

>  <set>
0

$$$$
lit-182
  Cerius2 12180216413D 1   1.00000                          
 Structure written by MMmdl.
 60 63  0  0  0  0  0  0  0  0999 V2000
   -6.7727   -4.0906   16.7483 C   0  0  0  0  0  0
   -5.3909   -4.1243   16.6539 C   0  0  0  0  0  0
   -4.7741   -4.4367   15.4493 C   0  0  0  0  0  0
   -7.5508   -4.3643   15.6206 C   0  0  0  0  0  0
   -6.9587   -4.6618   14.3797 C   0  0  0  0  0  0
   -5.5487   -4.7228   14.3095 C   0  0  0  0  0  0
   -4.8181   -5.0363   13.0242 C   0  0  0  0  0  0
   -5.7079   -5.6163   11.9289 C   0  0  0  0  0  0
   -7.8115   -5.0059   13.1584 C   0  0  0  0  0  0
   -7.0101   -4.8163   11.8369 C   0  0  0  0  0  0
   -9.9894   -4.6395   11.8267 C   0  0  0  0  0  0
   -9.1793   -4.2801   13.0872 C   0  0  0  0  0  0
   -9.1830   -4.4309   10.5287 C   0  0  0  0  0  0
   -7.8798   -5.2510   10.6529 C   0  0  0  0  0  0
   -7.2794   -5.1667    9.2544 C   0  0  0  0  0  0
   -8.4973   -5.1548    8.3109 C   0  0  0  0  0  0
   -9.7645   -5.0340    9.1925 C   0  0  0  0  0  0
  -10.6353   -4.0788    8.5620 O   0  0  0  0  0  0
   -4.6631   -3.8481   17.7731 O   0  0  0  0  0  0
   -8.9405   -2.9009   10.3540 C   0  0  0  0  0  0
  -10.6601   -6.2381    9.4008 C   0  0  0  0  0  0
  -11.8837   -6.5545    9.8649 C   0  0  0  0  0  0
  -13.1002   -5.8251   10.4203 C   0  0  0  0  0  0
  -12.8528   -5.3991   11.8761 C   0  0  0  0  0  0
  -14.2814   -6.8328   10.4368 C   0  0  0  0  0  0
  -13.5681   -4.6399    9.5663 C   0  0  0  0  0  0
   -7.2549   -3.8568   17.6948 H   0  0  0  0  0  0
   -3.6879   -4.4643   15.3804 H   0  0  0  0  0  0
   -8.6319   -4.3459   15.7401 H   0  0  0  0  0  0
   -4.0031   -5.7426   13.2239 H   0  0  0  0  0  0
   -4.3650   -4.1050   12.6605 H   0  0  0  0  0  0
   -5.9284   -6.6698   12.1449 H   0  0  0  0  0  0
   -5.1584   -5.5941   10.9814 H   0  0  0  0  0  0
   -8.0347   -6.0792   13.2615 H   0  0  0  0  0  0
   -6.7371   -3.7595   11.7213 H   0  0  0  0  0  0
  -10.9142   -4.0507   11.8032 H   0  0  0  0  0  0
  -10.2899   -5.6892   11.9305 H   0  0  0  0  0  0
   -9.0333   -3.1954   13.1505 H   0  0  0  0  0  0
   -9.7975   -4.5525   13.9504 H   0  0  0  0  0  0
   -8.1431   -6.3055   10.8234 H   0  0  0  0  0  0
   -6.6084   -6.0039    9.0424 H   0  0  0  0  0  0
   -6.6937   -4.2489    9.1260 H   0  0  0  0  0  0
   -8.5114   -6.0279    7.6646 H   0  0  0  0  0  0
   -8.4078   -4.2996    7.6284 H   0  0  0  0  0  0
  -10.8894   -4.4737    7.7024 H   0  0  0  0  0  0
   -3.7106   -3.9127   17.5468 H   0  0  0  0  0  0
   -8.3983   -2.6619    9.4341 H   0  0  0  0  0  0
   -8.3709   -2.4609   11.1762 H   0  0  0  0  0  0
   -9.8959   -2.3644   10.3131 H   0  0  0  0  0  0
  -10.1015   -7.1355    9.1019 H   0  0  0  0  0  0
  -12.0508   -7.6393    9.8520 H   0  0  0  0  0  0
  -13.7382   -4.9098   12.2987 H   0  0  0  0  0  0
  -12.0183   -4.7007   11.9716 H   0  0  0  0  0  0
  -12.6214   -6.2643   12.5092 H   0  0  0  0  0  0
  -15.1887   -6.3769   10.8508 H   0  0  0  0  0  0
  -14.0540   -7.7128   11.0511 H   0  0  0  0  0  0
  -14.5187   -7.1845    9.4254 H   0  0  0  0  0  0
  -14.5833   -4.3306    9.8440 H   0  0  0  0  0  0
  -13.5871   -4.8954    8.5012 H   0  0  0  0  0  0
  -12.9471   -3.7578    9.6991 H   0  0  0  0  0  0
  1  2  2  0  0  0
  1  4  1  0  0  0
  1 27  1  0  0  0
  2  3  1  0  0  0
  2 19  1  0  0  0
  3  6  2  0  0  0
  3 28  1  0  0  0
  4  5  2  0  0  0
  4 29  1  0  0  0
  5  6  1  0  0  0
  5  9  1  0  0  0
  6  7  1  0  0  0
  7  8  1  0  0  0
  7 30  1  0  0  0
  7 31  1  0  0  0
  8 10  1  0  0  0
  8 32  1  0  0  0
  8 33  1  0  0  0
  9 10  1  0  0  0
  9 12  1  0  0  0
  9 34  1  0  0  0
 10 14  1  0  0  0
 10 35  1  0  0  0
 11 12  1  0  0  0
 11 13  1  0  0  0
 11 36  1  0  0  0
 11 37  1  0  0  0
 12 38  1  0  0  0
 12 39  1  0  0  0
 13 14  1  0  0  0
 13 17  1  0  0  0
 13 20  1  0  0  0
 14 15  1  0  0  0
 14 40  1  0  0  0
 15 16  1  0  0  0
 15 41  1  0  0  0
 15 42  1  0  0  0
 16 17  1  0  0  0
 16 43  1  0  0  0
 16 44  1  0  0  0
 17 18  1  0  0  0
 17 21  1  0  0  0
 18 45  1  0  0  0
 19 46  1  0  0  0
 20 47  1  0  0  0
 20 48  1  0  0  0
 20 49  1  0  0  0
 21 22  2  0  0  0
 21 50  1  0  0  0
 22 23  1  0  0  0
 22 51  1  0  0  0
 23 24  1  0  0  0
 23 25  1  0  0  0
 23 26  1  0  0  0
 24 52  1  0  0  0
 24 53  1  0  0  0
 24 54  1  0  0  0
 25 55  1  0  0  0
 25 56  1  0  0  0
 25 57  1  0  0  0
 26 58  1  0  0  0
 26 59  1  0  0  0
 26 60  1  0  0  0
M  END
>  <Name>
lit-182

>  <Family>
A.1

>  <RBA>
3.4,3.0

>  <RBA_avg>
3.200000

>  <Method>
RUC*,LUC

>  <set>
1

$$$$
lit-183
  Cerius2 12180216413D 1   1.00000                          
 Structure written by MMmdl.
 49 52  0  0  0  0  0  0  0  0999 V2000
   -6.7801   -4.0952   16.7469 C   0  0  0  0  0  0
   -5.3981   -4.1274   16.6563 C   0  0  0  0  0  0
   -4.7776   -4.4367   15.4527 C   0  0  0  0  0  0
   -7.5547   -4.3672   15.6163 C   0  0  0  0  0  0
   -6.9590   -4.6614   14.3763 C   0  0  0  0  0  0
   -5.5486   -4.7208   14.3100 C   0  0  0  0  0  0
   -4.8137   -5.0307   13.0262 C   0  0  0  0  0  0
   -5.6992   -5.6128   11.9286 C   0  0  0  0  0  0
   -7.8086   -5.0037   13.1523 C   0  0  0  0  0  0
   -7.0015   -4.8146   11.8326 C   0  0  0  0  0  0
   -9.9881   -4.6226   11.8140 C   0  0  0  0  0  0
   -9.1785   -4.2785   13.0800 C   0  0  0  0  0  0
   -9.1678   -4.4210   10.5266 C   0  0  0  0  0  0
   -7.8704   -5.2526   10.6505 C   0  0  0  0  0  0
   -7.2758   -5.1990    9.2451 C   0  0  0  0  0  0
   -8.4963   -5.1447    8.3027 C   0  0  0  0  0  0
   -9.7526   -5.0047    9.2033 C   0  0  0  0  0  0
  -10.6951   -4.1193    8.6057 O   0  0  0  0  0  0
   -4.6736   -3.8533   17.7781 O   0  0  0  0  0  0
   -8.9157   -2.8940   10.3480 C   0  0  0  0  0  0
  -10.4150   -6.3172    9.3671 C   0  0  0  0  0  0
  -10.9588   -7.3827    9.4911 C   0  0  0  0  0  0
  -11.6217   -8.6779    9.6495 C   0  0  0  0  0  0
  -11.7884   -8.9009   10.9870 F   0  0  0  0  0  0
   -7.2652   -3.8639   17.6926 H   0  0  0  0  0  0
   -3.6911   -4.4631   15.3868 H   0  0  0  0  0  0
   -8.6362   -4.3502   15.7329 H   0  0  0  0  0  0
   -3.9968   -5.7343   13.2271 H   0  0  0  0  0  0
   -4.3630   -4.0975   12.6644 H   0  0  0  0  0  0
   -5.9188   -6.6663   12.1451 H   0  0  0  0  0  0
   -5.1479   -5.5905   10.9821 H   0  0  0  0  0  0
   -8.0323   -6.0771   13.2539 H   0  0  0  0  0  0
   -6.7295   -3.7577   11.7157 H   0  0  0  0  0  0
  -10.9028   -4.0183   11.7862 H   0  0  0  0  0  0
  -10.3110   -5.6660   11.9091 H   0  0  0  0  0  0
   -9.0316   -3.1945   13.1527 H   0  0  0  0  0  0
   -9.7992   -4.5572   13.9395 H   0  0  0  0  0  0
   -8.1374   -6.3058   10.8329 H   0  0  0  0  0  0
   -6.6541   -6.0756    9.0347 H   0  0  0  0  0  0
   -6.6502   -4.3101    9.1068 H   0  0  0  0  0  0
   -8.5345   -6.0434    7.6754 H   0  0  0  0  0  0
   -8.3970   -4.2930    7.6188 H   0  0  0  0  0  0
  -10.9199   -4.5106    7.7369 H   0  0  0  0  0  0
   -3.7205   -3.9166   17.5543 H   0  0  0  0  0  0
   -8.3506   -2.6651    9.4391 H   0  0  0  0  0  0
   -8.3632   -2.4513   11.1804 H   0  0  0  0  0  0
   -9.8669   -2.3530   10.2811 H   0  0  0  0  0  0
  -11.0194   -9.4948    9.2440 H   0  0  0  0  0  0
  -12.6087   -8.6893    9.1801 H   0  0  0  0  0  0
  1  2  2  0  0  0
  1  4  1  0  0  0
  1 25  1  0  0  0
  2  3  1  0  0  0
  2 19  1  0  0  0
  3  6  2  0  0  0
  3 26  1  0  0  0
  4  5  2  0  0  0
  4 27  1  0  0  0
  5  6  1  0  0  0
  5  9  1  0  0  0
  6  7  1  0  0  0
  7  8  1  0  0  0
  7 28  1  0  0  0
  7 29  1  0  0  0
  8 10  1  0  0  0
  8 30  1  0  0  0
  8 31  1  0  0  0
  9 10  1  0  0  0
  9 12  1  0  0  0
  9 32  1  0  0  0
 10 14  1  0  0  0
 10 33  1  0  0  0
 11 12  1  0  0  0
 11 13  1  0  0  0
 11 34  1  0  0  0
 11 35  1  0  0  0
 12 36  1  0  0  0
 12 37  1  0  0  0
 13 14  1  0  0  0
 13 17  1  0  0  0
 13 20  1  0  0  0
 14 15  1  0  0  0
 14 38  1  0  0  0
 15 16  1  0  0  0
 15 39  1  0  0  0
 15 40  1  0  0  0
 16 17  1  0  0  0
 16 41  1  0  0  0
 16 42  1  0  0  0
 17 18  1  0  0  0
 17 21  1  0  0  0
 18 43  1  0  0  0
 19 44  1  0  0  0
 20 45  1  0  0  0
 20 46  1  0  0  0
 20 47  1  0  0  0
 21 22  3  0  0  0
 22 23  1  0  0  0
 23 24  1  0  0  0
 23 48  1  0  0  0
 23 49  1  0  0  0
M  END
>  <Name>
lit-183

>  <Family>
A.1

>  <RBA>
84.300000

>  <RBA_avg>
84.000000

>  <Method>
RUC*

>  <set>
0

$$$$
lit-184
  Cerius2 12180216413D 1   1.00000                          
 Structure written by MMmdl.
 50 53  0  0  0  0  0  0  0  0999 V2000
   -6.7796   -4.0994   16.7463 C   0  0  0  0  0  0
   -5.3974   -4.1203   16.6533 C   0  0  0  0  0  0
   -4.7767   -4.4231   15.4484 C   0  0  0  0  0  0
   -7.5539   -4.3766   15.6169 C   0  0  0  0  0  0
   -6.9580   -4.6647   14.3756 C   0  0  0  0  0  0
   -5.5472   -4.7124   14.3067 C   0  0  0  0  0  0
   -4.8121   -5.0145   13.0213 C   0  0  0  0  0  0
   -5.6948   -5.5997   11.9230 C   0  0  0  0  0  0
   -7.8067   -5.0125   13.1525 C   0  0  0  0  0  0
   -7.0037   -4.8110   11.8317 C   0  0  0  0  0  0
   -9.9957   -4.6485   11.8198 C   0  0  0  0  0  0
   -9.1855   -4.3038   13.0860 C   0  0  0  0  0  0
   -9.1808   -4.4418   10.5332 C   0  0  0  0  0  0
   -7.8736   -5.2552   10.6517 C   0  0  0  0  0  0
   -7.2900   -5.1988    9.2454 C   0  0  0  0  0  0
   -8.5160   -5.2141    8.3121 C   0  0  0  0  0  0
   -9.7767   -5.0075    9.1994 C   0  0  0  0  0  0
  -10.6096   -4.0056    8.5837 O   0  0  0  0  0  0
   -4.6735   -3.8409   17.7742 O   0  0  0  0  0  0
   -8.9235   -2.9096   10.3710 C   0  0  0  0  0  0
  -10.6722   -6.2701    9.2720 C   0  0  0  0  0  0
  -12.0707   -6.1548    9.8593 C   0  0  0  0  0  0
   -7.2649   -3.8730   17.6931 H   0  0  0  0  0  0
   -3.6901   -4.4404   15.3806 H   0  0  0  0  0  0
   -8.6354   -4.3683   15.7353 H   0  0  0  0  0  0
   -3.9904   -5.7134   13.2197 H   0  0  0  0  0  0
   -4.3677   -4.0777   12.6612 H   0  0  0  0  0  0
   -5.9057   -6.6557   12.1360 H   0  0  0  0  0  0
   -5.1453   -5.5694   10.9756 H   0  0  0  0  0  0
   -8.0181   -6.0886   13.2517 H   0  0  0  0  0  0
   -6.7377   -3.7527   11.7176 H   0  0  0  0  0  0
  -10.9112   -4.0452   11.7953 H   0  0  0  0  0  0
  -10.3194   -5.6895   11.9135 H   0  0  0  0  0  0
   -9.0514   -3.2184   13.1648 H   0  0  0  0  0  0
   -9.8011   -4.5941   13.9455 H   0  0  0  0  0  0
   -8.1122   -6.3075   10.8413 H   0  0  0  0  0  0
   -6.6309   -6.0492    9.0420 H   0  0  0  0  0  0
   -6.7046   -4.2855    9.0905 H   0  0  0  0  0  0
   -8.5599   -6.1570    7.7567 H   0  0  0  0  0  0
   -8.4149   -4.4211    7.5613 H   0  0  0  0  0  0
  -10.8037   -4.3140    7.6739 H   0  0  0  0  0  0
   -3.7203   -3.8957   17.5488 H   0  0  0  0  0  0
   -8.3743   -2.6735    9.4538 H   0  0  0  0  0  0
   -8.3556   -2.4776   11.1982 H   0  0  0  0  0  0
   -9.8727   -2.3616   10.3308 H   0  0  0  0  0  0
  -10.1381   -7.0258    9.8660 H   0  0  0  0  0  0
  -10.7431   -6.7172    8.2717 H   0  0  0  0  0  0
  -12.4975   -7.1562    9.9846 H   0  0  0  0  0  0
  -12.7493   -5.6068    9.2022 H   0  0  0  0  0  0
  -12.0671   -5.6779   10.8429 H   0  0  0  0  0  0
  1  2  2  0  0  0
  1  4  1  0  0  0
  1 23  1  0  0  0
  2  3  1  0  0  0
  2 19  1  0  0  0
  3  6  2  0  0  0
  3 24  1  0  0  0
  4  5  2  0  0  0
  4 25  1  0  0  0
  5  6  1  0  0  0
  5  9  1  0  0  0
  6  7  1  0  0  0
  7  8  1  0  0  0
  7 26  1  0  0  0
  7 27  1  0  0  0
  8 10  1  0  0  0
  8 28  1  0  0  0
  8 29  1  0  0  0
  9 10  1  0  0  0
  9 12  1  0  0  0
  9 30  1  0  0  0
 10 14  1  0  0  0
 10 31  1  0  0  0
 11 12  1  0  0  0
 11 13  1  0  0  0
 11 32  1  0  0  0
 11 33  1  0  0  0
 12 34  1  0  0  0
 12 35  1  0  0  0
 13 14  1  0  0  0
 13 17  1  0  0  0
 13 20  1  0  0  0
 14 15  1  0  0  0
 14 36  1  0  0  0
 15 16  1  0  0  0
 15 37  1  0  0  0
 15 38  1  0  0  0
 16 17  1  0  0  0
 16 39  1  0  0  0
 16 40  1  0  0  0
 17 18  1  0  0  0
 17 21  1  0  0  0
 18 41  1  0  0  0
 19 42  1  0  0  0
 20 43  1  0  0  0
 20 44  1  0  0  0
 20 45  1  0  0  0
 21 22  1  0  0  0
 21 46  1  0  0  0
 21 47  1  0  0  0
 22 48  1  0  0  0
 22 49  1  0  0  0
 22 50  1  0  0  0
M  END
>  <Name>
lit-184

>  <Family>
A.1

>  <RBA>
18.600000

>  <RBA_avg>
19.000000

>  <Method>
RUC*

>  <set>
0

$$$$
lit-185
  Cerius2 12180216413D 1   1.00000                          
 Structure written by MMmdl.
 47 50  0  0  0  0  0  0  0  0999 V2000
   -6.7711   -4.0913   16.7488 C   0  0  0  0  0  0
   -5.3893   -4.1196   16.6529 C   0  0  0  0  0  0
   -4.7725   -4.4297   15.4475 C   0  0  0  0  0  0
   -7.5493   -4.3686   15.6220 C   0  0  0  0  0  0
   -6.9572   -4.6641   14.3806 C   0  0  0  0  0  0
   -5.5472   -4.7190   14.3086 C   0  0  0  0  0  0
   -4.8172   -5.0292   13.0223 C   0  0  0  0  0  0
   -5.7060   -5.6132   11.9281 C   0  0  0  0  0  0
   -7.8096   -5.0127   13.1608 C   0  0  0  0  0  0
   -7.0123   -4.8193   11.8379 C   0  0  0  0  0  0
   -9.9886   -4.6535   11.8273 C   0  0  0  0  0  0
   -9.1810   -4.2950   13.0906 C   0  0  0  0  0  0
   -9.1911   -4.4345   10.5308 C   0  0  0  0  0  0
   -7.8854   -5.2567   10.6556 C   0  0  0  0  0  0
   -7.2811   -5.1854    9.2608 C   0  0  0  0  0  0
   -8.4914   -5.1677    8.3148 C   0  0  0  0  0  0
   -9.7792   -5.0083    9.1900 C   0  0  0  0  0  0
  -10.6202   -4.0475    8.5347 O   0  0  0  0  0  0
   -4.6615   -3.8402   17.7712 O   0  0  0  0  0  0
   -8.9439   -2.9045   10.3668 C   0  0  0  0  0  0
  -10.5117   -6.3777    9.2614 C   0  0  0  0  0  0
  -12.4533   -6.3153   10.2365 I   0  0  0  0  0  0
   -7.2533   -3.8591   17.6957 H   0  0  0  0  0  0
   -3.6863   -4.4528   15.3774 H   0  0  0  0  0  0
   -8.6304   -4.3546   15.7424 H   0  0  0  0  0  0
   -3.9986   -5.7316   13.2205 H   0  0  0  0  0  0
   -4.3691   -4.0957   12.6580 H   0  0  0  0  0  0
   -5.9212   -6.6677   12.1443 H   0  0  0  0  0  0
   -5.1579   -5.5881   10.9799 H   0  0  0  0  0  0
   -8.0269   -6.0872   13.2644 H   0  0  0  0  0  0
   -6.7433   -3.7617   11.7217 H   0  0  0  0  0  0
  -10.9145   -4.0671   11.8144 H   0  0  0  0  0  0
  -10.2743   -5.7065   11.9245 H   0  0  0  0  0  0
   -9.0421   -3.2098   13.1591 H   0  0  0  0  0  0
   -9.7984   -4.5752   13.9522 H   0  0  0  0  0  0
   -8.1424   -6.3123   10.8311 H   0  0  0  0  0  0
   -6.6311   -6.0418    9.0534 H   0  0  0  0  0  0
   -6.6810   -4.2780    9.1279 H   0  0  0  0  0  0
   -8.5132   -6.0878    7.7200 H   0  0  0  0  0  0
   -8.3882   -4.3439    7.5977 H   0  0  0  0  0  0
  -10.9102   -4.4492    7.6903 H   0  0  0  0  0  0
   -3.7090   -3.9007   17.5439 H   0  0  0  0  0  0
   -8.3947   -2.6647    9.4508 H   0  0  0  0  0  0
   -8.3781   -2.4689   11.1938 H   0  0  0  0  0  0
   -9.8976   -2.3653   10.3230 H   0  0  0  0  0  0
   -9.8931   -7.1507    9.7268 H   0  0  0  0  0  0
  -10.7326   -6.7208    8.2427 H   0  0  0  0  0  0
  1  2  2  0  0  0
  1  4  1  0  0  0
  1 23  1  0  0  0
  2  3  1  0  0  0
  2 19  1  0  0  0
  3  6  2  0  0  0
  3 24  1  0  0  0
  4  5  2  0  0  0
  4 25  1  0  0  0
  5  6  1  0  0  0
  5  9  1  0  0  0
  6  7  1  0  0  0
  7  8  1  0  0  0
  7 26  1  0  0  0
  7 27  1  0  0  0
  8 10  1  0  0  0
  8 28  1  0  0  0
  8 29  1  0  0  0
  9 10  1  0  0  0
  9 12  1  0  0  0
  9 30  1  0  0  0
 10 14  1  0  0  0
 10 31  1  0  0  0
 11 12  1  0  0  0
 11 13  1  0  0  0
 11 32  1  0  0  0
 11 33  1  0  0  0
 12 34  1  0  0  0
 12 35  1  0  0  0
 13 14  1  0  0  0
 13 17  1  0  0  0
 13 20  1  0  0  0
 14 15  1  0  0  0
 14 36  1  0  0  0
 15 16  1  0  0  0
 15 37  1  0  0  0
 15 38  1  0  0  0
 16 17  1  0  0  0
 16 39  1  0  0  0
 16 40  1  0  0  0
 17 18  1  0  0  0
 17 21  1  0  0  0
 18 41  1  0  0  0
 19 42  1  0  0  0
 20 43  1  0  0  0
 20 44  1  0  0  0
 20 45  1  0  0  0
 21 22  1  0  0  0
 21 46  1  0  0  0
 21 47  1  0  0  0
M  END
>  <Name>
lit-185

>  <Family>
A.1

>  <RBA>
9.000000

>  <RBA_avg>
9.000000

>  <Method>
RBC

>  <set>
2

$$$$
lit-186
  Cerius2 12180216413D 1   1.00000                          
 Structure written by MMmdl.
 47 50  0  0  0  0  0  0  0  0999 V2000
   -6.7770   -4.0965   16.7454 C   0  0  0  0  0  0
   -5.3950   -4.1131   16.6501 C   0  0  0  0  0  0
   -4.7751   -4.4158   15.4445 C   0  0  0  0  0  0
   -7.5524   -4.3784   15.6179 C   0  0  0  0  0  0
   -6.9573   -4.6672   14.3762 C   0  0  0  0  0  0
   -5.5466   -4.7095   14.3046 C   0  0  0  0  0  0
   -4.8125   -5.0099   13.0180 C   0  0  0  0  0  0
   -5.6949   -5.5942   11.9189 C   0  0  0  0  0  0
   -7.8058   -5.0217   13.1553 C   0  0  0  0  0  0
   -7.0077   -4.8109   11.8329 C   0  0  0  0  0  0
   -9.9990   -4.6772   11.8247 C   0  0  0  0  0  0
   -9.1934   -4.3297   13.0934 C   0  0  0  0  0  0
   -9.1900   -4.4452   10.5378 C   0  0  0  0  0  0
   -7.8798   -5.2552   10.6539 C   0  0  0  0  0  0
   -7.3008   -5.1958    9.2471 C   0  0  0  0  0  0
   -8.5286   -5.2646    8.3189 C   0  0  0  0  0  0
   -9.7891   -4.9962    9.1925 C   0  0  0  0  0  0
  -10.5454   -3.9387    8.5525 O   0  0  0  0  0  0
   -4.6700   -3.8296   17.7693 O   0  0  0  0  0  0
   -8.9347   -2.9107   10.3981 C   0  0  0  0  0  0
  -10.7707   -6.1841    9.2615 C   0  0  0  0  0  0
  -12.5497   -5.8507    9.9604 Br  0  0  0  0  0  0
   -7.2615   -3.8699   17.6925 H   0  0  0  0  0  0
   -3.6886   -4.4292   15.3748 H   0  0  0  0  0  0
   -8.6337   -4.3734   15.7378 H   0  0  0  0  0  0
   -3.9900   -5.7082   13.2151 H   0  0  0  0  0  0
   -4.3692   -4.0722   12.6589 H   0  0  0  0  0  0
   -5.9008   -6.6519   12.1280 H   0  0  0  0  0  0
   -5.1471   -5.5577   10.9708 H   0  0  0  0  0  0
   -8.0053   -6.1002   13.2538 H   0  0  0  0  0  0
   -6.7456   -3.7515   11.7219 H   0  0  0  0  0  0
  -10.9256   -4.0909   11.8068 H   0  0  0  0  0  0
  -10.2990   -5.7271   11.9090 H   0  0  0  0  0  0
   -9.0738   -3.2433   13.1799 H   0  0  0  0  0  0
   -9.8046   -4.6346   13.9511 H   0  0  0  0  0  0
   -8.1168   -6.3068   10.8479 H   0  0  0  0  0  0
   -6.6130   -6.0244    9.0497 H   0  0  0  0  0  0
   -6.7481   -4.2643    9.0810 H   0  0  0  0  0  0
   -8.5730   -6.2430    7.8295 H   0  0  0  0  0  0
   -8.4208   -4.5248    7.5168 H   0  0  0  0  0  0
  -10.7284   -4.2294    7.6343 H   0  0  0  0  0  0
   -3.7169   -3.8821   17.5423 H   0  0  0  0  0  0
   -8.3866   -2.6628    9.4831 H   0  0  0  0  0  0
   -8.3665   -2.4879   11.2297 H   0  0  0  0  0  0
   -9.8847   -2.3635   10.3682 H   0  0  0  0  0  0
  -10.3651   -6.9654    9.9153 H   0  0  0  0  0  0
  -10.8970   -6.6506    8.2793 H   0  0  0  0  0  0
  1  2  2  0  0  0
  1  4  1  0  0  0
  1 23  1  0  0  0
  2  3  1  0  0  0
  2 19  1  0  0  0
  3  6  2  0  0  0
  3 24  1  0  0  0
  4  5  2  0  0  0
  4 25  1  0  0  0
  5  6  1  0  0  0
  5  9  1  0  0  0
  6  7  1  0  0  0
  7  8  1  0  0  0
  7 26  1  0  0  0
  7 27  1  0  0  0
  8 10  1  0  0  0
  8 28  1  0  0  0
  8 29  1  0  0  0
  9 10  1  0  0  0
  9 12  1  0  0  0
  9 30  1  0  0  0
 10 14  1  0  0  0
 10 31  1  0  0  0
 11 12  1  0  0  0
 11 13  1  0  0  0
 11 32  1  0  0  0
 11 33  1  0  0  0
 12 34  1  0  0  0
 12 35  1  0  0  0
 13 14  1  0  0  0
 13 17  1  0  0  0
 13 20  1  0  0  0
 14 15  1  0  0  0
 14 36  1  0  0  0
 15 16  1  0  0  0
 15 37  1  0  0  0
 15 38  1  0  0  0
 16 17  1  0  0  0
 16 39  1  0  0  0
 16 40  1  0  0  0
 17 18  1  0  0  0
 17 21  1  0  0  0
 18 41  1  0  0  0
 19 42  1  0  0  0
 20 43  1  0  0  0
 20 44  1  0  0  0
 20 45  1  0  0  0
 21 22  1  0  0  0
 21 46  1  0  0  0
 21 47  1  0  0  0
M  END
>  <Name>
lit-186

>  <Family>
A.1

>  <RBA>
38.000000

>  <RBA_avg>
38.000000

>  <Method>
RUC

>  <set>
0

$$$$
lit-187
  Cerius2 12180216413D 1   1.00000                          
 Structure written by MMmdl.
 48 51  0  0  0  0  0  0  0  0999 V2000
   -6.7775   -4.0940   16.7452 C   0  0  0  0  0  0
   -5.3955   -4.1143   16.6511 C   0  0  0  0  0  0
   -4.7754   -4.4195   15.4463 C   0  0  0  0  0  0
   -7.5527   -4.3748   15.6173 C   0  0  0  0  0  0
   -6.9574   -4.6662   14.3763 C   0  0  0  0  0  0
   -5.5468   -4.7122   14.3060 C   0  0  0  0  0  0
   -4.8124   -5.0157   13.0202 C   0  0  0  0  0  0
   -5.6956   -5.5994   11.9212 C   0  0  0  0  0  0
   -7.8061   -5.0197   13.1551 C   0  0  0  0  0  0
   -7.0064   -4.8134   11.8331 C   0  0  0  0  0  0
   -9.9965   -4.6714   11.8228 C   0  0  0  0  0  0
   -9.1909   -4.3226   13.0909 C   0  0  0  0  0  0
   -9.1863   -4.4422   10.5357 C   0  0  0  0  0  0
   -7.8778   -5.2556   10.6524 C   0  0  0  0  0  0
   -7.2950   -5.1905    9.2469 C   0  0  0  0  0  0
   -8.5211   -5.2460    8.3153 C   0  0  0  0  0  0
   -9.7848   -4.9987    9.1929 C   0  0  0  0  0  0
  -10.5736   -3.9631    8.5628 O   0  0  0  0  0  0
   -4.6707   -3.8321   17.7707 O   0  0  0  0  0  0
   -8.9325   -2.9086   10.3900 C   0  0  0  0  0  0
  -10.7195   -6.2311    9.2740 C   0  0  0  0  0  0
  -12.0568   -6.0056    9.8378 C   0  0  0  0  0  0
  -13.1197   -5.8566   10.2875 N   0  0  0  0  0  0
   -7.2622   -3.8653   17.6918 H   0  0  0  0  0  0
   -3.6889   -4.4359   15.3775 H   0  0  0  0  0  0
   -8.6341   -4.3664   15.7364 H   0  0  0  0  0  0
   -3.9916   -5.7155   13.2186 H   0  0  0  0  0  0
   -4.3670   -4.0793   12.6601 H   0  0  0  0  0  0
   -5.9040   -6.6564   12.1315 H   0  0  0  0  0  0
   -5.1468   -5.5656   10.9736 H   0  0  0  0  0  0
   -8.0094   -6.0974   13.2547 H   0  0  0  0  0  0
   -6.7422   -3.7545   11.7213 H   0  0  0  0  0  0
  -10.9229   -4.0850   11.8032 H   0  0  0  0  0  0
  -10.2969   -5.7217   11.9082 H   0  0  0  0  0  0
   -9.0673   -3.2363   13.1738 H   0  0  0  0  0  0
   -9.8038   -4.6225   13.9491 H   0  0  0  0  0  0
   -8.1199   -6.3087   10.8403 H   0  0  0  0  0  0
   -6.6118   -6.0222    9.0463 H   0  0  0  0  0  0
   -6.7363   -4.2614    9.0875 H   0  0  0  0  0  0
   -8.5635   -6.2187    7.8128 H   0  0  0  0  0  0
   -8.4170   -4.4926    7.5255 H   0  0  0  0  0  0
  -10.7380   -4.2431    7.6376 H   0  0  0  0  0  0
   -3.7176   -3.8877   17.5448 H   0  0  0  0  0  0
   -8.3882   -2.6629    9.4722 H   0  0  0  0  0  0
   -8.3612   -2.4837   11.2185 H   0  0  0  0  0  0
   -9.8830   -2.3623   10.3609 H   0  0  0  0  0  0
  -10.2258   -7.0020    9.8820 H   0  0  0  0  0  0
  -10.8078   -6.6865    8.2798 H   0  0  0  0  0  0
  1  2  2  0  0  0
  1  4  1  0  0  0
  1 24  1  0  0  0
  2  3  1  0  0  0
  2 19  1  0  0  0
  3  6  2  0  0  0
  3 25  1  0  0  0
  4  5  2  0  0  0
  4 26  1  0  0  0
  5  6  1  0  0  0
  5  9  1  0  0  0
  6  7  1  0  0  0
  7  8  1  0  0  0
  7 27  1  0  0  0
  7 28  1  0  0  0
  8 10  1  0  0  0
  8 29  1  0  0  0
  8 30  1  0  0  0
  9 10  1  0  0  0
  9 12  1  0  0  0
  9 31  1  0  0  0
 10 14  1  0  0  0
 10 32  1  0  0  0
 11 12  1  0  0  0
 11 13  1  0  0  0
 11 33  1  0  0  0
 11 34  1  0  0  0
 12 35  1  0  0  0
 12 36  1  0  0  0
 13 14  1  0  0  0
 13 17  1  0  0  0
 13 20  1  0  0  0
 14 15  1  0  0  0
 14 37  1  0  0  0
 15 16  1  0  0  0
 15 38  1  0  0  0
 15 39  1  0  0  0
 16 17  1  0  0  0
 16 40  1  0  0  0
 16 41  1  0  0  0
 17 18  1  0  0  0
 17 21  1  0  0  0
 18 42  1  0  0  0
 19 43  1  0  0  0
 20 44  1  0  0  0
 20 45  1  0  0  0
 20 46  1  0  0  0
 21 22  1  0  0  0
 21 47  1  0  0  0
 21 48  1  0  0  0
 22 23  3  0  0  0
M  END
>  <Name>
lit-187

>  <Family>
A.1

>  <RBA>
98.000000

>  <RBA_avg>
98.000000

>  <Method>
RUC

>  <set>
2

$$$$
lit-188
  Cerius2 12180216413D 1   1.00000                          
 Structure written by MMmdl.
 49 52  0  0  0  0  0  0  0  0999 V2000
   -6.7224   -4.1192   16.7628 C   0  0  0  0  0  0
   -5.3433   -4.1621   16.6513 C   0  0  0  0  0  0
   -4.7402   -4.4912   15.4450 C   0  0  0  0  0  0
   -7.5145   -4.4027   15.6506 C   0  0  0  0  0  0
   -6.9376   -4.7159   14.4067 C   0  0  0  0  0  0
   -5.5290   -4.7817   14.3179 C   0  0  0  0  0  0
   -4.8152   -5.0971   13.0248 C   0  0  0  0  0  0
   -5.7225   -5.6462   11.9285 C   0  0  0  0  0  0
   -7.8053   -5.0610   13.1998 C   0  0  0  0  0  0
   -7.0228   -4.8389   11.8717 C   0  0  0  0  0  0
  -10.0039   -4.7009   11.9065 C   0  0  0  0  0  0
   -9.1895   -4.3645   13.1683 C   0  0  0  0  0  0
   -9.2173   -4.4267   10.6157 C   0  0  0  0  0  0
   -7.9070   -5.2419   10.6880 C   0  0  0  0  0  0
   -7.3272   -5.1147    9.2838 C   0  0  0  0  0  0
   -8.5537   -5.0485    8.3582 C   0  0  0  0  0  0
   -9.8149   -4.9529    9.2688 C   0  0  0  0  0  0
  -10.7168   -3.9957    8.7070 O   0  0  0  0  0  0
   -4.6103   -3.8737   17.7615 O   0  0  0  0  0  0
   -8.9841   -2.8892   10.5047 C   0  0  0  0  0  0
  -10.5305   -6.3313    9.3037 C   0  0  0  0  0  0
  -11.7865   -6.2943   10.0752 N   0  0  0  0  0  0
  -12.7938   -5.8900    9.4660 N   0  3  0  0  0  0
  -13.7167   -5.5426    8.8942 N   0  5  0  0  0  0
   -7.1852   -3.8687   17.7128 H   0  0  0  0  0  0
   -3.6584   -4.5233   15.3609 H   0  0  0  0  0  0
   -8.5918   -4.3750   15.7830 H   0  0  0  0  0  0
   -4.0125   -5.8210   13.2111 H   0  0  0  0  0  0
   -4.3466   -4.1712   12.6666 H   0  0  0  0  0  0
   -5.9455   -6.7031   12.1242 H   0  0  0  0  0  0
   -5.1857   -5.6069   10.9742 H   0  0  0  0  0  0
   -8.0065   -6.1399   13.2919 H   0  0  0  0  0  0
   -6.7474   -3.7805   11.7789 H   0  0  0  0  0  0
  -10.9446   -4.1379   11.9139 H   0  0  0  0  0  0
  -10.2662   -5.7623   11.9782 H   0  0  0  0  0  0
   -9.0714   -3.2794   13.2695 H   0  0  0  0  0  0
   -9.7903   -4.6833   14.0284 H   0  0  0  0  0  0
   -8.1519   -6.3051   10.8308 H   0  0  0  0  0  0
   -6.6878   -5.9662    9.0289 H   0  0  0  0  0  0
   -6.7224   -4.2065    9.1788 H   0  0  0  0  0  0
   -8.5874   -5.9317    7.7101 H   0  0  0  0  0  0
   -8.4705   -4.1819    7.6915 H   0  0  0  0  0  0
  -10.8640   -4.2183    7.7718 H   0  0  0  0  0  0
   -3.6653   -3.9616   17.5544 H   0  0  0  0  0  0
   -8.4537   -2.6106    9.5886 H   0  0  0  0  0  0
   -8.4061   -2.4805   11.3369 H   0  0  0  0  0  0
   -9.9421   -2.3560   10.4983 H   0  0  0  0  0  0
   -9.8852   -7.1013    9.7378 H   0  0  0  0  0  0
  -10.7560   -6.6570    8.2789 H   0  0  0  0  0  0
  1  2  2  0  0  0
  1  4  1  0  0  0
  1 25  1  0  0  0
  2  3  1  0  0  0
  2 19  1  0  0  0
  3  6  2  0  0  0
  3 26  1  0  0  0
  4  5  2  0  0  0
  4 27  1  0  0  0
  5  6  1  0  0  0
  5  9  1  0  0  0
  6  7  1  0  0  0
  7  8  1  0  0  0
  7 28  1  0  0  0
  7 29  1  0  0  0
  8 10  1  0  0  0
  8 30  1  0  0  0
  8 31  1  0  0  0
  9 10  1  0  0  0
  9 12  1  0  0  0
  9 32  1  0  0  0
 10 14  1  0  0  0
 10 33  1  0  0  0
 11 12  1  0  0  0
 11 13  1  0  0  0
 11 34  1  0  0  0
 11 35  1  0  0  0
 12 36  1  0  0  0
 12 37  1  0  0  0
 13 14  1  0  0  0
 13 17  1  0  0  0
 13 20  1  0  0  0
 14 15  1  0  0  0
 14 38  1  0  0  0
 15 16  1  0  0  0
 15 39  1  0  0  0
 15 40  1  0  0  0
 16 17  1  0  0  0
 16 41  1  0  0  0
 16 42  1  0  0  0
 17 18  1  0  0  0
 17 21  1  0  0  0
 18 43  1  0  0  0
 19 44  1  0  0  0
 20 45  1  0  0  0
 20 46  1  0  0  0
 20 47  1  0  0  0
 21 22  1  0  0  0
 21 48  1  0  0  0
 21 49  1  0  0  0
 22 23  2  0  0  0
 23 24  2  0  0  0
M  CHG  2  23   1  24  -1
M  END
>  <Name>
lit-188

>  <Family>
A.1

>  <RBA>
93.000000

>  <RBA_avg>
93.000000

>  <Method>
RUC

>  <set>
2

$$$$
lit-189
  Cerius2 12180216413D 1   1.00000                          
 Structure written by MMmdl.
 48 51  0  0  0  0  0  0  0  0999 V2000
   -6.7790   -4.0952   16.7455 C   0  0  0  0  0  0
   -5.3969   -4.1173   16.6526 C   0  0  0  0  0  0
   -4.7761   -4.4231   15.4484 C   0  0  0  0  0  0
   -7.5535   -4.3745   15.6167 C   0  0  0  0  0  0
   -6.9574   -4.6660   14.3762 C   0  0  0  0  0  0
   -5.5468   -4.7142   14.3072 C   0  0  0  0  0  0
   -4.8117   -5.0188   13.0221 C   0  0  0  0  0  0
   -5.6948   -5.6021   11.9229 C   0  0  0  0  0  0
   -7.8057   -5.0169   13.1538 C   0  0  0  0  0  0
   -7.0040   -4.8138   11.8328 C   0  0  0  0  0  0
   -9.9918   -4.6615   11.8190 C   0  0  0  0  0  0
   -9.1870   -4.3132   13.0872 C   0  0  0  0  0  0
   -9.1792   -4.4355   10.5329 C   0  0  0  0  0  0
   -7.8747   -5.2548   10.6518 C   0  0  0  0  0  0
   -7.2901   -5.1896    9.2476 C   0  0  0  0  0  0
   -8.5169   -5.2310    8.3175 C   0  0  0  0  0  0
   -9.7807   -4.9942    9.1963 C   0  0  0  0  0  0
  -10.6092   -3.9983    8.5699 O   0  0  0  0  0  0
   -4.6727   -3.8361   17.7728 O   0  0  0  0  0  0
   -8.9268   -2.9038   10.3789 C   0  0  0  0  0  0
  -10.6474   -6.2781    9.3053 C   0  0  0  0  0  0
  -11.9216   -6.0811    9.9048 O   0  0  0  0  0  0
   -7.2642   -3.8663   17.6917 H   0  0  0  0  0  0
   -3.6895   -4.4410   15.3806 H   0  0  0  0  0  0
   -8.6350   -4.3651   15.7348 H   0  0  0  0  0  0
   -3.9916   -5.7192   13.2212 H   0  0  0  0  0  0
   -4.3653   -4.0830   12.6620 H   0  0  0  0  0  0
   -5.9054   -6.6585   12.1343 H   0  0  0  0  0  0
   -5.1452   -5.5703   10.9757 H   0  0  0  0  0  0
   -8.0135   -6.0936   13.2537 H   0  0  0  0  0  0
   -6.7382   -3.7553   11.7204 H   0  0  0  0  0  0
  -10.9173   -4.0738   11.7977 H   0  0  0  0  0  0
  -10.2934   -5.7119   11.9037 H   0  0  0  0  0  0
   -9.0580   -3.2274   13.1673 H   0  0  0  0  0  0
   -9.8022   -4.6082   13.9453 H   0  0  0  0  0  0
   -8.1218   -6.3087   10.8374 H   0  0  0  0  0  0
   -6.6140   -6.0264    9.0443 H   0  0  0  0  0  0
   -6.7236   -4.2647    9.0914 H   0  0  0  0  0  0
   -8.5641   -6.1997    7.8069 H   0  0  0  0  0  0
   -8.4156   -4.4693    7.5356 H   0  0  0  0  0  0
  -10.8026   -4.3160    7.6631 H   0  0  0  0  0  0
   -3.7194   -3.8921   17.5476 H   0  0  0  0  0  0
   -8.3830   -2.6624    9.4598 H   0  0  0  0  0  0
   -8.3559   -2.4749   11.2056 H   0  0  0  0  0  0
   -9.8779   -2.3590   10.3456 H   0  0  0  0  0  0
  -10.1126   -7.0275    9.9018 H   0  0  0  0  0  0
  -10.7877   -6.7241    8.3140 H   0  0  0  0  0  0
  -12.3521   -6.9621    9.9135 H   0  0  0  0  0  0
  1  2  2  0  0  0
  1  4  1  0  0  0
  1 23  1  0  0  0
  2  3  1  0  0  0
  2 19  1  0  0  0
  3  6  2  0  0  0
  3 24  1  0  0  0
  4  5  2  0  0  0
  4 25  1  0  0  0
  5  6  1  0  0  0
  5  9  1  0  0  0
  6  7  1  0  0  0
  7  8  1  0  0  0
  7 26  1  0  0  0
  7 27  1  0  0  0
  8 10  1  0  0  0
  8 28  1  0  0  0
  8 29  1  0  0  0
  9 10  1  0  0  0
  9 12  1  0  0  0
  9 30  1  0  0  0
 10 14  1  0  0  0
 10 31  1  0  0  0
 11 12  1  0  0  0
 11 13  1  0  0  0
 11 32  1  0  0  0
 11 33  1  0  0  0
 12 34  1  0  0  0
 12 35  1  0  0  0
 13 14  1  0  0  0
 13 17  1  0  0  0
 13 20  1  0  0  0
 14 15  1  0  0  0
 14 36  1  0  0  0
 15 16  1  0  0  0
 15 37  1  0  0  0
 15 38  1  0  0  0
 16 17  1  0  0  0
 16 39  1  0  0  0
 16 40  1  0  0  0
 17 18  1  0  0  0
 17 21  1  0  0  0
 18 41  1  0  0  0
 19 42  1  0  0  0
 20 43  1  0  0  0
 20 44  1  0  0  0
 20 45  1  0  0  0
 21 22  1  0  0  0
 21 46  1  0  0  0
 21 47  1  0  0  0
 22 48  1  0  0  0
M  END
>  <Name>
lit-189

>  <Family>
A.1

>  <RBA>
38.000000

>  <RBA_avg>
38.000000

>  <Method>
RUC

>  <set>
1

$$$$
lit-190
  Cerius2 12180216413D 1   1.00000                          
 Structure written by MMmdl.
 51 54  0  0  0  0  0  0  0  0999 V2000
   -6.7788   -4.0958   16.7458 C   0  0  0  0  0  0
   -5.3968   -4.1178   16.6528 C   0  0  0  0  0  0
   -4.7760   -4.4227   15.4483 C   0  0  0  0  0  0
   -7.5534   -4.3745   15.6169 C   0  0  0  0  0  0
   -6.9573   -4.6655   14.3762 C   0  0  0  0  0  0
   -5.5466   -4.7133   14.3070 C   0  0  0  0  0  0
   -4.8116   -5.0167   13.0218 C   0  0  0  0  0  0
   -5.6944   -5.6006   11.9226 C   0  0  0  0  0  0
   -7.8055   -5.0166   13.1538 C   0  0  0  0  0  0
   -7.0040   -4.8130   11.8327 C   0  0  0  0  0  0
   -9.9919   -4.6626   11.8192 C   0  0  0  0  0  0
   -9.1872   -4.3138   13.0874 C   0  0  0  0  0  0
   -9.1797   -4.4358   10.5330 C   0  0  0  0  0  0
   -7.8748   -5.2547   10.6519 C   0  0  0  0  0  0
   -7.2911   -5.1905    9.2474 C   0  0  0  0  0  0
   -8.5184   -5.2366    8.3182 C   0  0  0  0  0  0
   -9.7820   -4.9936    9.1959 C   0  0  0  0  0  0
  -10.6055   -3.9943    8.5681 O   0  0  0  0  0  0
   -4.6727   -3.8376   17.7734 O   0  0  0  0  0  0
   -8.9273   -2.9041   10.3796 C   0  0  0  0  0  0
  -10.6555   -6.2745    9.3069 C   0  0  0  0  0  0
  -11.9293   -6.0475    9.9095 O   0  0  0  0  0  0
  -12.6999   -7.2463    9.9643 C   0  0  0  0  0  0
   -7.2641   -3.8673   17.6921 H   0  0  0  0  0  0
   -3.6895   -4.4403   15.3805 H   0  0  0  0  0  0
   -8.6348   -4.3653   15.7349 H   0  0  0  0  0  0
   -3.9908   -5.7166   13.2205 H   0  0  0  0  0  0
   -4.3660   -4.0804   12.6618 H   0  0  0  0  0  0
   -5.9043   -6.6570   12.1340 H   0  0  0  0  0  0
   -5.1449   -5.5684   10.9753 H   0  0  0  0  0  0
   -8.0128   -6.0936   13.2536 H   0  0  0  0  0  0
   -6.7388   -3.7544   11.7202 H   0  0  0  0  0  0
  -10.9178   -4.0754   11.7980 H   0  0  0  0  0  0
  -10.2930   -5.7131   11.9043 H   0  0  0  0  0  0
   -9.0590   -3.2279   13.1676 H   0  0  0  0  0  0
   -9.8022   -4.6094   13.9455 H   0  0  0  0  0  0
   -8.1206   -6.3085   10.8388 H   0  0  0  0  0  0
   -6.6132   -6.0260    9.0450 H   0  0  0  0  0  0
   -6.7271   -4.2644    9.0895 H   0  0  0  0  0  0
   -8.5666   -6.2087    7.8139 H   0  0  0  0  0  0
   -8.4166   -4.4799    7.5314 H   0  0  0  0  0  0
  -10.7917   -4.3055    7.6574 H   0  0  0  0  0  0
   -3.7194   -3.8947   17.5484 H   0  0  0  0  0  0
   -8.3837   -2.6625    9.4605 H   0  0  0  0  0  0
   -8.3563   -2.4754   11.2064 H   0  0  0  0  0  0
   -9.8783   -2.3592   10.3468 H   0  0  0  0  0  0
  -10.1139   -7.0208    9.9037 H   0  0  0  0  0  0
  -10.7857   -6.7160    8.3106 H   0  0  0  0  0  0
  -13.6581   -7.0153   10.4370 H   0  0  0  0  0  0
  -12.1861   -8.0037   10.5639 H   0  0  0  0  0  0
  -12.8888   -7.6246    8.9553 H   0  0  0  0  0  0
  1  2  2  0  0  0
  1  4  1  0  0  0
  1 24  1  0  0  0
  2  3  1  0  0  0
  2 19  1  0  0  0
  3  6  2  0  0  0
  3 25  1  0  0  0
  4  5  2  0  0  0
  4 26  1  0  0  0
  5  6  1  0  0  0
  5  9  1  0  0  0
  6  7  1  0  0  0
  7  8  1  0  0  0
  7 27  1  0  0  0
  7 28  1  0  0  0
  8 10  1  0  0  0
  8 29  1  0  0  0
  8 30  1  0  0  0
  9 10  1  0  0  0
  9 12  1  0  0  0
  9 31  1  0  0  0
 10 14  1  0  0  0
 10 32  1  0  0  0
 11 12  1  0  0  0
 11 13  1  0  0  0
 11 33  1  0  0  0
 11 34  1  0  0  0
 12 35  1  0  0  0
 12 36  1  0  0  0
 13 14  1  0  0  0
 13 17  1  0  0  0
 13 20  1  0  0  0
 14 15  1  0  0  0
 14 37  1  0  0  0
 15 16  1  0  0  0
 15 38  1  0  0  0
 15 39  1  0  0  0
 16 17  1  0  0  0
 16 40  1  0  0  0
 16 41  1  0  0  0
 17 18  1  0  0  0
 17 21  1  0  0  0
 18 42  1  0  0  0
 19 43  1  0  0  0
 20 44  1  0  0  0
 20 45  1  0  0  0
 20 46  1  0  0  0
 21 22  1  0  0  0
 21 47  1  0  0  0
 21 48  1  0  0  0
 22 23  1  0  0  0
 23 49  1  0  0  0
 23 50  1  0  0  0
 23 51  1  0  0  0
M  END
>  <Name>
lit-190

>  <Family>
A.1

>  <RBA>
31.000000

>  <RBA_avg>
31.000000

>  <Method>
RUC

>  <set>
1

$$$$
lit-191
  Cerius2 12180216413D 1   1.00000                          
 Structure written by MMmdl.
 49 52  0  0  0  0  0  0  0  0999 V2000
   -6.7777   -4.0950   16.7454 C   0  0  0  0  0  0
   -5.3956   -4.1141   16.6511 C   0  0  0  0  0  0
   -4.7754   -4.4182   15.4460 C   0  0  0  0  0  0
   -7.5527   -4.3758   15.6174 C   0  0  0  0  0  0
   -6.9573   -4.6660   14.3763 C   0  0  0  0  0  0
   -5.5466   -4.7109   14.3056 C   0  0  0  0  0  0
   -4.8123   -5.0133   13.0197 C   0  0  0  0  0  0
   -5.6951   -5.5981   11.9210 C   0  0  0  0  0  0
   -7.8058   -5.0197   13.1551 C   0  0  0  0  0  0
   -7.0063   -4.8126   11.8329 C   0  0  0  0  0  0
   -9.9967   -4.6725   11.8226 C   0  0  0  0  0  0
   -9.1912   -4.3236   13.0909 C   0  0  0  0  0  0
   -9.1866   -4.4443   10.5357 C   0  0  0  0  0  0
   -7.8781   -5.2564   10.6534 C   0  0  0  0  0  0
   -7.2963   -5.1977    9.2476 C   0  0  0  0  0  0
   -8.5222   -5.2433    8.3156 C   0  0  0  0  0  0
   -9.7862   -4.9975    9.1916 C   0  0  0  0  0  0
  -10.5708   -3.9584    8.5624 O   0  0  0  0  0  0
   -4.6708   -3.8319   17.7707 O   0  0  0  0  0  0
   -8.9311   -2.9106   10.3909 C   0  0  0  0  0  0
  -10.7376   -6.2276    9.2712 C   0  0  0  0  0  0
  -12.4147   -6.0159    9.9525 S   0  0  0  0  0  0
  -12.9417   -7.6129    9.7832 C   0  0  0  0  0  0
  -13.3068   -8.7105    9.6679 N   0  0  0  0  0  0
   -7.2623   -3.8674   17.6922 H   0  0  0  0  0  0
   -3.6889   -4.4336   15.3771 H   0  0  0  0  0  0
   -8.6341   -4.3688   15.7366 H   0  0  0  0  0  0
   -3.9905   -5.7121   13.2176 H   0  0  0  0  0  0
   -4.3682   -4.0764   12.6595 H   0  0  0  0  0  0
   -5.9030   -6.6551   12.1319 H   0  0  0  0  0  0
   -5.1467   -5.5642   10.9731 H   0  0  0  0  0  0
   -8.0085   -6.0975   13.2547 H   0  0  0  0  0  0
   -6.7425   -3.7537   11.7207 H   0  0  0  0  0  0
  -10.9227   -4.0853   11.8029 H   0  0  0  0  0  0
  -10.2979   -5.7221   11.9092 H   0  0  0  0  0  0
   -9.0685   -3.2374   13.1743 H   0  0  0  0  0  0
   -9.8039   -4.6243   13.9490 H   0  0  0  0  0  0
   -8.1178   -6.3081   10.8470 H   0  0  0  0  0  0
   -6.6198   -6.0349    9.0477 H   0  0  0  0  0  0
   -6.7300   -4.2733    9.0873 H   0  0  0  0  0  0
   -8.5665   -6.2074    7.7981 H   0  0  0  0  0  0
   -8.4145   -4.4814    7.5343 H   0  0  0  0  0  0
  -10.7364   -4.2399    7.6381 H   0  0  0  0  0  0
   -3.7178   -3.8871   17.5448 H   0  0  0  0  0  0
   -8.3838   -2.6654    9.4749 H   0  0  0  0  0  0
   -8.3619   -2.4859   11.2210 H   0  0  0  0  0  0
   -9.8809   -2.3634   10.3596 H   0  0  0  0  0  0
  -10.2480   -6.9888    9.8939 H   0  0  0  0  0  0
  -10.8117   -6.6843    8.2765 H   0  0  0  0  0  0
  1  2  2  0  0  0
  1  4  1  0  0  0
  1 25  1  0  0  0
  2  3  1  0  0  0
  2 19  1  0  0  0
  3  6  2  0  0  0
  3 26  1  0  0  0
  4  5  2  0  0  0
  4 27  1  0  0  0
  5  6  1  0  0  0
  5  9  1  0  0  0
  6  7  1  0  0  0
  7  8  1  0  0  0
  7 28  1  0  0  0
  7 29  1  0  0  0
  8 10  1  0  0  0
  8 30  1  0  0  0
  8 31  1  0  0  0
  9 10  1  0  0  0
  9 12  1  0  0  0
  9 32  1  0  0  0
 10 14  1  0  0  0
 10 33  1  0  0  0
 11 12  1  0  0  0
 11 13  1  0  0  0
 11 34  1  0  0  0
 11 35  1  0  0  0
 12 36  1  0  0  0
 12 37  1  0  0  0
 13 14  1  0  0  0
 13 17  1  0  0  0
 13 20  1  0  0  0
 14 15  1  0  0  0
 14 38  1  0  0  0
 15 16  1  0  0  0
 15 39  1  0  0  0
 15 40  1  0  0  0
 16 17  1  0  0  0
 16 41  1  0  0  0
 16 42  1  0  0  0
 17 18  1  0  0  0
 17 21  1  0  0  0
 18 43  1  0  0  0
 19 44  1  0  0  0
 20 45  1  0  0  0
 20 46  1  0  0  0
 20 47  1  0  0  0
 21 22  1  0  0  0
 21 48  1  0  0  0
 21 49  1  0  0  0
 22 23  1  0  0  0
 23 24  3  0  0  0
M  END
>  <Name>
lit-191

>  <Family>
A.1

>  <RBA>
0.000000

>  <RBA_avg>
0.000000

>  <Method>
RUC

>  <set>
2

$$$$
lit-192
  Cerius2 12180216413D 1   1.00000                          
 Structure written by MMmdl.
 47 50  0  0  0  0  0  0  0  0999 V2000
   -6.7317   -4.3688   16.8335 C   0  0  0  0  0  0
   -5.3707   -4.1744   16.6748 C   0  0  0  0  0  0
   -4.7908   -4.3117   15.4271 C   0  0  0  0  0  0
   -7.5527   -4.6754   15.7289 C   0  0  0  0  0  0
   -7.0016   -4.7002   14.4206 C   0  0  0  0  0  0
   -5.5879   -4.6084   14.3054 C   0  0  0  0  0  0
   -4.8565   -4.8279   12.9994 C   0  0  0  0  0  0
   -5.7071   -5.5333   11.9520 C   0  0  0  0  0  0
   -7.8508   -4.9366   13.1586 C   0  0  0  0  0  0
   -7.0249   -4.7813   11.8364 C   0  0  0  0  0  0
   -9.9664   -4.4057   11.7651 C   0  0  0  0  0  0
   -9.1309   -4.0610   13.0190 C   0  0  0  0  0  0
   -9.1302   -4.3428   10.4806 C   0  0  0  0  0  0
   -7.8939   -5.2478   10.6684 C   0  0  0  0  0  0
   -7.3049   -5.3357    9.2643 C   0  0  0  0  0  0
   -8.5423   -5.3389    8.3458 C   0  0  0  0  0  0
   -9.7539   -5.0331    9.2507 C   0  0  0  0  0  0
  -10.7185   -4.2331    8.5852 O   0  0  0  0  0  0
   -4.6269   -3.8850   17.7790 O   0  0  0  0  0  0
   -8.8125   -2.8590   10.1573 C   0  0  0  0  0  0
   -8.9922   -4.9838   16.0488 C   0  0  0  0  0  0
   -7.1610   -4.3053   17.8328 H   0  0  0  0  0  0
   -3.7134   -4.2068   15.3089 H   0  0  0  0  0  0
   -3.9572   -5.4310   13.1754 H   0  0  0  0  0  0
   -4.5297   -3.8518   12.6189 H   0  0  0  0  0  0
   -5.8826   -6.5790   12.2341 H   0  0  0  0  0  0
   -5.1641   -5.5388   11.0008 H   0  0  0  0  0  0
   -8.1721   -5.9867   13.2284 H   0  0  0  0  0  0
   -6.7724   -3.7226   11.6939 H   0  0  0  0  0  0
  -10.8265   -3.7284   11.6993 H   0  0  0  0  0  0
  -10.3791   -5.4149   11.8935 H   0  0  0  0  0  0
   -8.8507   -3.0009   13.0122 H   0  0  0  0  0  0
   -9.8033   -4.1789   13.8673 H   0  0  0  0  0  0
   -8.2359   -6.2673   10.9138 H   0  0  0  0  0  0
   -6.7054   -6.2413    9.1262 H   0  0  0  0  0  0
   -6.6638   -4.4758    9.0410 H   0  0  0  0  0  0
   -8.6697   -6.3166    7.8676 H   0  0  0  0  0  0
   -8.4320   -4.6029    7.5414 H   0  0  0  0  0  0
  -10.2406   -5.9723    9.5428 H   0  0  0  0  0  0
  -10.9880   -4.7357    7.7875 H   0  0  0  0  0  0
   -3.6909   -3.7809   17.5037 H   0  0  0  0  0  0
   -8.2288   -2.7454    9.2385 H   0  0  0  0  0  0
   -8.2538   -2.3600   10.9530 H   0  0  0  0  0  0
   -9.7390   -2.2890   10.0203 H   0  0  0  0  0  0
   -9.4009   -5.7356   15.3673 H   0  0  0  0  0  0
   -9.5932   -4.0705   16.0217 H   0  0  0  0  0  0
   -9.0830   -5.4147   17.0530 H   0  0  0  0  0  0
  1  2  2  0  0  0
  1  4  1  0  0  0
  1 22  1  0  0  0
  2  3  1  0  0  0
  2 19  1  0  0  0
  3  6  2  0  0  0
  3 23  1  0  0  0
  4  5  2  0  0  0
  4 21  1  0  0  0
  5  6  1  0  0  0
  5  9  1  0  0  0
  6  7  1  0  0  0
  7  8  1  0  0  0
  7 24  1  0  0  0
  7 25  1  0  0  0
  8 10  1  0  0  0
  8 26  1  0  0  0
  8 27  1  0  0  0
  9 10  1  0  0  0
  9 12  1  0  0  0
  9 28  1  0  0  0
 10 14  1  0  0  0
 10 29  1  0  0  0
 11 12  1  0  0  0
 11 13  1  0  0  0
 11 30  1  0  0  0
 11 31  1  0  0  0
 12 32  1  0  0  0
 12 33  1  0  0  0
 13 14  1  0  0  0
 13 17  1  0  0  0
 13 20  1  0  0  0
 14 15  1  0  0  0
 14 34  1  0  0  0
 15 16  1  0  0  0
 15 35  1  0  0  0
 15 36  1  0  0  0
 16 17  1  0  0  0
 16 37  1  0  0  0
 16 38  1  0  0  0
 17 18  1  0  0  0
 17 39  1  0  0  0
 18 40  1  0  0  0
 19 41  1  0  0  0
 20 42  1  0  0  0
 20 43  1  0  0  0
 20 44  1  0  0  0
 21 45  1  0  0  0
 21 46  1  0  0  0
 21 47  1  0  0  0
M  END
>  <Name>
lit-192

>  <Family>
A.1

>  <RBA>
15.000000

>  <RBA_avg>
15.000000

>  <Method>
RBC

>  <set>
0

$$$$
lit-193
  Cerius2 12180216413D 1   1.00000                          
 Structure written by MMmdl.
 48 52  0  0  0  0  0  0  0  0999 V2000
   -6.9918   -3.8187   16.4507 C   0  0  0  0  0  0
   -5.6002   -3.8430   16.4725 C   0  0  0  0  0  0
   -4.8730   -4.3592   15.4040 C   0  0  0  0  0  0
   -7.6882   -4.3438   15.3549 C   0  0  0  0  0  0
   -6.9617   -4.8763   14.2796 C   0  0  0  0  0  0
   -5.5467   -4.8703   14.2872 C   0  0  0  0  0  0
   -4.7403   -5.3400   13.0835 C   0  0  0  0  0  0
   -5.5500   -5.7265   11.8230 C   0  0  0  0  0  0
   -7.6557   -5.5004   13.0950 C   0  0  0  0  0  0
   -6.9065   -5.0235   11.8277 C   0  0  0  0  0  0
   -9.7570   -4.3294   12.0642 C   0  0  0  0  0  0
   -9.2040   -5.4049   13.0239 C   0  0  0  0  0  0
   -9.0067   -4.2398   10.7083 C   0  0  0  0  0  0
   -7.8285   -5.2509   10.6485 C   0  0  0  0  0  0
   -7.3375   -5.1492    9.2141 C   0  0  0  0  0  0
   -8.6467   -4.9716    8.4154 C   0  0  0  0  0  0
   -9.7667   -4.7281    9.4561 C   0  0  0  0  0  0
  -10.7238   -3.8075    8.9558 O   0  0  0  0  0  0
   -4.9716   -3.3272   17.5687 O   0  0  0  0  0  0
   -8.5986   -2.7497   10.5190 C   0  0  0  0  0  0
   -9.1920   -4.2557   15.3054 C   0  0  0  0  0  0
   -9.8183   -5.3381   14.4289 C   0  0  0  0  0  0
   -7.5347   -3.3871   17.2897 H   0  0  0  0  0  0
   -3.7850   -4.3503   15.4201 H   0  0  0  0  0  0
   -4.1091   -6.1867   13.3783 H   0  0  0  0  0  0
   -4.0690   -4.5172   12.8034 H   0  0  0  0  0  0
   -5.6899   -6.8149   11.7997 H   0  0  0  0  0  0
   -4.9731   -5.4710   10.9269 H   0  0  0  0  0  0
   -7.4728   -6.5813   13.2183 H   0  0  0  0  0  0
   -6.6895   -3.9502   11.8952 H   0  0  0  0  0  0
   -9.7198   -3.3617   12.5795 H   0  0  0  0  0  0
  -10.8228   -4.5208   11.8859 H   0  0  0  0  0  0
   -9.5537   -6.3567   12.5943 H   0  0  0  0  0  0
   -8.2201   -6.2779   10.7377 H   0  0  0  0  0  0
   -6.7954   -6.0467    8.8998 H   0  0  0  0  0  0
   -6.6713   -4.2924    9.0685 H   0  0  0  0  0  0
   -8.8705   -5.8721    7.8323 H   0  0  0  0  0  0
   -8.5582   -4.1443    7.7024 H   0  0  0  0  0  0
  -10.2843   -5.6743    9.6599 H   0  0  0  0  0  0
  -10.9991   -4.1458    8.0782 H   0  0  0  0  0  0
   -4.0030   -3.4129   17.4385 H   0  0  0  0  0  0
   -8.0400   -2.5699    9.5962 H   0  0  0  0  0  0
   -7.9852   -2.3830   11.3482 H   0  0  0  0  0  0
   -9.4886   -2.1099   10.4829 H   0  0  0  0  0  0
   -9.4689   -3.2620   14.9346 H   0  0  0  0  0  0
   -9.6019   -4.3517   16.3182 H   0  0  0  0  0  0
   -9.6722   -6.3115   14.9170 H   0  0  0  0  0  0
  -10.9019   -5.1831   14.3658 H   0  0  0  0  0  0
  1  2  2  0  0  0
  1  4  1  0  0  0
  1 23  1  0  0  0
  2  3  1  0  0  0
  2 19  1  0  0  0
  3  6  2  0  0  0
  3 24  1  0  0  0
  4  5  2  0  0  0
  4 21  1  0  0  0
  5  6  1  0  0  0
  5  9  1  0  0  0
  6  7  1  0  0  0
  7  8  1  0  0  0
  7 25  1  0  0  0
  7 26  1  0  0  0
  8 10  1  0  0  0
  8 27  1  0  0  0
  8 28  1  0  0  0
  9 10  1  0  0  0
  9 12  1  0  0  0
  9 29  1  0  0  0
 10 14  1  0  0  0
 10 30  1  0  0  0
 11 12  1  0  0  0
 11 13  1  0  0  0
 11 31  1  0  0  0
 11 32  1  0  0  0
 12 22  1  0  0  0
 12 33  1  0  0  0
 13 14  1  0  0  0
 13 17  1  0  0  0
 13 20  1  0  0  0
 14 15  1  0  0  0
 14 34  1  0  0  0
 15 16  1  0  0  0
 15 35  1  0  0  0
 15 36  1  0  0  0
 16 17  1  0  0  0
 16 37  1  0  0  0
 16 38  1  0  0  0
 17 18  1  0  0  0
 17 39  1  0  0  0
 18 40  1  0  0  0
 19 41  1  0  0  0
 20 42  1  0  0  0
 20 43  1  0  0  0
 20 44  1  0  0  0
 21 22  1  0  0  0
 21 45  1  0  0  0
 21 46  1  0  0  0
 22 47  1  0  0  0
 22 48  1  0  0  0
M  END
>  <Name>
lit-193

>  <Family>
A.1

>  <RBA>
22.400000

>  <RBA_avg>
22.000000

>  <Method>
LUC*

>  <set>
0

$$$$
lit-194
  Cerius2 12180216413D 1   1.00000                          
 Structure written by MMmdl.
 47 50  0  0  0  0  0  0  0  0999 V2000
   -6.7990   -4.1013   16.7605 C   0  0  0  0  0  0
   -5.4094   -4.1406   16.6638 C   0  0  0  0  0  0
   -4.7876   -4.4455   15.4568 C   0  0  0  0  0  0
   -7.5616   -4.3724   15.6127 C   0  0  0  0  0  0
   -6.9607   -4.6606   14.3719 C   0  0  0  0  0  0
   -5.5524   -4.7218   14.3098 C   0  0  0  0  0  0
   -4.8120   -5.0260   13.0278 C   0  0  0  0  0  0
   -5.6930   -5.6000   11.9224 C   0  0  0  0  0  0
   -7.8064   -4.9954   13.1427 C   0  0  0  0  0  0
   -6.9932   -4.7996   11.8269 C   0  0  0  0  0  0
   -9.9782   -4.5941   11.7913 C   0  0  0  0  0  0
   -9.1774   -4.2705   13.0677 C   0  0  0  0  0  0
   -9.1432   -4.3797   10.5224 C   0  0  0  0  0  0
   -7.8619   -5.2300   10.6446 C   0  0  0  0  0  0
   -7.2764   -5.1959    9.2356 C   0  0  0  0  0  0
   -8.5129   -5.1809    8.3179 C   0  0  0  0  0  0
   -9.7343   -5.0029    9.2415 C   0  0  0  0  0  0
  -10.7370   -4.2005    8.6378 O   0  0  0  0  0  0
   -4.6604   -3.8800   17.7764 O   0  0  0  0  0  0
   -8.8978   -2.8623   10.3215 C   0  0  0  0  0  0
   -7.4788   -3.7942   18.0648 C   0  0  0  0  0  0
   -3.7009   -4.4747   15.3932 H   0  0  0  0  0  0
   -8.6462   -4.3624   15.7057 H   0  0  0  0  0  0
   -3.9976   -5.7326   13.2288 H   0  0  0  0  0  0
   -4.3574   -4.0919   12.6736 H   0  0  0  0  0  0
   -5.9146   -6.6547   12.1306 H   0  0  0  0  0  0
   -5.1380   -5.5714   10.9781 H   0  0  0  0  0  0
   -8.0306   -6.0693   13.2379 H   0  0  0  0  0  0
   -6.7215   -3.7420   11.7161 H   0  0  0  0  0  0
  -10.8890   -3.9841   11.7634 H   0  0  0  0  0  0
  -10.3098   -5.6392   11.8479 H   0  0  0  0  0  0
   -9.0288   -3.1872   13.1519 H   0  0  0  0  0  0
   -9.8050   -4.5585   13.9190 H   0  0  0  0  0  0
   -8.1529   -6.2782   10.8272 H   0  0  0  0  0  0
   -6.6427   -6.0654    9.0336 H   0  0  0  0  0  0
   -6.6694   -4.2982    9.0739 H   0  0  0  0  0  0
   -8.5972   -6.1213    7.7617 H   0  0  0  0  0  0
   -8.4370   -4.3782    7.5759 H   0  0  0  0  0  0
  -10.1755   -5.9838    9.4595 H   0  0  0  0  0  0
  -10.9843   -4.6526    7.8035 H   0  0  0  0  0  0
   -3.7119   -3.9492   17.5378 H   0  0  0  0  0  0
   -8.3278   -2.6475    9.4123 H   0  0  0  0  0  0
   -8.3533   -2.4075   11.1531 H   0  0  0  0  0  0
   -9.8506   -2.3264   10.2374 H   0  0  0  0  0  0
   -8.5662   -3.7382   17.9491 H   0  0  0  0  0  0
   -7.1390   -2.8281   18.4522 H   0  0  0  0  0  0
   -7.2588   -4.5768   18.7979 H   0  0  0  0  0  0
  1  2  2  0  0  0
  1  4  1  0  0  0
  1 21  1  0  0  0
  2  3  1  0  0  0
  2 19  1  0  0  0
  3  6  2  0  0  0
  3 22  1  0  0  0
  4  5  2  0  0  0
  4 23  1  0  0  0
  5  6  1  0  0  0
  5  9  1  0  0  0
  6  7  1  0  0  0
  7  8  1  0  0  0
  7 24  1  0  0  0
  7 25  1  0  0  0
  8 10  1  0  0  0
  8 26  1  0  0  0
  8 27  1  0  0  0
  9 10  1  0  0  0
  9 12  1  0  0  0
  9 28  1  0  0  0
 10 14  1  0  0  0
 10 29  1  0  0  0
 11 12  1  0  0  0
 11 13  1  0  0  0
 11 30  1  0  0  0
 11 31  1  0  0  0
 12 32  1  0  0  0
 12 33  1  0  0  0
 13 14  1  0  0  0
 13 17  1  0  0  0
 13 20  1  0  0  0
 14 15  1  0  0  0
 14 34  1  0  0  0
 15 16  1  0  0  0
 15 35  1  0  0  0
 15 36  1  0  0  0
 16 17  1  0  0  0
 16 37  1  0  0  0
 16 38  1  0  0  0
 17 18  1  0  0  0
 17 39  1  0  0  0
 18 40  1  0  0  0
 19 41  1  0  0  0
 20 42  1  0  0  0
 20 43  1  0  0  0
 20 44  1  0  0  0
 21 45  1  0  0  0
 21 46  1  0  0  0
 21 47  1  0  0  0
M  END
>  <Name>
lit-194

>  <Family>
A.1

>  <RBA>
36,46.9,41

>  <RBA_avg>
41.000000

>  <Method>
RBC,MCF-7,MUC

>  <set>
0

$$$$
lit-195
  Cerius2 12180216413D 1   1.00000                          
 Structure written by MMmdl.
 44 47  0  0  0  0  0  0  0  0999 V2000
   -6.7891   -4.1075   16.7349 C   0  0  0  0  0  0
   -5.4030   -4.1392   16.6643 C   0  0  0  0  0  0
   -4.7815   -4.4454   15.4597 C   0  0  0  0  0  0
   -7.5657   -4.3706   15.6091 C   0  0  0  0  0  0
   -6.9641   -4.6613   14.3718 C   0  0  0  0  0  0
   -5.5519   -4.7229   14.3126 C   0  0  0  0  0  0
   -4.8123   -5.0288   13.0296 C   0  0  0  0  0  0
   -5.6941   -5.6018   11.9242 C   0  0  0  0  0  0
   -7.8078   -4.9969   13.1427 C   0  0  0  0  0  0
   -6.9938   -4.8006   11.8280 C   0  0  0  0  0  0
   -9.9791   -4.5953   11.7921 C   0  0  0  0  0  0
   -9.1786   -4.2723   13.0687 C   0  0  0  0  0  0
   -9.1437   -4.3797   10.5235 C   0  0  0  0  0  0
   -7.8623   -5.2300   10.6453 C   0  0  0  0  0  0
   -7.2763   -5.1944    9.2365 C   0  0  0  0  0  0
   -8.5126   -5.1786    8.3184 C   0  0  0  0  0  0
   -9.7342   -5.0017    9.2418 C   0  0  0  0  0  0
  -10.7368   -4.1987    8.6387 O   0  0  0  0  0  0
   -4.6698   -3.8724   17.7859 O   0  0  0  0  0  0
   -8.8984   -2.8620   10.3241 C   0  0  0  0  0  0
   -7.3992   -3.8259   17.8962 F   0  0  0  0  0  0
   -3.6950   -4.4748   15.3949 H   0  0  0  0  0  0
   -8.6446   -4.3490   15.7288 H   0  0  0  0  0  0
   -3.9987   -5.7363   13.2306 H   0  0  0  0  0  0
   -4.3568   -4.0951   12.6752 H   0  0  0  0  0  0
   -5.9166   -6.6564   12.1327 H   0  0  0  0  0  0
   -5.1390   -5.5741   10.9799 H   0  0  0  0  0  0
   -8.0318   -6.0709   13.2376 H   0  0  0  0  0  0
   -6.7214   -3.7430   11.7179 H   0  0  0  0  0  0
  -10.8901   -3.9856   11.7643 H   0  0  0  0  0  0
  -10.3104   -5.6405   11.8478 H   0  0  0  0  0  0
   -9.0304   -3.1890   13.1533 H   0  0  0  0  0  0
   -9.8051   -4.5607   13.9208 H   0  0  0  0  0  0
   -8.1530   -6.2784   10.8267 H   0  0  0  0  0  0
   -6.6425   -6.0638    9.0338 H   0  0  0  0  0  0
   -6.6692   -4.2966    9.0758 H   0  0  0  0  0  0
   -8.5965   -6.1182    7.7610 H   0  0  0  0  0  0
   -8.4365   -4.3749    7.5774 H   0  0  0  0  0  0
  -10.1754   -5.9829    9.4587 H   0  0  0  0  0  0
  -10.9833   -4.6496    7.8034 H   0  0  0  0  0  0
   -3.7184   -3.9391   17.5574 H   0  0  0  0  0  0
   -8.3282   -2.6463    9.4151 H   0  0  0  0  0  0
   -8.3541   -2.4078   11.1561 H   0  0  0  0  0  0
   -9.8512   -2.3262   10.2403 H   0  0  0  0  0  0
  1  2  2  0  0  0
  1  4  1  0  0  0
  1 21  1  0  0  0
  2  3  1  0  0  0
  2 19  1  0  0  0
  3  6  2  0  0  0
  3 22  1  0  0  0
  4  5  2  0  0  0
  4 23  1  0  0  0
  5  6  1  0  0  0
  5  9  1  0  0  0
  6  7  1  0  0  0
  7  8  1  0  0  0
  7 24  1  0  0  0
  7 25  1  0  0  0
  8 10  1  0  0  0
  8 26  1  0  0  0
  8 27  1  0  0  0
  9 10  1  0  0  0
  9 12  1  0  0  0
  9 28  1  0  0  0
 10 14  1  0  0  0
 10 29  1  0  0  0
 11 12  1  0  0  0
 11 13  1  0  0  0
 11 30  1  0  0  0
 11 31  1  0  0  0
 12 32  1  0  0  0
 12 33  1  0  0  0
 13 14  1  0  0  0
 13 17  1  0  0  0
 13 20  1  0  0  0
 14 15  1  0  0  0
 14 34  1  0  0  0
 15 16  1  0  0  0
 15 35  1  0  0  0
 15 36  1  0  0  0
 16 17  1  0  0  0
 16 37  1  0  0  0
 16 38  1  0  0  0
 17 18  1  0  0  0
 17 39  1  0  0  0
 18 40  1  0  0  0
 19 41  1  0  0  0
 20 42  1  0  0  0
 20 43  1  0  0  0
 20 44  1  0  0  0
M  END
>  <Name>
lit-195

>  <Family>
A.1

>  <RBA>
51,100

>  <RBA_avg>
76.000000

>  <Method>
RUC,LUC*

>  <set>
0

$$$$
lit-196
  Cerius2 12180216413D 1   1.00000                          
 Structure written by MMmdl.
 44 47  0  0  0  0  0  0  0  0999 V2000
   -6.7971   -4.1063   16.7474 C   0  0  0  0  0  0
   -5.4066   -4.1376   16.6690 C   0  0  0  0  0  0
   -4.7878   -4.4441   15.4601 C   0  0  0  0  0  0
   -7.5676   -4.3729   15.6114 C   0  0  0  0  0  0
   -6.9653   -4.6621   14.3725 C   0  0  0  0  0  0
   -5.5553   -4.7227   14.3129 C   0  0  0  0  0  0
   -4.8141   -5.0281   13.0309 C   0  0  0  0  0  0
   -5.6946   -5.6015   11.9248 C   0  0  0  0  0  0
   -7.8091   -4.9976   13.1426 C   0  0  0  0  0  0
   -6.9945   -4.8007   11.8281 C   0  0  0  0  0  0
   -9.9796   -4.5961   11.7898 C   0  0  0  0  0  0
   -9.1802   -4.2734   13.0673 C   0  0  0  0  0  0
   -9.1434   -4.3798   10.5221 C   0  0  0  0  0  0
   -7.8620   -5.2300   10.6446 C   0  0  0  0  0  0
   -7.2750   -5.1939    9.2362 C   0  0  0  0  0  0
   -8.5107   -5.1783    8.3173 C   0  0  0  0  0  0
   -9.7330   -5.0014    9.2398 C   0  0  0  0  0  0
  -10.7352   -4.1983    8.6361 O   0  0  0  0  0  0
   -4.6456   -3.8730   17.7755 O   0  0  0  0  0  0
   -8.8981   -2.8622   10.3235 C   0  0  0  0  0  0
   -7.6047   -3.7472   18.2320 Cl  0  0  0  0  0  0
   -3.7010   -4.4724   15.3933 H   0  0  0  0  0  0
   -8.6499   -4.3587   15.7112 H   0  0  0  0  0  0
   -4.0006   -5.7354   13.2328 H   0  0  0  0  0  0
   -4.3586   -4.0944   12.6770 H   0  0  0  0  0  0
   -5.9167   -6.6562   12.1327 H   0  0  0  0  0  0
   -5.1389   -5.5730   10.9809 H   0  0  0  0  0  0
   -8.0328   -6.0716   13.2374 H   0  0  0  0  0  0
   -6.7224   -3.7430   11.7184 H   0  0  0  0  0  0
  -10.8908   -3.9867   11.7617 H   0  0  0  0  0  0
  -10.3106   -5.6415   11.8450 H   0  0  0  0  0  0
   -9.0325   -3.1900   13.1526 H   0  0  0  0  0  0
   -9.8081   -4.5626   13.9179 H   0  0  0  0  0  0
   -8.1528   -6.2785   10.8256 H   0  0  0  0  0  0
   -6.6408   -6.0628    9.0337 H   0  0  0  0  0  0
   -6.6684   -4.2957    9.0762 H   0  0  0  0  0  0
   -8.5944   -6.1181    7.7600 H   0  0  0  0  0  0
   -8.4343   -4.3749    7.5761 H   0  0  0  0  0  0
  -10.1744   -5.9826    9.4561 H   0  0  0  0  0  0
  -10.9817   -4.6494    7.8010 H   0  0  0  0  0  0
   -3.6995   -3.9415   17.5286 H   0  0  0  0  0  0
   -8.3274   -2.6460    9.4149 H   0  0  0  0  0  0
   -8.3543   -2.4083   11.1561 H   0  0  0  0  0  0
   -9.8509   -2.3263   10.2395 H   0  0  0  0  0  0
  1  2  2  0  0  0
  1  4  1  0  0  0
  1 21  1  0  0  0
  2  3  1  0  0  0
  2 19  1  0  0  0
  3  6  2  0  0  0
  3 22  1  0  0  0
  4  5  2  0  0  0
  4 23  1  0  0  0
  5  6  1  0  0  0
  5  9  1  0  0  0
  6  7  1  0  0  0
  7  8  1  0  0  0
  7 24  1  0  0  0
  7 25  1  0  0  0
  8 10  1  0  0  0
  8 26  1  0  0  0
  8 27  1  0  0  0
  9 10  1  0  0  0
  9 12  1  0  0  0
  9 28  1  0  0  0
 10 14  1  0  0  0
 10 29  1  0  0  0
 11 12  1  0  0  0
 11 13  1  0  0  0
 11 30  1  0  0  0
 11 31  1  0  0  0
 12 32  1  0  0  0
 12 33  1  0  0  0
 13 14  1  0  0  0
 13 17  1  0  0  0
 13 20  1  0  0  0
 14 15  1  0  0  0
 14 34  1  0  0  0
 15 16  1  0  0  0
 15 35  1  0  0  0
 15 36  1  0  0  0
 16 17  1  0  0  0
 16 37  1  0  0  0
 16 38  1  0  0  0
 17 18  1  0  0  0
 17 39  1  0  0  0
 18 40  1  0  0  0
 19 41  1  0  0  0
 20 42  1  0  0  0
 20 43  1  0  0  0
 20 44  1  0  0  0
M  END
>  <Name>
lit-196

>  <Family>
A.1

>  <RBA>
9.6,11

>  <RBA_avg>
10.000000

>  <Method>
RUC,CUC*

>  <set>
0

$$$$
lit-197
  Cerius2 12180216413D 1   1.00000                          
 Structure written by MMmdl.
 44 47  0  0  0  0  0  0  0  0999 V2000
   -6.7964   -4.1063   16.7477 C   0  0  0  0  0  0
   -5.4069   -4.1373   16.6693 C   0  0  0  0  0  0
   -4.7887   -4.4440   15.4601 C   0  0  0  0  0  0
   -7.5677   -4.3733   15.6117 C   0  0  0  0  0  0
   -6.9654   -4.6623   14.3728 C   0  0  0  0  0  0
   -5.5557   -4.7228   14.3130 C   0  0  0  0  0  0
   -4.8144   -5.0282   13.0312 C   0  0  0  0  0  0
   -5.6947   -5.6016   11.9249 C   0  0  0  0  0  0
   -7.8093   -4.9978   13.1428 C   0  0  0  0  0  0
   -6.9946   -4.8008   11.8282 C   0  0  0  0  0  0
   -9.9796   -4.5963   11.7897 C   0  0  0  0  0  0
   -9.1805   -4.2737   13.0673 C   0  0  0  0  0  0
   -9.1434   -4.3798   10.5220 C   0  0  0  0  0  0
   -7.8620   -5.2300   10.6446 C   0  0  0  0  0  0
   -7.2749   -5.1938    9.2363 C   0  0  0  0  0  0
   -8.5104   -5.1781    8.3173 C   0  0  0  0  0  0
   -9.7329   -5.0013    9.2396 C   0  0  0  0  0  0
  -10.7349   -4.1981    8.6359 O   0  0  0  0  0  0
   -4.6446   -3.8727   17.7738 O   0  0  0  0  0  0
   -8.8980   -2.8621   10.3237 C   0  0  0  0  0  0
   -7.6883   -3.7124   18.3763 Br  0  0  0  0  0  0
   -3.7019   -4.4721   15.3931 H   0  0  0  0  0  0
   -8.6506   -4.3602   15.7080 H   0  0  0  0  0  0
   -4.0009   -5.7355   13.2332 H   0  0  0  0  0  0
   -4.3588   -4.0945   12.6772 H   0  0  0  0  0  0
   -5.9168   -6.6563   12.1327 H   0  0  0  0  0  0
   -5.1389   -5.5731   10.9812 H   0  0  0  0  0  0
   -8.0328   -6.0718   13.2374 H   0  0  0  0  0  0
   -6.7225   -3.7431   11.7186 H   0  0  0  0  0  0
  -10.8909   -3.9868   11.7614 H   0  0  0  0  0  0
  -10.3107   -5.6416   11.8446 H   0  0  0  0  0  0
   -9.0329   -3.1904   13.1528 H   0  0  0  0  0  0
   -9.8087   -4.5631   13.9177 H   0  0  0  0  0  0
   -8.1527   -6.2786   10.8255 H   0  0  0  0  0  0
   -6.6406   -6.0626    9.0338 H   0  0  0  0  0  0
   -6.6682   -4.2955    9.0765 H   0  0  0  0  0  0
   -8.5939   -6.1178    7.7599 H   0  0  0  0  0  0
   -8.4339   -4.3745    7.5760 H   0  0  0  0  0  0
  -10.1742   -5.9825    9.4558 H   0  0  0  0  0  0
  -10.9813   -4.6490    7.8007 H   0  0  0  0  0  0
   -3.6988   -3.9410   17.5260 H   0  0  0  0  0  0
   -8.3272   -2.6458    9.4152 H   0  0  0  0  0  0
   -8.3543   -2.4084   11.1564 H   0  0  0  0  0  0
   -9.8507   -2.3264   10.2395 H   0  0  0  0  0  0
  1  2  2  0  0  0
  1  4  1  0  0  0
  1 21  1  0  0  0
  2  3  1  0  0  0
  2 19  1  0  0  0
  3  6  2  0  0  0
  3 22  1  0  0  0
  4  5  2  0  0  0
  4 23  1  0  0  0
  5  6  1  0  0  0
  5  9  1  0  0  0
  6  7  1  0  0  0
  7  8  1  0  0  0
  7 24  1  0  0  0
  7 25  1  0  0  0
  8 10  1  0  0  0
  8 26  1  0  0  0
  8 27  1  0  0  0
  9 10  1  0  0  0
  9 12  1  0  0  0
  9 28  1  0  0  0
 10 14  1  0  0  0
 10 29  1  0  0  0
 11 12  1  0  0  0
 11 13  1  0  0  0
 11 30  1  0  0  0
 11 31  1  0  0  0
 12 32  1  0  0  0
 12 33  1  0  0  0
 13 14  1  0  0  0
 13 17  1  0  0  0
 13 20  1  0  0  0
 14 15  1  0  0  0
 14 34  1  0  0  0
 15 16  1  0  0  0
 15 35  1  0  0  0
 15 36  1  0  0  0
 16 17  1  0  0  0
 16 37  1  0  0  0
 16 38  1  0  0  0
 17 18  1  0  0  0
 17 39  1  0  0  0
 18 40  1  0  0  0
 19 41  1  0  0  0
 20 42  1  0  0  0
 20 43  1  0  0  0
 20 44  1  0  0  0
M  END
>  <Name>
lit-197

>  <Family>
A.1

>  <RBA>
1.2,17.4

>  <RBA_avg>
9.300000

>  <Method>
RUC*,MCF-7

>  <set>
0

$$$$
lit-198
  Cerius2 12180216413D 1   1.00000                          
 Structure written by MMmdl.
 44 47  0  0  0  0  0  0  0  0999 V2000
   -6.7973   -4.1075   16.7507 C   0  0  0  0  0  0
   -5.4074   -4.1376   16.6710 C   0  0  0  0  0  0
   -4.7903   -4.4434   15.4603 C   0  0  0  0  0  0
   -7.5683   -4.3746   15.6127 C   0  0  0  0  0  0
   -6.9658   -4.6621   14.3731 C   0  0  0  0  0  0
   -5.5566   -4.7219   14.3129 C   0  0  0  0  0  0
   -4.8150   -5.0264   13.0313 C   0  0  0  0  0  0
   -5.6950   -5.6007   11.9252 C   0  0  0  0  0  0
   -7.8098   -4.9971   13.1429 C   0  0  0  0  0  0
   -6.9950   -4.8004   11.8284 C   0  0  0  0  0  0
   -9.9798   -4.5952   11.7891 C   0  0  0  0  0  0
   -9.1808   -4.2726   13.0668 C   0  0  0  0  0  0
   -9.1433   -4.3797   10.5215 C   0  0  0  0  0  0
   -7.8622   -5.2300   10.6447 C   0  0  0  0  0  0
   -7.2747   -5.1948    9.2367 C   0  0  0  0  0  0
   -8.5099   -5.1789    8.3172 C   0  0  0  0  0  0
   -9.7325   -5.0018    9.2393 C   0  0  0  0  0  0
  -10.7346   -4.1991    8.6349 O   0  0  0  0  0  0
   -4.6391   -3.8743   17.7712 O   0  0  0  0  0  0
   -8.8977   -2.8621   10.3223 C   0  0  0  0  0  0
   -7.7916   -3.6760   18.5422 I   0  0  0  0  0  0
   -3.7036   -4.4709   15.3924 H   0  0  0  0  0  0
   -8.6517   -4.3643   15.7031 H   0  0  0  0  0  0
   -4.0007   -5.7329   13.2331 H   0  0  0  0  0  0
   -4.3603   -4.0922   12.6773 H   0  0  0  0  0  0
   -5.9167   -6.6553   12.1336 H   0  0  0  0  0  0
   -5.1391   -5.5723   10.9815 H   0  0  0  0  0  0
   -8.0337   -6.0711   13.2375 H   0  0  0  0  0  0
   -6.7232   -3.7426   11.7186 H   0  0  0  0  0  0
  -10.8908   -3.9852   11.7605 H   0  0  0  0  0  0
  -10.3115   -5.6403   11.8444 H   0  0  0  0  0  0
   -9.0327   -3.1893   13.1522 H   0  0  0  0  0  0
   -9.8095   -4.5615   13.9169 H   0  0  0  0  0  0
   -8.1531   -6.2783   10.8262 H   0  0  0  0  0  0
   -6.6409   -6.0643    9.0348 H   0  0  0  0  0  0
   -6.6674   -4.2971    9.0764 H   0  0  0  0  0  0
   -8.5934   -6.1185    7.7598 H   0  0  0  0  0  0
   -8.4331   -4.3753    7.5762 H   0  0  0  0  0  0
  -10.1739   -5.9830    9.4559 H   0  0  0  0  0  0
  -10.9805   -4.6504    7.7998 H   0  0  0  0  0  0
   -3.6945   -3.9433   17.5194 H   0  0  0  0  0  0
   -8.3263   -2.6464    9.4141 H   0  0  0  0  0  0
   -8.3546   -2.4078   11.1551 H   0  0  0  0  0  0
   -9.8504   -2.3263   10.2370 H   0  0  0  0  0  0
  1  2  2  0  0  0
  1  4  1  0  0  0
  1 21  1  0  0  0
  2  3  1  0  0  0
  2 19  1  0  0  0
  3  6  2  0  0  0
  3 22  1  0  0  0
  4  5  2  0  0  0
  4 23  1  0  0  0
  5  6  1  0  0  0
  5  9  1  0  0  0
  6  7  1  0  0  0
  7  8  1  0  0  0
  7 24  1  0  0  0
  7 25  1  0  0  0
  8 10  1  0  0  0
  8 26  1  0  0  0
  8 27  1  0  0  0
  9 10  1  0  0  0
  9 12  1  0  0  0
  9 28  1  0  0  0
 10 14  1  0  0  0
 10 29  1  0  0  0
 11 12  1  0  0  0
 11 13  1  0  0  0
 11 30  1  0  0  0
 11 31  1  0  0  0
 12 32  1  0  0  0
 12 33  1  0  0  0
 13 14  1  0  0  0
 13 17  1  0  0  0
 13 20  1  0  0  0
 14 15  1  0  0  0
 14 34  1  0  0  0
 15 16  1  0  0  0
 15 35  1  0  0  0
 15 36  1  0  0  0
 16 17  1  0  0  0
 16 37  1  0  0  0
 16 38  1  0  0  0
 17 18  1  0  0  0
 17 39  1  0  0  0
 18 40  1  0  0  0
 19 41  1  0  0  0
 20 42  1  0  0  0
 20 43  1  0  0  0
 20 44  1  0  0  0
M  END
>  <Name>
lit-198

>  <Family>
A.1

>  <RBA>
<0.1,0.001

>  <RBA_avg>
0.000000

>  <Method>
RUC*,RBC

>  <set>
0

$$$$
lit-199
  Cerius2 12180216413D 1   1.00000                          
 Structure written by MMmdl.
 46 49  0  0  0  0  0  0  0  0999 V2000
   -6.7683   -4.0780   16.7512 C   0  0  0  0  0  0
   -5.3740   -4.1465   16.6638 C   0  0  0  0  0  0
   -4.7523   -4.5272   15.4781 C   0  0  0  0  0  0
   -7.5286   -4.4160   15.6271 C   0  0  0  0  0  0
   -6.9289   -4.7647   14.4029 C   0  0  0  0  0  0
   -5.5205   -4.8422   14.3432 C   0  0  0  0  0  0
   -4.7829   -5.1910   13.0709 C   0  0  0  0  0  0
   -5.6745   -5.6892   11.9364 C   0  0  0  0  0  0
   -7.7744   -5.1074   13.1781 C   0  0  0  0  0  0
   -6.9592   -4.8596   11.8731 C   0  0  0  0  0  0
   -9.9491   -4.6672   11.8389 C   0  0  0  0  0  0
   -9.1641   -4.4162   13.1365 C   0  0  0  0  0  0
   -9.1033   -4.3525   10.6009 C   0  0  0  0  0  0
   -7.8256   -5.2112   10.6656 C   0  0  0  0  0  0
   -7.2345   -5.0734    9.2649 C   0  0  0  0  0  0
   -8.4660   -4.9796    8.3458 C   0  0  0  0  0  0
   -9.6889   -4.8701    9.2759 C   0  0  0  0  0  0
  -10.6785   -4.0095    8.7499 O   0  0  0  0  0  0
   -4.6243   -3.8185   17.7602 O   0  0  0  0  0  0
   -8.8575   -2.8232   10.5199 C   0  0  0  0  0  0
   -7.4352   -3.7027   17.9312 N   0  0  0  0  0  0
   -7.3029   -2.4856   18.1663 N   0  3  0  0  0  0
   -7.2113   -1.3673   18.3747 N   0  5  0  0  0  0
   -3.6681   -4.5689   15.4153 H   0  0  0  0  0  0
   -8.6096   -4.3866   15.7305 H   0  0  0  0  0  0
   -4.0222   -5.9523   13.2822 H   0  0  0  0  0  0
   -4.2590   -4.2874   12.7326 H   0  0  0  0  0  0
   -5.9193   -6.7478   12.0933 H   0  0  0  0  0  0
   -5.1154   -5.6300   10.9960 H   0  0  0  0  0  0
   -7.9712   -6.1880   13.2518 H   0  0  0  0  0  0
   -6.6669   -3.8029   11.8149 H   0  0  0  0  0  0
  -10.8692   -4.0706   11.8428 H   0  0  0  0  0  0
  -10.2642   -5.7188   11.8216 H   0  0  0  0  0  0
   -9.0476   -3.3373   13.2944 H   0  0  0  0  0  0
   -9.7863   -4.7788   13.9637 H   0  0  0  0  0  0
   -8.1164   -6.2695   10.7747 H   0  0  0  0  0  0
   -6.6047   -5.9286    9.0001 H   0  0  0  0  0  0
   -6.6217   -4.1696    9.1746 H   0  0  0  0  0  0
   -8.5520   -5.8719    7.7158 H   0  0  0  0  0  0
   -8.3834   -4.1208    7.6703 H   0  0  0  0  0  0
  -10.1379   -5.8621    9.4116 H   0  0  0  0  0  0
  -10.9499   -4.3661    7.8873 H   0  0  0  0  0  0
   -3.6893   -4.0108   17.5807 H   0  0  0  0  0  0
   -8.2952   -2.5371    9.6254 H   0  0  0  0  0  0
   -8.3050   -2.4355   11.3797 H   0  0  0  0  0  0
   -9.8099   -2.2810   10.4878 H   0  0  0  0  0  0
  1  2  2  0  0  0
  1  4  1  0  0  0
  1 21  1  0  0  0
  2  3  1  0  0  0
  2 19  1  0  0  0
  3  6  2  0  0  0
  3 24  1  0  0  0
  4  5  2  0  0  0
  4 25  1  0  0  0
  5  6  1  0  0  0
  5  9  1  0  0  0
  6  7  1  0  0  0
  7  8  1  0  0  0
  7 26  1  0  0  0
  7 27  1  0  0  0
  8 10  1  0  0  0
  8 28  1  0  0  0
  8 29  1  0  0  0
  9 10  1  0  0  0
  9 12  1  0  0  0
  9 30  1  0  0  0
 10 14  1  0  0  0
 10 31  1  0  0  0
 11 12  1  0  0  0
 11 13  1  0  0  0
 11 32  1  0  0  0
 11 33  1  0  0  0
 12 34  1  0  0  0
 12 35  1  0  0  0
 13 14  1  0  0  0
 13 17  1  0  0  0
 13 20  1  0  0  0
 14 15  1  0  0  0
 14 36  1  0  0  0
 15 16  1  0  0  0
 15 37  1  0  0  0
 15 38  1  0  0  0
 16 17  1  0  0  0
 16 39  1  0  0  0
 16 40  1  0  0  0
 17 18  1  0  0  0
 17 41  1  0  0  0
 18 42  1  0  0  0
 19 43  1  0  0  0
 20 44  1  0  0  0
 20 45  1  0  0  0
 20 46  1  0  0  0
 21 22  2  0  0  0
 22 23  2  0  0  0
M  CHG  2  22   1  23  -1
M  END
>  <Name>
lit-199

>  <Family>
A.1

>  <RBA>
3,2.6

>  <RBA_avg>
2.800000

>  <Method>
RUC*,hERa

>  <set>
2

$$$$
lit-200
  Cerius2 12180216413D 1   1.00000                          
 Structure written by MMmdl.
 46 49  0  0  0  0  0  0  0  0999 V2000
   -6.7859   -4.1023   16.7383 C   0  0  0  0  0  0
   -5.3966   -4.1359   16.6789 C   0  0  0  0  0  0
   -4.7867   -4.4414   15.4652 C   0  0  0  0  0  0
   -7.5758   -4.3692   15.6107 C   0  0  0  0  0  0
   -6.9723   -4.6572   14.3738 C   0  0  0  0  0  0
   -5.5599   -4.7164   14.3170 C   0  0  0  0  0  0
   -4.8181   -5.0206   13.0340 C   0  0  0  0  0  0
   -5.6967   -5.5963   11.9278 C   0  0  0  0  0  0
   -7.8133   -4.9937   13.1420 C   0  0  0  0  0  0
   -6.9971   -4.7972   11.8287 C   0  0  0  0  0  0
   -9.9823   -4.5960   11.7861 C   0  0  0  0  0  0
   -9.1848   -4.2705   13.0639 C   0  0  0  0  0  0
   -9.1449   -4.3811   10.5189 C   0  0  0  0  0  0
   -7.8625   -5.2292   10.6445 C   0  0  0  0  0  0
   -7.2737   -5.1948    9.2368 C   0  0  0  0  0  0
   -8.5081   -5.1823    8.3163 C   0  0  0  0  0  0
   -9.7319   -5.0060    9.2370 C   0  0  0  0  0  0
  -10.7349   -4.2059    8.6307 O   0  0  0  0  0  0
   -4.6279   -3.9006   17.7836 O   0  0  0  0  0  0
   -8.9015   -2.8634   10.3176 C   0  0  0  0  0  0
   -7.4557   -3.7977   17.9861 N   0  3  0  0  0  0
   -8.1990   -4.6728   18.4686 O   0  0  0  0  0  0
   -7.2758   -2.6720   18.4868 O   0  5  0  0  0  0
   -3.7001   -4.4770   15.3930 H   0  0  0  0  0  0
   -8.6577   -4.3517   15.7162 H   0  0  0  0  0  0
   -4.0029   -5.7260   13.2360 H   0  0  0  0  0  0
   -4.3645   -4.0858   12.6803 H   0  0  0  0  0  0
   -5.9178   -6.6510   12.1369 H   0  0  0  0  0  0
   -5.1399   -5.5684   10.9846 H   0  0  0  0  0  0
   -8.0365   -6.0679   13.2371 H   0  0  0  0  0  0
   -6.7264   -3.7393   11.7182 H   0  0  0  0  0  0
  -10.8941   -3.9875   11.7558 H   0  0  0  0  0  0
  -10.3126   -5.6416   11.8425 H   0  0  0  0  0  0
   -9.0377   -3.1870   13.1475 H   0  0  0  0  0  0
   -9.8132   -4.5584   13.9147 H   0  0  0  0  0  0
   -8.1521   -6.2778   10.8267 H   0  0  0  0  0  0
   -6.6382   -6.0634    9.0366 H   0  0  0  0  0  0
   -6.6678   -4.2962    9.0760 H   0  0  0  0  0  0
   -8.5896   -6.1228    7.7601 H   0  0  0  0  0  0
   -8.4320   -4.3796    7.5742 H   0  0  0  0  0  0
  -10.1717   -5.9878    9.4546 H   0  0  0  0  0  0
  -10.9800   -4.6594    7.7965 H   0  0  0  0  0  0
   -3.6819   -3.9690   17.5322 H   0  0  0  0  0  0
   -8.3299   -2.6482    9.4094 H   0  0  0  0  0  0
   -8.3595   -2.4073   11.1501 H   0  0  0  0  0  0
   -9.8549   -2.3292   10.2311 H   0  0  0  0  0  0
  1  2  2  0  0  0
  1  4  1  0  0  0
  1 21  1  0  0  0
  2  3  1  0  0  0
  2 19  1  0  0  0
  3  6  2  0  0  0
  3 24  1  0  0  0
  4  5  2  0  0  0
  4 25  1  0  0  0
  5  6  1  0  0  0
  5  9  1  0  0  0
  6  7  1  0  0  0
  7  8  1  0  0  0
  7 26  1  0  0  0
  7 27  1  0  0  0
  8 10  1  0  0  0
  8 28  1  0  0  0
  8 29  1  0  0  0
  9 10  1  0  0  0
  9 12  1  0  0  0
  9 30  1  0  0  0
 10 14  1  0  0  0
 10 31  1  0  0  0
 11 12  1  0  0  0
 11 13  1  0  0  0
 11 32  1  0  0  0
 11 33  1  0  0  0
 12 34  1  0  0  0
 12 35  1  0  0  0
 13 14  1  0  0  0
 13 17  1  0  0  0
 13 20  1  0  0  0
 14 15  1  0  0  0
 14 36  1  0  0  0
 15 16  1  0  0  0
 15 37  1  0  0  0
 15 38  1  0  0  0
 16 17  1  0  0  0
 16 39  1  0  0  0
 16 40  1  0  0  0
 17 18  1  0  0  0
 17 41  1  0  0  0
 18 42  1  0  0  0
 19 43  1  0  0  0
 20 44  1  0  0  0
 20 45  1  0  0  0
 20 46  1  0  0  0
 21 22  2  0  0  0
 21 23  1  0  0  0
M  CHG  2  21   1  23  -1
M  END
>  <Name>
lit-200

>  <Family>
A.1

>  <RBA>
0.03,1

>  <RBA_avg>
0.520000

>  <Method>
RUC*,MCF-7

>  <set>
0

$$$$
lit-201
  Cerius2 12180216413D 1   1.00000                          
 Structure written by MMmdl.
 46 49  0  0  0  0  0  0  0  0999 V2000
   -6.8056   -4.1284   16.7661 C   0  0  0  0  0  0
   -5.4119   -4.1349   16.6583 C   0  0  0  0  0  0
   -4.7859   -4.4397   15.4526 C   0  0  0  0  0  0
   -7.5617   -4.3766   15.6149 C   0  0  0  0  0  0
   -6.9597   -4.6663   14.3727 C   0  0  0  0  0  0
   -5.5508   -4.7266   14.3088 C   0  0  0  0  0  0
   -4.8115   -5.0331   13.0268 C   0  0  0  0  0  0
   -5.6943   -5.6060   11.9223 C   0  0  0  0  0  0
   -7.8065   -4.9979   13.1433 C   0  0  0  0  0  0
   -6.9930   -4.8030   11.8274 C   0  0  0  0  0  0
   -9.9775   -4.5914   11.7920 C   0  0  0  0  0  0
   -9.1761   -4.2705   13.0689 C   0  0  0  0  0  0
   -9.1420   -4.3778   10.5234 C   0  0  0  0  0  0
   -7.8627   -5.2309   10.6450 C   0  0  0  0  0  0
   -7.2769   -5.1971    9.2361 C   0  0  0  0  0  0
   -8.5132   -5.1780    8.3182 C   0  0  0  0  0  0
   -9.7344   -4.9986    9.2418 C   0  0  0  0  0  0
  -10.7354   -4.1934    8.6388 O   0  0  0  0  0  0
   -4.6625   -3.8489   17.7709 O   0  0  0  0  0  0
   -8.8934   -2.8608   10.3239 C   0  0  0  0  0  0
   -7.4342   -3.7700   17.9509 N   0  0  0  0  0  0
   -3.6992   -4.4561   15.3882 H   0  0  0  0  0  0
   -8.6452   -4.3504   15.7054 H   0  0  0  0  0  0
   -3.9983   -5.7409   13.2281 H   0  0  0  0  0  0
   -4.3557   -4.1000   12.6715 H   0  0  0  0  0  0
   -5.9179   -6.6602   12.1313 H   0  0  0  0  0  0
   -5.1400   -5.5790   10.9777 H   0  0  0  0  0  0
   -8.0329   -6.0714   13.2376 H   0  0  0  0  0  0
   -6.7191   -3.7458   11.7171 H   0  0  0  0  0  0
  -10.8872   -3.9796   11.7645 H   0  0  0  0  0  0
  -10.3112   -5.6359   11.8478 H   0  0  0  0  0  0
   -9.0258   -3.1876   13.1541 H   0  0  0  0  0  0
   -9.8043   -4.5584   13.9197 H   0  0  0  0  0  0
   -8.1557   -6.2786   10.8268 H   0  0  0  0  0  0
   -6.6455   -6.0681    9.0334 H   0  0  0  0  0  0
   -6.6676   -4.3008    9.0752 H   0  0  0  0  0  0
   -8.5996   -6.1173    7.7606 H   0  0  0  0  0  0
   -8.4354   -4.3744    7.5772 H   0  0  0  0  0  0
  -10.1774   -5.9788    9.4588 H   0  0  0  0  0  0
  -10.9830   -4.6440    7.8037 H   0  0  0  0  0  0
   -3.7152   -3.8917   17.5239 H   0  0  0  0  0  0
   -8.3221   -2.6464    9.4153 H   0  0  0  0  0  0
   -8.3487   -2.4077   11.1563 H   0  0  0  0  0  0
   -9.8450   -2.3229   10.2394 H   0  0  0  0  0  0
   -8.4275   -3.9350   18.0849 H   0  0  0  0  0  0
   -6.8644   -3.7097   18.7928 H   0  0  0  0  0  0
  1  2  2  0  0  0
  1  4  1  0  0  0
  1 21  1  0  0  0
  2  3  1  0  0  0
  2 19  1  0  0  0
  3  6  2  0  0  0
  3 22  1  0  0  0
  4  5  2  0  0  0
  4 23  1  0  0  0
  5  6  1  0  0  0
  5  9  1  0  0  0
  6  7  1  0  0  0
  7  8  1  0  0  0
  7 24  1  0  0  0
  7 25  1  0  0  0
  8 10  1  0  0  0
  8 26  1  0  0  0
  8 27  1  0  0  0
  9 10  1  0  0  0
  9 12  1  0  0  0
  9 28  1  0  0  0
 10 14  1  0  0  0
 10 29  1  0  0  0
 11 12  1  0  0  0
 11 13  1  0  0  0
 11 30  1  0  0  0
 11 31  1  0  0  0
 12 32  1  0  0  0
 12 33  1  0  0  0
 13 14  1  0  0  0
 13 17  1  0  0  0
 13 20  1  0  0  0
 14 15  1  0  0  0
 14 34  1  0  0  0
 15 16  1  0  0  0
 15 35  1  0  0  0
 15 36  1  0  0  0
 16 17  1  0  0  0
 16 37  1  0  0  0
 16 38  1  0  0  0
 17 18  1  0  0  0
 17 39  1  0  0  0
 18 40  1  0  0  0
 19 41  1  0  0  0
 20 42  1  0  0  0
 20 43  1  0  0  0
 20 44  1  0  0  0
 21 45  1  0  0  0
 21 46  1  0  0  0
M  END
>  <Name>
lit-201

>  <Family>
A.1

>  <RBA>
10,12,8.5

>  <RBA_avg>
10.000000

>  <Method>
RUC,MCF-7,MCF-7

>  <set>
0

$$$$
lit-202
  Cerius2 12180216413D 1   1.00000                          
 Structure written by MMmdl.
 51 54  0  0  0  0  0  0  0  0999 V2000
   -6.8087   -4.1132   16.7682 C   0  0  0  0  0  0
   -5.4176   -4.1394   16.6784 C   0  0  0  0  0  0
   -4.8002   -4.4431   15.4624 C   0  0  0  0  0  0
   -7.5619   -4.3783   15.6127 C   0  0  0  0  0  0
   -6.9637   -4.6629   14.3707 C   0  0  0  0  0  0
   -5.5586   -4.7220   14.3119 C   0  0  0  0  0  0
   -4.8145   -5.0238   13.0317 C   0  0  0  0  0  0
   -5.6927   -5.5981   11.9239 C   0  0  0  0  0  0
   -7.8085   -4.9953   13.1415 C   0  0  0  0  0  0
   -6.9938   -4.7991   11.8268 C   0  0  0  0  0  0
   -9.9785   -4.5915   11.7894 C   0  0  0  0  0  0
   -9.1780   -4.2683   13.0662 C   0  0  0  0  0  0
   -9.1426   -4.3790   10.5206 C   0  0  0  0  0  0
   -7.8618   -5.2299   10.6442 C   0  0  0  0  0  0
   -7.2753   -5.1971    9.2356 C   0  0  0  0  0  0
   -8.5114   -5.1823    8.3173 C   0  0  0  0  0  0
   -9.7333   -5.0029    9.2399 C   0  0  0  0  0  0
  -10.7351   -4.2003    8.6350 O   0  0  0  0  0  0
   -4.6226   -3.8715   17.7571 O   0  0  0  0  0  0
   -8.8962   -2.8619   10.3186 C   0  0  0  0  0  0
   -7.5887   -3.8521   17.8623 O   0  0  0  0  0  0
   -8.0520   -3.4908   20.1680 C   0  0  0  0  0  0
   -6.9577   -3.6668   19.1289 C   0  0  0  0  0  0
   -3.7128   -4.4671   15.3942 H   0  0  0  0  0  0
   -8.6463   -4.3672   15.7083 H   0  0  0  0  0  0
   -3.9996   -5.7296   13.2338 H   0  0  0  0  0  0
   -4.3605   -4.0887   12.6792 H   0  0  0  0  0  0
   -5.9137   -6.6531   12.1311 H   0  0  0  0  0  0
   -5.1363   -5.5681   10.9805 H   0  0  0  0  0  0
   -8.0342   -6.0691   13.2354 H   0  0  0  0  0  0
   -6.7227   -3.7412   11.7162 H   0  0  0  0  0  0
  -10.8886   -3.9803   11.7607 H   0  0  0  0  0  0
  -10.3115   -5.6361   11.8463 H   0  0  0  0  0  0
   -9.0277   -3.1852   13.1497 H   0  0  0  0  0  0
   -9.8061   -4.5546   13.9174 H   0  0  0  0  0  0
   -8.1532   -6.2779   10.8272 H   0  0  0  0  0  0
   -6.6418   -6.0669    9.0345 H   0  0  0  0  0  0
   -6.6680   -4.2997    9.0734 H   0  0  0  0  0  0
   -8.5959   -6.1232    7.7618 H   0  0  0  0  0  0
   -8.4348   -4.3804    7.5744 H   0  0  0  0  0  0
  -10.1753   -5.9833    9.4585 H   0  0  0  0  0  0
  -10.9823   -4.6531    7.8009 H   0  0  0  0  0  0
   -3.6829   -3.9371   17.4866 H   0  0  0  0  0  0
   -8.3249   -2.6481    9.4099 H   0  0  0  0  0  0
   -8.3527   -2.4064   11.1504 H   0  0  0  0  0  0
   -9.8486   -2.3257   10.2326 H   0  0  0  0  0  0
   -7.6240   -3.3418   21.1633 H   0  0  0  0  0  0
   -8.7059   -4.3688   20.1917 H   0  0  0  0  0  0
   -8.6829   -2.6302   19.9217 H   0  0  0  0  0  0
   -6.3393   -2.7630   19.1154 H   0  0  0  0  0  0
   -6.3618   -4.5472   19.3937 H   0  0  0  0  0  0
  1  2  2  0  0  0
  1  4  1  0  0  0
  1 21  1  0  0  0
  2  3  1  0  0  0
  2 19  1  0  0  0
  3  6  2  0  0  0
  3 24  1  0  0  0
  4  5  2  0  0  0
  4 25  1  0  0  0
  5  6  1  0  0  0
  5  9  1  0  0  0
  6  7  1  0  0  0
  7  8  1  0  0  0
  7 26  1  0  0  0
  7 27  1  0  0  0
  8 10  1  0  0  0
  8 28  1  0  0  0
  8 29  1  0  0  0
  9 10  1  0  0  0
  9 12  1  0  0  0
  9 30  1  0  0  0
 10 14  1  0  0  0
 10 31  1  0  0  0
 11 12  1  0  0  0
 11 13  1  0  0  0
 11 32  1  0  0  0
 11 33  1  0  0  0
 12 34  1  0  0  0
 12 35  1  0  0  0
 13 14  1  0  0  0
 13 17  1  0  0  0
 13 20  1  0  0  0
 14 15  1  0  0  0
 14 36  1  0  0  0
 15 16  1  0  0  0
 15 37  1  0  0  0
 15 38  1  0  0  0
 16 17  1  0  0  0
 16 39  1  0  0  0
 16 40  1  0  0  0
 17 18  1  0  0  0
 17 41  1  0  0  0
 18 42  1  0  0  0
 19 43  1  0  0  0
 20 44  1  0  0  0
 20 45  1  0  0  0
 20 46  1  0  0  0
 21 23  1  0  0  0
 22 23  1  0  0  0
 22 47  1  0  0  0
 22 48  1  0  0  0
 22 49  1  0  0  0
 23 50  1  0  0  0
 23 51  1  0  0  0
M  END
>  <Name>
lit-202

>  <Family>
A.1

>  <RBA>
<0.01

>  <RBA_avg>
0.000000

>  <Method>
RUC*

>  <set>
0

$$$$
lit-203
  Cerius2 12180216413D 1   1.00000                          
 Structure written by MMmdl.
 52 55  0  0  0  0  0  0  0  0999 V2000
   -6.8193   -4.1023   16.7847 C   0  0  0  0  0  0
   -5.4221   -4.1396   16.6724 C   0  0  0  0  0  0
   -4.7998   -4.4437   15.4574 C   0  0  0  0  0  0
   -7.5582   -4.3757   15.6158 C   0  0  0  0  0  0
   -6.9596   -4.6616   14.3704 C   0  0  0  0  0  0
   -5.5559   -4.7214   14.3081 C   0  0  0  0  0  0
   -4.8126   -5.0240   13.0283 C   0  0  0  0  0  0
   -5.6919   -5.5984   11.9216 C   0  0  0  0  0  0
   -7.8064   -4.9951   13.1420 C   0  0  0  0  0  0
   -6.9930   -4.7993   11.8260 C   0  0  0  0  0  0
   -9.9775   -4.5927   11.7899 C   0  0  0  0  0  0
   -9.1767   -4.2692   13.0665 C   0  0  0  0  0  0
   -9.1425   -4.3795   10.5207 C   0  0  0  0  0  0
   -7.8615   -5.2302   10.6438 C   0  0  0  0  0  0
   -7.2756   -5.1970    9.2349 C   0  0  0  0  0  0
   -8.5120   -5.1824    8.3170 C   0  0  0  0  0  0
   -9.7335   -5.0034    9.2401 C   0  0  0  0  0  0
  -10.7358   -4.2010    8.6357 O   0  0  0  0  0  0
   -4.6243   -3.8812   17.7577 O   0  0  0  0  0  0
   -8.8968   -2.8624   10.3191 C   0  0  0  0  0  0
   -7.5356   -3.8291   17.9393 N   0  0  0  0  0  0
   -8.0639   -3.2949   20.2540 C   0  0  0  0  0  0
   -6.9568   -3.5322   19.2381 C   0  0  0  0  0  0
   -3.7126   -4.4699   15.3932 H   0  0  0  0  0  0
   -8.6440   -4.3705   15.6953 H   0  0  0  0  0  0
   -3.9979   -5.7300   13.2302 H   0  0  0  0  0  0
   -4.3584   -4.0892   12.6750 H   0  0  0  0  0  0
   -5.9127   -6.6534   12.1291 H   0  0  0  0  0  0
   -5.1364   -5.5685   10.9777 H   0  0  0  0  0  0
   -8.0314   -6.0688   13.2367 H   0  0  0  0  0  0
   -6.7219   -3.7415   11.7150 H   0  0  0  0  0  0
  -10.8880   -3.9821   11.7615 H   0  0  0  0  0  0
  -10.3100   -5.6376   11.8469 H   0  0  0  0  0  0
   -9.0274   -3.1860   13.1503 H   0  0  0  0  0  0
   -9.8051   -4.5564   13.9174 H   0  0  0  0  0  0
   -8.1526   -6.2783   10.8268 H   0  0  0  0  0  0
   -6.6419   -6.0668    9.0335 H   0  0  0  0  0  0
   -6.6685   -4.2995    9.0727 H   0  0  0  0  0  0
   -8.5964   -6.1231    7.7613 H   0  0  0  0  0  0
   -8.4357   -4.3802    7.5743 H   0  0  0  0  0  0
  -10.1751   -5.9840    9.4587 H   0  0  0  0  0  0
  -10.9830   -4.6535    7.8017 H   0  0  0  0  0  0
   -3.6862   -3.9541   17.4861 H   0  0  0  0  0  0
   -8.3259   -2.6482    9.4102 H   0  0  0  0  0  0
   -8.3530   -2.4069   11.1508 H   0  0  0  0  0  0
   -9.8493   -2.3265   10.2337 H   0  0  0  0  0  0
   -8.5534   -3.8217   17.8776 H   0  0  0  0  0  0
   -7.6380   -3.0715   21.2370 H   0  0  0  0  0  0
   -8.7044   -4.1780   20.3503 H   0  0  0  0  0  0
   -8.6971   -2.4526   19.9552 H   0  0  0  0  0  0
   -6.3359   -2.6314   19.1815 H   0  0  0  0  0  0
   -6.3420   -4.3711   19.5821 H   0  0  0  0  0  0
  1  2  2  0  0  0
  1  4  1  0  0  0
  1 21  1  0  0  0
  2  3  1  0  0  0
  2 19  1  0  0  0
  3  6  2  0  0  0
  3 24  1  0  0  0
  4  5  2  0  0  0
  4 25  1  0  0  0
  5  6  1  0  0  0
  5  9  1  0  0  0
  6  7  1  0  0  0
  7  8  1  0  0  0
  7 26  1  0  0  0
  7 27  1  0  0  0
  8 10  1  0  0  0
  8 28  1  0  0  0
  8 29  1  0  0  0
  9 10  1  0  0  0
  9 12  1  0  0  0
  9 30  1  0  0  0
 10 14  1  0  0  0
 10 31  1  0  0  0
 11 12  1  0  0  0
 11 13  1  0  0  0
 11 32  1  0  0  0
 11 33  1  0  0  0
 12 34  1  0  0  0
 12 35  1  0  0  0
 13 14  1  0  0  0
 13 17  1  0  0  0
 13 20  1  0  0  0
 14 15  1  0  0  0
 14 36  1  0  0  0
 15 16  1  0  0  0
 15 37  1  0  0  0
 15 38  1  0  0  0
 16 17  1  0  0  0
 16 39  1  0  0  0
 16 40  1  0  0  0
 17 18  1  0  0  0
 17 41  1  0  0  0
 18 42  1  0  0  0
 19 43  1  0  0  0
 20 44  1  0  0  0
 20 45  1  0  0  0
 20 46  1  0  0  0
 21 23  1  0  0  0
 21 47  1  0  0  0
 22 23  1  0  0  0
 22 48  1  0  0  0
 22 49  1  0  0  0
 22 50  1  0  0  0
 23 51  1  0  0  0
 23 52  1  0  0  0
M  END
>  <Name>
lit-203

>  <Family>
A.1

>  <RBA>
0.350000

>  <RBA_avg>
0.350000

>  <Method>
RUC*

>  <set>
2

$$$$
lit-204
  Cerius2 12180216413D 1   1.00000                          
 Structure written by MMmdl.
 51 54  0  0  0  0  0  0  0  0999 V2000
   -6.8035   -4.0954   16.7579 C   0  0  0  0  0  0
   -5.4097   -4.1392   16.6694 C   0  0  0  0  0  0
   -4.7903   -4.4443   15.4592 C   0  0  0  0  0  0
   -7.5654   -4.3710   15.6126 C   0  0  0  0  0  0
   -6.9632   -4.6588   14.3719 C   0  0  0  0  0  0
   -5.5550   -4.7188   14.3112 C   0  0  0  0  0  0
   -4.8135   -5.0226   13.0295 C   0  0  0  0  0  0
   -5.6932   -5.5975   11.9237 C   0  0  0  0  0  0
   -7.8080   -4.9944   13.1425 C   0  0  0  0  0  0
   -6.9941   -4.7982   11.8272 C   0  0  0  0  0  0
   -9.9790   -4.5948   11.7897 C   0  0  0  0  0  0
   -9.1792   -4.2703   13.0666 C   0  0  0  0  0  0
   -9.1436   -4.3805   10.5212 C   0  0  0  0  0  0
   -7.8618   -5.2297   10.6446 C   0  0  0  0  0  0
   -7.2753   -5.1956    9.2360 C   0  0  0  0  0  0
   -8.5113   -5.1824    8.3175 C   0  0  0  0  0  0
   -9.7333   -5.0048    9.2403 C   0  0  0  0  0  0
  -10.7364   -4.2037    8.6355 O   0  0  0  0  0  0
   -4.6399   -3.8950   17.7755 O   0  0  0  0  0  0
   -8.8992   -2.8630   10.3198 C   0  0  0  0  0  0
   -7.6723   -3.7371   18.2825 S   0  0  0  0  0  0
   -6.7064   -3.0399   20.7523 C   0  0  0  0  0  0
   -6.2342   -3.4710   19.3753 C   0  0  0  0  0  0
   -3.7036   -4.4771   15.3943 H   0  0  0  0  0  0
   -8.6497   -4.3623   15.7021 H   0  0  0  0  0  0
   -3.9986   -5.7286   13.2309 H   0  0  0  0  0  0
   -4.3595   -4.0881   12.6756 H   0  0  0  0  0  0
   -5.9142   -6.6524   12.1321 H   0  0  0  0  0  0
   -5.1378   -5.5687   10.9798 H   0  0  0  0  0  0
   -8.0316   -6.0685   13.2377 H   0  0  0  0  0  0
   -6.7232   -3.7404   11.7163 H   0  0  0  0  0  0
  -10.8903   -3.9854   11.7611 H   0  0  0  0  0  0
  -10.3101   -5.6400   11.8465 H   0  0  0  0  0  0
   -9.0313   -3.1869   13.1506 H   0  0  0  0  0  0
   -9.8073   -4.5585   13.9174 H   0  0  0  0  0  0
   -8.1519   -6.2780   10.8273 H   0  0  0  0  0  0
   -6.6406   -6.0646    9.0347 H   0  0  0  0  0  0
   -6.6691   -4.2973    9.0741 H   0  0  0  0  0  0
   -8.5945   -6.1232    7.7620 H   0  0  0  0  0  0
   -8.4358   -4.3802    7.5749 H   0  0  0  0  0  0
  -10.1739   -5.9860    9.4586 H   0  0  0  0  0  0
  -10.9834   -4.6569    7.8018 H   0  0  0  0  0  0
   -3.6961   -3.9851   17.5279 H   0  0  0  0  0  0
   -8.3287   -2.6481    9.4109 H   0  0  0  0  0  0
   -8.3558   -2.4073   11.1516 H   0  0  0  0  0  0
   -9.8524   -2.3279   10.2346 H   0  0  0  0  0  0
   -5.8439   -2.8762   21.4070 H   0  0  0  0  0  0
   -7.3355   -3.8052   21.2195 H   0  0  0  0  0  0
   -7.2709   -2.1022   20.7090 H   0  0  0  0  0  0
   -5.5914   -2.6960   18.9455 H   0  0  0  0  0  0
   -5.6537   -4.3945   19.4584 H   0  0  0  0  0  0
  1  2  2  0  0  0
  1  4  1  0  0  0
  1 21  1  0  0  0
  2  3  1  0  0  0
  2 19  1  0  0  0
  3  6  2  0  0  0
  3 24  1  0  0  0
  4  5  2  0  0  0
  4 25  1  0  0  0
  5  6  1  0  0  0
  5  9  1  0  0  0
  6  7  1  0  0  0
  7  8  1  0  0  0
  7 26  1  0  0  0
  7 27  1  0  0  0
  8 10  1  0  0  0
  8 28  1  0  0  0
  8 29  1  0  0  0
  9 10  1  0  0  0
  9 12  1  0  0  0
  9 30  1  0  0  0
 10 14  1  0  0  0
 10 31  1  0  0  0
 11 12  1  0  0  0
 11 13  1  0  0  0
 11 32  1  0  0  0
 11 33  1  0  0  0
 12 34  1  0  0  0
 12 35  1  0  0  0
 13 14  1  0  0  0
 13 17  1  0  0  0
 13 20  1  0  0  0
 14 15  1  0  0  0
 14 36  1  0  0  0
 15 16  1  0  0  0
 15 37  1  0  0  0
 15 38  1  0  0  0
 16 17  1  0  0  0
 16 39  1  0  0  0
 16 40  1  0  0  0
 17 18  1  0  0  0
 17 41  1  0  0  0
 18 42  1  0  0  0
 19 43  1  0  0  0
 20 44  1  0  0  0
 20 45  1  0  0  0
 20 46  1  0  0  0
 21 23  1  0  0  0
 22 23  1  0  0  0
 22 47  1  0  0  0
 22 48  1  0  0  0
 22 49  1  0  0  0
 23 50  1  0  0  0
 23 51  1  0  0  0
M  END
>  <Name>
lit-204

>  <Family>
A.1

>  <RBA>
0.290000

>  <RBA_avg>
0.290000

>  <Method>
RUC*

>  <set>
1

$$$$
lit-205
  Cerius2 12180216413D 1   1.00000                          
 Structure written by MMmdl.
 51 54  0  0  0  0  0  0  0  0999 V2000
   -6.8057   -4.0883   16.7626 C   0  0  0  0  0  0
   -5.4112   -4.1372   16.6701 C   0  0  0  0  0  0
   -4.7916   -4.4424   15.4588 C   0  0  0  0  0  0
   -7.5636   -4.3688   15.6124 C   0  0  0  0  0  0
   -6.9624   -4.6574   14.3711 C   0  0  0  0  0  0
   -5.5550   -4.7169   14.3102 C   0  0  0  0  0  0
   -4.8131   -5.0212   13.0290 C   0  0  0  0  0  0
   -5.6928   -5.5968   11.9233 C   0  0  0  0  0  0
   -7.8075   -4.9939   13.1423 C   0  0  0  0  0  0
   -6.9939   -4.7980   11.8267 C   0  0  0  0  0  0
   -9.9789   -4.5956   11.7895 C   0  0  0  0  0  0
   -9.1792   -4.2705   13.0662 C   0  0  0  0  0  0
   -9.1437   -4.3813   10.5209 C   0  0  0  0  0  0
   -7.8617   -5.2301   10.6443 C   0  0  0  0  0  0
   -7.2754   -5.1961    9.2356 C   0  0  0  0  0  0
   -8.5115   -5.1830    8.3172 C   0  0  0  0  0  0
   -9.7335   -5.0058    9.2402 C   0  0  0  0  0  0
  -10.7368   -4.2049    8.6355 O   0  0  0  0  0  0
   -4.6376   -3.9082   17.7767 O   0  0  0  0  0  0
   -8.8998   -2.8636   10.3193 C   0  0  0  0  0  0
   -7.5394   -3.8048   18.0068 C   0  0  0  0  0  0
   -7.6806   -3.2108   20.4336 C   0  0  0  0  0  0
   -6.9398   -3.5224   19.1739 C   0  0  0  0  0  0
   -3.7049   -4.4781   15.3949 H   0  0  0  0  0  0
   -8.6486   -4.3580   15.7017 H   0  0  0  0  0  0
   -3.9982   -5.7268   13.2307 H   0  0  0  0  0  0
   -4.3593   -4.0867   12.6745 H   0  0  0  0  0  0
   -5.9134   -6.6516   12.1321 H   0  0  0  0  0  0
   -5.1374   -5.5681   10.9794 H   0  0  0  0  0  0
   -8.0306   -6.0679   13.2381 H   0  0  0  0  0  0
   -6.7233   -3.7401   11.7153 H   0  0  0  0  0  0
  -10.8904   -3.9867   11.7608 H   0  0  0  0  0  0
  -10.3095   -5.6411   11.8467 H   0  0  0  0  0  0
   -9.0319   -3.1871   13.1500 H   0  0  0  0  0  0
   -9.8069   -4.5589   13.9172 H   0  0  0  0  0  0
   -8.1514   -6.2786   10.8273 H   0  0  0  0  0  0
   -6.6406   -6.0650    9.0343 H   0  0  0  0  0  0
   -6.6694   -4.2977    9.0737 H   0  0  0  0  0  0
   -8.5945   -6.1237    7.7614 H   0  0  0  0  0  0
   -8.4362   -4.3806    7.5749 H   0  0  0  0  0  0
  -10.1737   -5.9871    9.4585 H   0  0  0  0  0  0
  -10.9837   -4.6582    7.8018 H   0  0  0  0  0  0
   -3.6945   -3.9900   17.5244 H   0  0  0  0  0  0
   -8.3296   -2.6486    9.4102 H   0  0  0  0  0  0
   -8.3561   -2.4077   11.1509 H   0  0  0  0  0  0
   -9.8530   -2.3289   10.2346 H   0  0  0  0  0  0
   -8.6250   -3.7979   17.9242 H   0  0  0  0  0  0
   -7.4158   -3.9351   21.2099 H   0  0  0  0  0  0
   -8.7658   -3.2409   20.2942 H   0  0  0  0  0  0
   -7.4093   -2.2116   20.7878 H   0  0  0  0  0  0
   -5.8529   -3.5095   19.2436 H   0  0  0  0  0  0
  1  2  2  0  0  0
  1  4  1  0  0  0
  1 21  1  0  0  0
  2  3  1  0  0  0
  2 19  1  0  0  0
  3  6  2  0  0  0
  3 24  1  0  0  0
  4  5  2  0  0  0
  4 25  1  0  0  0
  5  6  1  0  0  0
  5  9  1  0  0  0
  6  7  1  0  0  0
  7  8  1  0  0  0
  7 26  1  0  0  0
  7 27  1  0  0  0
  8 10  1  0  0  0
  8 28  1  0  0  0
  8 29  1  0  0  0
  9 10  1  0  0  0
  9 12  1  0  0  0
  9 30  1  0  0  0
 10 14  1  0  0  0
 10 31  1  0  0  0
 11 12  1  0  0  0
 11 13  1  0  0  0
 11 32  1  0  0  0
 11 33  1  0  0  0
 12 34  1  0  0  0
 12 35  1  0  0  0
 13 14  1  0  0  0
 13 17  1  0  0  0
 13 20  1  0  0  0
 14 15  1  0  0  0
 14 36  1  0  0  0
 15 16  1  0  0  0
 15 37  1  0  0  0
 15 38  1  0  0  0
 16 17  1  0  0  0
 16 39  1  0  0  0
 16 40  1  0  0  0
 17 18  1  0  0  0
 17 41  1  0  0  0
 18 42  1  0  0  0
 19 43  1  0  0  0
 20 44  1  0  0  0
 20 45  1  0  0  0
 20 46  1  0  0  0
 21 23  2  0  0  0
 21 47  1  0  0  0
 22 23  1  0  0  0
 22 48  1  0  0  0
 22 49  1  0  0  0
 22 50  1  0  0  0
 23 51  1  0  0  0
M  END
>  <Name>
lit-205

>  <Family>
A.1

>  <RBA>
<0.01

>  <RBA_avg>
0.000000

>  <Method>
RUC*

>  <set>
2

$$$$
lit-206
  Cerius2 12180216413D 1   1.00000                          
 Structure written by MMmdl.
 47 50  0  0  0  0  0  0  0  0999 V2000
   -6.7929   -4.1283   16.7382 C   0  0  0  0  0  0
   -5.4066   -4.1418   16.6709 C   0  0  0  0  0  0
   -4.7414   -4.3897   15.4614 C   0  0  0  0  0  0
   -7.5490   -4.3825   15.5974 C   0  0  0  0  0  0
   -6.9355   -4.6533   14.3634 C   0  0  0  0  0  0
   -5.5166   -4.6968   14.3056 C   0  0  0  0  0  0
   -4.8095   -5.0295   13.0030 C   0  0  0  0  0  0
   -5.7023   -5.6159   11.9144 C   0  0  0  0  0  0
   -7.7916   -4.9882   13.1382 C   0  0  0  0  0  0
   -6.9910   -4.8046   11.8168 C   0  0  0  0  0  0
   -9.9720   -4.5777   11.7989 C   0  0  0  0  0  0
   -9.1590   -4.2534   13.0677 C   0  0  0  0  0  0
   -9.1449   -4.3769   10.5230 C   0  0  0  0  0  0
   -7.8698   -5.2363   10.6427 C   0  0  0  0  0  0
   -7.2927   -5.2155    9.2300 C   0  0  0  0  0  0
   -8.5347   -5.1964    8.3198 C   0  0  0  0  0  0
   -9.7489   -5.0035    9.2499 C   0  0  0  0  0  0
  -10.7494   -4.1973    8.6475 O   0  0  0  0  0  0
   -4.7579   -3.9096   17.8521 O   0  0  0  0  0  0
   -8.8894   -2.8627   10.3113 C   0  0  0  0  0  0
   -3.2323   -4.3732   15.4053 C   0  0  0  0  0  0
   -7.2947   -3.9326   17.6837 H   0  0  0  0  0  0
   -8.6314   -4.3823   15.7043 H   0  0  0  0  0  0
   -4.0033   -5.7483   13.1915 H   0  0  0  0  0  0
   -4.3574   -4.1050   12.6215 H   0  0  0  0  0  0
   -5.9308   -6.6652   12.1415 H   0  0  0  0  0  0
   -5.1536   -5.6078   10.9659 H   0  0  0  0  0  0
   -8.0236   -6.0598   13.2411 H   0  0  0  0  0  0
   -6.7113   -3.7500   11.6971 H   0  0  0  0  0  0
  -10.8782   -3.9606   11.7742 H   0  0  0  0  0  0
  -10.3114   -5.6197   11.8639 H   0  0  0  0  0  0
   -9.0016   -3.1708   13.1449 H   0  0  0  0  0  0
   -9.7844   -4.5317   13.9235 H   0  0  0  0  0  0
   -8.1675   -6.2811   10.8334 H   0  0  0  0  0  0
   -6.6672   -6.0913    9.0294 H   0  0  0  0  0  0
   -6.6795   -4.3237    9.0589 H   0  0  0  0  0  0
   -8.6297   -6.1391    7.7694 H   0  0  0  0  0  0
   -8.4574   -4.3985    7.5727 H   0  0  0  0  0  0
  -10.1960   -5.9798    9.4767 H   0  0  0  0  0  0
  -11.0055   -4.6529    7.8178 H   0  0  0  0  0  0
   -3.8228   -4.1831   17.7700 H   0  0  0  0  0  0
   -8.3230   -2.6578    9.3975 H   0  0  0  0  0  0
   -8.3368   -2.4066   11.1368 H   0  0  0  0  0  0
   -9.8387   -2.3204   10.2292 H   0  0  0  0  0  0
   -2.8216   -3.6045   16.0683 H   0  0  0  0  0  0
   -2.8554   -4.1228   14.4100 H   0  0  0  0  0  0
   -2.8380   -5.3506   15.6994 H   0  0  0  0  0  0
  1  2  2  0  0  0
  1  4  1  0  0  0
  1 22  1  0  0  0
  2  3  1  0  0  0
  2 19  1  0  0  0
  3  6  2  0  0  0
  3 21  1  0  0  0
  4  5  2  0  0  0
  4 23  1  0  0  0
  5  6  1  0  0  0
  5  9  1  0  0  0
  6  7  1  0  0  0
  7  8  1  0  0  0
  7 24  1  0  0  0
  7 25  1  0  0  0
  8 10  1  0  0  0
  8 26  1  0  0  0
  8 27  1  0  0  0
  9 10  1  0  0  0
  9 12  1  0  0  0
  9 28  1  0  0  0
 10 14  1  0  0  0
 10 29  1  0  0  0
 11 12  1  0  0  0
 11 13  1  0  0  0
 11 30  1  0  0  0
 11 31  1  0  0  0
 12 32  1  0  0  0
 12 33  1  0  0  0
 13 14  1  0  0  0
 13 17  1  0  0  0
 13 20  1  0  0  0
 14 15  1  0  0  0
 14 34  1  0  0  0
 15 16  1  0  0  0
 15 35  1  0  0  0
 15 36  1  0  0  0
 16 17  1  0  0  0
 16 37  1  0  0  0
 16 38  1  0  0  0
 17 18  1  0  0  0
 17 39  1  0  0  0
 18 40  1  0  0  0
 19 41  1  0  0  0
 20 42  1  0  0  0
 20 43  1  0  0  0
 20 44  1  0  0  0
 21 45  1  0  0  0
 21 46  1  0  0  0
 21 47  1  0  0  0
M  END
>  <Name>
lit-206

>  <Family>
A.1

>  <RBA>
10.000000

>  <RBA_avg>
10.000000

>  <Method>
RUC

>  <set>
0

$$$$
lit-207
  Cerius2 12180216413D 1   1.00000                          
 Structure written by MMmdl.
 44 47  0  0  0  0  0  0  0  0999 V2000
   -6.7904   -4.1024   16.7496 C   0  0  0  0  0  0
   -5.4092   -4.1375   16.6634 C   0  0  0  0  0  0
   -4.7954   -4.4463   15.4542 C   0  0  0  0  0  0
   -7.5585   -4.3701   15.6116 C   0  0  0  0  0  0
   -6.9587   -4.6630   14.3703 C   0  0  0  0  0  0
   -5.5484   -4.7266   14.3053 C   0  0  0  0  0  0
   -4.8087   -5.0337   13.0271 C   0  0  0  0  0  0
   -5.6920   -5.6030   11.9205 C   0  0  0  0  0  0
   -7.8051   -4.9982   13.1423 C   0  0  0  0  0  0
   -6.9919   -4.8014   11.8267 C   0  0  0  0  0  0
   -9.9772   -4.5957   11.7936 C   0  0  0  0  0  0
   -9.1757   -4.2733   13.0698 C   0  0  0  0  0  0
   -9.1431   -4.3795   10.5244 C   0  0  0  0  0  0
   -7.8615   -5.2299   10.6445 C   0  0  0  0  0  0
   -7.2770   -5.1936    9.2351 C   0  0  0  0  0  0
   -8.5142   -5.1768    8.3183 C   0  0  0  0  0  0
   -9.7349   -5.0008    9.2429 C   0  0  0  0  0  0
  -10.7383   -4.1978    8.6414 O   0  0  0  0  0  0
   -4.6772   -3.8687   17.7853 O   0  0  0  0  0  0
   -8.8978   -2.8618   10.3257 C   0  0  0  0  0  0
   -3.4542   -4.4752   15.3970 F   0  0  0  0  0  0
   -7.2799   -3.8728   17.6932 H   0  0  0  0  0  0
   -8.6411   -4.3510   15.7223 H   0  0  0  0  0  0
   -3.9986   -5.7454   13.2275 H   0  0  0  0  0  0
   -4.3487   -4.1023   12.6729 H   0  0  0  0  0  0
   -5.9149   -6.6580   12.1264 H   0  0  0  0  0  0
   -5.1375   -5.5734   10.9760 H   0  0  0  0  0  0
   -8.0290   -6.0722   13.2373 H   0  0  0  0  0  0
   -6.7193   -3.7438   11.7169 H   0  0  0  0  0  0
  -10.8883   -3.9859   11.7670 H   0  0  0  0  0  0
  -10.3085   -5.6410   11.8492 H   0  0  0  0  0  0
   -9.0271   -3.1901   13.1547 H   0  0  0  0  0  0
   -9.8017   -4.5621   13.9220 H   0  0  0  0  0  0
   -8.1523   -6.2783   10.8256 H   0  0  0  0  0  0
   -6.6437   -6.0629    9.0312 H   0  0  0  0  0  0
   -6.6700   -4.2958    9.0744 H   0  0  0  0  0  0
   -8.5987   -6.1159    7.7599 H   0  0  0  0  0  0
   -8.4388   -4.3725    7.5779 H   0  0  0  0  0  0
  -10.1756   -5.9823    9.4597 H   0  0  0  0  0  0
  -10.9861   -4.6486    7.8066 H   0  0  0  0  0  0
   -3.7290   -3.9408   17.5374 H   0  0  0  0  0  0
   -8.3286   -2.6456    9.4162 H   0  0  0  0  0  0
   -8.3525   -2.4083   11.1574 H   0  0  0  0  0  0
   -9.8506   -2.3259   10.2431 H   0  0  0  0  0  0
  1  2  2  0  0  0
  1  4  1  0  0  0
  1 22  1  0  0  0
  2  3  1  0  0  0
  2 19  1  0  0  0
  3  6  2  0  0  0
  3 21  1  0  0  0
  4  5  2  0  0  0
  4 23  1  0  0  0
  5  6  1  0  0  0
  5  9  1  0  0  0
  6  7  1  0  0  0
  7  8  1  0  0  0
  7 24  1  0  0  0
  7 25  1  0  0  0
  8 10  1  0  0  0
  8 26  1  0  0  0
  8 27  1  0  0  0
  9 10  1  0  0  0
  9 12  1  0  0  0
  9 28  1  0  0  0
 10 14  1  0  0  0
 10 29  1  0  0  0
 11 12  1  0  0  0
 11 13  1  0  0  0
 11 30  1  0  0  0
 11 31  1  0  0  0
 12 32  1  0  0  0
 12 33  1  0  0  0
 13 14  1  0  0  0
 13 17  1  0  0  0
 13 20  1  0  0  0
 14 15  1  0  0  0
 14 34  1  0  0  0
 15 16  1  0  0  0
 15 35  1  0  0  0
 15 36  1  0  0  0
 16 17  1  0  0  0
 16 37  1  0  0  0
 16 38  1  0  0  0
 17 18  1  0  0  0
 17 39  1  0  0  0
 18 40  1  0  0  0
 19 41  1  0  0  0
 20 42  1  0  0  0
 20 43  1  0  0  0
 20 44  1  0  0  0
M  END
>  <Name>
lit-207

>  <Family>
A.1

>  <RBA>
182,128

>  <RBA_avg>
155.000000

>  <Method>
RUC,LUC*

>  <set>
0

$$$$
lit-208
  Cerius2 12180216413D 1   1.00000                          
 Structure written by MMmdl.
 44 47  0  0  0  0  0  0  0  0999 V2000
   -6.7992   -4.1003   16.7393 C   0  0  0  0  0  0
   -5.4165   -4.1178   16.6654 C   0  0  0  0  0  0
   -4.7731   -4.4305   15.4634 C   0  0  0  0  0  0
   -7.5529   -4.3832   15.5999 C   0  0  0  0  0  0
   -6.9405   -4.6778   14.3656 C   0  0  0  0  0  0
   -5.5237   -4.7357   14.3058 C   0  0  0  0  0  0
   -4.8070   -5.0672   13.0129 C   0  0  0  0  0  0
   -5.7002   -5.6258   11.9094 C   0  0  0  0  0  0
   -7.7939   -5.0135   13.1393 C   0  0  0  0  0  0
   -6.9898   -4.8131   11.8215 C   0  0  0  0  0  0
   -9.9733   -4.6015   11.7983 C   0  0  0  0  0  0
   -9.1668   -4.2895   13.0737 C   0  0  0  0  0  0
   -9.1434   -4.3772   10.5284 C   0  0  0  0  0  0
   -7.8646   -5.2318   10.6395 C   0  0  0  0  0  0
   -7.2838   -5.1883    9.2287 C   0  0  0  0  0  0
   -8.5232   -5.1611    8.3152 C   0  0  0  0  0  0
   -9.7408   -4.9876    9.2444 C   0  0  0  0  0  0
  -10.7432   -4.1769    8.6511 O   0  0  0  0  0  0
   -4.7247   -3.8223   17.8100 O   0  0  0  0  0  0
   -8.8944   -2.8588   10.3403 C   0  0  0  0  0  0
   -3.0376   -4.4223   15.4428 Cl  0  0  0  0  0  0
   -7.2994   -3.8687   17.6769 H   0  0  0  0  0  0
   -8.6361   -4.3725   15.7038 H   0  0  0  0  0  0
   -4.0164   -5.8035   13.1991 H   0  0  0  0  0  0
   -4.3312   -4.1480   12.6473 H   0  0  0  0  0  0
   -5.9317   -6.6791   12.1148 H   0  0  0  0  0  0
   -5.1483   -5.6013   10.9632 H   0  0  0  0  0  0
   -8.0169   -6.0876   13.2346 H   0  0  0  0  0  0
   -6.7102   -3.7570   11.7154 H   0  0  0  0  0  0
  -10.8837   -3.9904   11.7793 H   0  0  0  0  0  0
  -10.3059   -5.6468   11.8475 H   0  0  0  0  0  0
   -9.0194   -3.2068   13.1668 H   0  0  0  0  0  0
   -9.7917   -4.5859   13.9242 H   0  0  0  0  0  0
   -8.1579   -6.2805   10.8150 H   0  0  0  0  0  0
   -6.6541   -6.0585    9.0173 H   0  0  0  0  0  0
   -6.6740   -4.2915    9.0723 H   0  0  0  0  0  0
   -8.6123   -6.0959    7.7505 H   0  0  0  0  0  0
   -8.4471   -4.3519    7.5803 H   0  0  0  0  0  0
  -10.1841   -5.9690    9.4554 H   0  0  0  0  0  0
  -10.9950   -4.6215    7.8140 H   0  0  0  0  0  0
   -3.7694   -3.8788   17.5872 H   0  0  0  0  0  0
   -8.3274   -2.6375    9.4307 H   0  0  0  0  0  0
   -8.3451   -2.4131   11.1737 H   0  0  0  0  0  0
   -9.8459   -2.3196   10.2648 H   0  0  0  0  0  0
  1  2  2  0  0  0
  1  4  1  0  0  0
  1 22  1  0  0  0
  2  3  1  0  0  0
  2 19  1  0  0  0
  3  6  2  0  0  0
  3 21  1  0  0  0
  4  5  2  0  0  0
  4 23  1  0  0  0
  5  6  1  0  0  0
  5  9  1  0  0  0
  6  7  1  0  0  0
  7  8  1  0  0  0
  7 24  1  0  0  0
  7 25  1  0  0  0
  8 10  1  0  0  0
  8 26  1  0  0  0
  8 27  1  0  0  0
  9 10  1  0  0  0
  9 12  1  0  0  0
  9 28  1  0  0  0
 10 14  1  0  0  0
 10 29  1  0  0  0
 11 12  1  0  0  0
 11 13  1  0  0  0
 11 30  1  0  0  0
 11 31  1  0  0  0
 12 32  1  0  0  0
 12 33  1  0  0  0
 13 14  1  0  0  0
 13 17  1  0  0  0
 13 20  1  0  0  0
 14 15  1  0  0  0
 14 34  1  0  0  0
 15 16  1  0  0  0
 15 35  1  0  0  0
 15 36  1  0  0  0
 16 17  1  0  0  0
 16 37  1  0  0  0
 16 38  1  0  0  0
 17 18  1  0  0  0
 17 39  1  0  0  0
 18 40  1  0  0  0
 19 41  1  0  0  0
 20 42  1  0  0  0
 20 43  1  0  0  0
 20 44  1  0  0  0
M  END
>  <Name>
lit-208

>  <Family>
A.1

>  <RBA>
110,40

>  <RBA_avg>
75.000000

>  <Method>
RUC,CUC*

>  <set>
0

$$$$
lit-209
  Cerius2 12180216413D 1   1.00000                          
 Structure written by MMmdl.
 44 47  0  0  0  0  0  0  0  0999 V2000
   -6.7999   -4.1018   16.7366 C   0  0  0  0  0  0
   -5.4168   -4.1141   16.6656 C   0  0  0  0  0  0
   -4.7691   -4.4260   15.4653 C   0  0  0  0  0  0
   -7.5512   -4.3872   15.5974 C   0  0  0  0  0  0
   -6.9363   -4.6807   14.3647 C   0  0  0  0  0  0
   -5.5183   -4.7365   14.3059 C   0  0  0  0  0  0
   -4.8070   -5.0733   13.0102 C   0  0  0  0  0  0
   -5.7021   -5.6304   11.9075 C   0  0  0  0  0  0
   -7.7914   -5.0161   13.1387 C   0  0  0  0  0  0
   -6.9894   -4.8153   11.8203 C   0  0  0  0  0  0
   -9.9724   -4.6017   11.7995 C   0  0  0  0  0  0
   -9.1647   -4.2916   13.0745 C   0  0  0  0  0  0
   -9.1434   -4.3765   10.5291 C   0  0  0  0  0  0
   -7.8654   -5.2323   10.6386 C   0  0  0  0  0  0
   -7.2855   -5.1880    9.2275 C   0  0  0  0  0  0
   -8.5254   -5.1587    8.3148 C   0  0  0  0  0  0
   -9.7422   -4.9851    9.2449 C   0  0  0  0  0  0
  -10.7443   -4.1731    8.6532 O   0  0  0  0  0  0
   -4.7369   -3.8134   17.8151 O   0  0  0  0  0  0
   -8.8932   -2.8582   10.3425 C   0  0  0  0  0  0
   -2.8597   -4.4039   15.4506 Br  0  0  0  0  0  0
   -7.3024   -3.8708   17.6732 H   0  0  0  0  0  0
   -8.6344   -4.3792   15.7004 H   0  0  0  0  0  0
   -4.0215   -5.8151   13.1941 H   0  0  0  0  0  0
   -4.3285   -4.1569   12.6412 H   0  0  0  0  0  0
   -5.9353   -6.6832   12.1132 H   0  0  0  0  0  0
   -5.1507   -5.6073   10.9609 H   0  0  0  0  0  0
   -8.0149   -6.0901   13.2342 H   0  0  0  0  0  0
   -6.7082   -3.7596   11.7147 H   0  0  0  0  0  0
  -10.8824   -3.9900   11.7819 H   0  0  0  0  0  0
  -10.3056   -5.6468   11.8479 H   0  0  0  0  0  0
   -9.0168   -3.2090   13.1688 H   0  0  0  0  0  0
   -9.7893   -4.5888   13.9247 H   0  0  0  0  0  0
   -8.1596   -6.2809   10.8134 H   0  0  0  0  0  0
   -6.6567   -6.0585    9.0149 H   0  0  0  0  0  0
   -6.6749   -4.2916    9.0714 H   0  0  0  0  0  0
   -8.6158   -6.0930    7.7492 H   0  0  0  0  0  0
   -8.4491   -4.3488    7.5806 H   0  0  0  0  0  0
  -10.1863   -5.9664    9.4553 H   0  0  0  0  0  0
  -10.9971   -4.6165    7.8159 H   0  0  0  0  0  0
   -3.7792   -3.8642   17.6045 H   0  0  0  0  0  0
   -8.3267   -2.6364    9.4326 H   0  0  0  0  0  0
   -8.3429   -2.4139   11.1758 H   0  0  0  0  0  0
   -9.8443   -2.3180   10.2684 H   0  0  0  0  0  0
  1  2  2  0  0  0
  1  4  1  0  0  0
  1 22  1  0  0  0
  2  3  1  0  0  0
  2 19  1  0  0  0
  3  6  2  0  0  0
  3 21  1  0  0  0
  4  5  2  0  0  0
  4 23  1  0  0  0
  5  6  1  0  0  0
  5  9  1  0  0  0
  6  7  1  0  0  0
  7  8  1  0  0  0
  7 24  1  0  0  0
  7 25  1  0  0  0
  8 10  1  0  0  0
  8 26  1  0  0  0
  8 27  1  0  0  0
  9 10  1  0  0  0
  9 12  1  0  0  0
  9 28  1  0  0  0
 10 14  1  0  0  0
 10 29  1  0  0  0
 11 12  1  0  0  0
 11 13  1  0  0  0
 11 30  1  0  0  0
 11 31  1  0  0  0
 12 32  1  0  0  0
 12 33  1  0  0  0
 13 14  1  0  0  0
 13 17  1  0  0  0
 13 20  1  0  0  0
 14 15  1  0  0  0
 14 34  1  0  0  0
 15 16  1  0  0  0
 15 35  1  0  0  0
 15 36  1  0  0  0
 16 17  1  0  0  0
 16 37  1  0  0  0
 16 38  1  0  0  0
 17 18  1  0  0  0
 17 39  1  0  0  0
 18 40  1  0  0  0
 19 41  1  0  0  0
 20 42  1  0  0  0
 20 43  1  0  0  0
 20 44  1  0  0  0
M  END
>  <Name>
lit-209

>  <Family>
A.1

>  <RBA>
10,32.1

>  <RBA_avg>
21.000000

>  <Method>
LUC*,MCF-7

>  <set>
0

$$$$
lit-210
  Cerius2 12180216413D 1   1.00000                          
 Structure written by MMmdl.
 44 47  0  0  0  0  0  0  0  0999 V2000
   -6.8015   -4.1048   16.7346 C   0  0  0  0  0  0
   -5.4179   -4.1103   16.6678 C   0  0  0  0  0  0
   -4.7640   -4.4200   15.4680 C   0  0  0  0  0  0
   -7.5487   -4.3929   15.5943 C   0  0  0  0  0  0
   -6.9301   -4.6838   14.3630 C   0  0  0  0  0  0
   -5.5102   -4.7364   14.3049 C   0  0  0  0  0  0
   -4.8069   -5.0785   13.0053 C   0  0  0  0  0  0
   -5.7043   -5.6359   11.9048 C   0  0  0  0  0  0
   -7.7879   -5.0184   13.1376 C   0  0  0  0  0  0
   -6.9888   -4.8179   11.8182 C   0  0  0  0  0  0
   -9.9709   -4.6004   11.8010 C   0  0  0  0  0  0
   -9.1608   -4.2923   13.0751 C   0  0  0  0  0  0
   -9.1435   -4.3755   10.5298 C   0  0  0  0  0  0
   -7.8666   -5.2332   10.6374 C   0  0  0  0  0  0
   -7.2882   -5.1890    9.2256 C   0  0  0  0  0  0
   -8.5293   -5.1577    8.3144 C   0  0  0  0  0  0
   -9.7447   -4.9826    9.2460 C   0  0  0  0  0  0
  -10.7462   -4.1688    8.6560 O   0  0  0  0  0  0
   -4.7531   -3.8042   17.8243 O   0  0  0  0  0  0
   -8.8914   -2.8574   10.3438 C   0  0  0  0  0  0
   -2.6409   -4.3749   15.4717 I   0  0  0  0  0  0
   -7.3077   -3.8759   17.6698 H   0  0  0  0  0  0
   -8.6319   -4.3892   15.6959 H   0  0  0  0  0  0
   -4.0259   -5.8255   13.1855 H   0  0  0  0  0  0
   -4.3277   -4.1649   12.6306 H   0  0  0  0  0  0
   -5.9395   -6.6879   12.1122 H   0  0  0  0  0  0
   -5.1540   -5.6157   10.9574 H   0  0  0  0  0  0
   -8.0125   -6.0920   13.2335 H   0  0  0  0  0  0
   -6.7056   -3.7628   11.7124 H   0  0  0  0  0  0
  -10.8800   -3.9875   11.7852 H   0  0  0  0  0  0
  -10.3055   -5.6451   11.8493 H   0  0  0  0  0  0
   -9.0117   -3.2100   13.1700 H   0  0  0  0  0  0
   -9.7853   -4.5894   13.9255 H   0  0  0  0  0  0
   -8.1621   -6.2816   10.8119 H   0  0  0  0  0  0
   -6.6609   -6.0604    9.0118 H   0  0  0  0  0  0
   -6.6766   -4.2934    9.0694 H   0  0  0  0  0  0
   -8.6215   -6.0916    7.7487 H   0  0  0  0  0  0
   -8.4526   -4.3477    7.5804 H   0  0  0  0  0  0
  -10.1900   -5.9633    9.4565 H   0  0  0  0  0  0
  -11.0010   -4.6114    7.8189 H   0  0  0  0  0  0
   -3.7928   -3.8481   17.6252 H   0  0  0  0  0  0
   -8.3255   -2.6359    9.4336 H   0  0  0  0  0  0
   -8.3397   -2.4143   11.1769 H   0  0  0  0  0  0
   -9.8418   -2.3159   10.2710 H   0  0  0  0  0  0
  1  2  2  0  0  0
  1  4  1  0  0  0
  1 22  1  0  0  0
  2  3  1  0  0  0
  2 19  1  0  0  0
  3  6  2  0  0  0
  3 21  1  0  0  0
  4  5  2  0  0  0
  4 23  1  0  0  0
  5  6  1  0  0  0
  5  9  1  0  0  0
  6  7  1  0  0  0
  7  8  1  0  0  0
  7 24  1  0  0  0
  7 25  1  0  0  0
  8 10  1  0  0  0
  8 26  1  0  0  0
  8 27  1  0  0  0
  9 10  1  0  0  0
  9 12  1  0  0  0
  9 28  1  0  0  0
 10 14  1  0  0  0
 10 29  1  0  0  0
 11 12  1  0  0  0
 11 13  1  0  0  0
 11 30  1  0  0  0
 11 31  1  0  0  0
 12 32  1  0  0  0
 12 33  1  0  0  0
 13 14  1  0  0  0
 13 17  1  0  0  0
 13 20  1  0  0  0
 14 15  1  0  0  0
 14 34  1  0  0  0
 15 16  1  0  0  0
 15 35  1  0  0  0
 15 36  1  0  0  0
 16 17  1  0  0  0
 16 37  1  0  0  0
 16 38  1  0  0  0
 17 18  1  0  0  0
 17 39  1  0  0  0
 18 40  1  0  0  0
 19 41  1  0  0  0
 20 42  1  0  0  0
 20 43  1  0  0  0
 20 44  1  0  0  0
M  END
>  <Name>
lit-210

>  <Family>
A.1

>  <RBA>
<0.1

>  <RBA_avg>
0.000000

>  <Method>
LUC*

>  <set>
0

$$$$
lit-211
  Cerius2 12180216413D 1   1.00000                          
 Structure written by MMmdl.
 46 49  0  0  0  0  0  0  0  0999 V2000
   -6.8096   -4.0978   16.7326 C   0  0  0  0  0  0
   -5.4290   -4.1104   16.6516 C   0  0  0  0  0  0
   -4.7673   -4.4675   15.4696 C   0  0  0  0  0  0
   -7.5616   -4.4016   15.5999 C   0  0  0  0  0  0
   -6.9463   -4.6988   14.3687 C   0  0  0  0  0  0
   -5.5290   -4.7608   14.3134 C   0  0  0  0  0  0
   -4.8061   -5.0669   13.0184 C   0  0  0  0  0  0
   -5.6944   -5.6243   11.9101 C   0  0  0  0  0  0
   -7.7946   -5.0253   13.1384 C   0  0  0  0  0  0
   -6.9871   -4.8155   11.8237 C   0  0  0  0  0  0
   -9.9715   -4.6039   11.7984 C   0  0  0  0  0  0
   -9.1672   -4.3005   13.0756 C   0  0  0  0  0  0
   -9.1380   -4.3745   10.5327 C   0  0  0  0  0  0
   -7.8602   -5.2300   10.6390 C   0  0  0  0  0  0
   -7.2824   -5.1812    9.2269 C   0  0  0  0  0  0
   -8.5242   -5.1531    8.3162 C   0  0  0  0  0  0
   -9.7383   -4.9788    9.2491 C   0  0  0  0  0  0
  -10.7359   -4.1608    8.6698 O   0  0  0  0  0  0
   -4.7237   -3.7531   17.7682 O   0  0  0  0  0  0
   -8.8884   -2.8552   10.3498 C   0  0  0  0  0  0
   -3.3562   -4.4812   15.4643 N   0  0  0  0  0  0
   -2.9011   -5.6172   15.7146 N   0  3  0  0  0  0
   -2.4698   -6.6492   15.9364 N   0  5  0  0  0  0
   -7.3004   -3.8417   17.6670 H   0  0  0  0  0  0
   -8.6434   -4.3904   15.7025 H   0  0  0  0  0  0
   -4.0026   -5.7908   13.1943 H   0  0  0  0  0  0
   -4.3426   -4.1361   12.6673 H   0  0  0  0  0  0
   -5.9226   -6.6792   12.1107 H   0  0  0  0  0  0
   -5.1410   -5.5924   10.9650 H   0  0  0  0  0  0
   -8.0179   -6.1000   13.2248 H   0  0  0  0  0  0
   -6.7103   -3.7582   11.7234 H   0  0  0  0  0  0
  -10.8809   -3.9912   11.7807 H   0  0  0  0  0  0
  -10.3058   -5.6487   11.8418 H   0  0  0  0  0  0
   -9.0192   -3.2183   13.1743 H   0  0  0  0  0  0
   -9.7934   -4.6012   13.9233 H   0  0  0  0  0  0
   -8.1532   -6.2793   10.8102 H   0  0  0  0  0  0
   -6.6523   -6.0505    9.0120 H   0  0  0  0  0  0
   -6.6739   -4.2834    9.0717 H   0  0  0  0  0  0
   -8.6160   -6.0893    7.7542 H   0  0  0  0  0  0
   -8.4499   -4.3448    7.5800 H   0  0  0  0  0  0
  -10.1848   -5.9597    9.4569 H   0  0  0  0  0  0
  -11.0076   -4.5788    7.8351 H   0  0  0  0  0  0
   -3.7988   -3.6294   17.4839 H   0  0  0  0  0  0
   -8.3216   -2.6312    9.4407 H   0  0  0  0  0  0
   -8.3376   -2.4138   11.1846 H   0  0  0  0  0  0
   -9.8387   -2.3137   10.2780 H   0  0  0  0  0  0
  1  2  2  0  0  0
  1  4  1  0  0  0
  1 24  1  0  0  0
  2  3  1  0  0  0
  2 19  1  0  0  0
  3  6  2  0  0  0
  3 21  1  0  0  0
  4  5  2  0  0  0
  4 25  1  0  0  0
  5  6  1  0  0  0
  5  9  1  0  0  0
  6  7  1  0  0  0
  7  8  1  0  0  0
  7 26  1  0  0  0
  7 27  1  0  0  0
  8 10  1  0  0  0
  8 28  1  0  0  0
  8 29  1  0  0  0
  9 10  1  0  0  0
  9 12  1  0  0  0
  9 30  1  0  0  0
 10 14  1  0  0  0
 10 31  1  0  0  0
 11 12  1  0  0  0
 11 13  1  0  0  0
 11 32  1  0  0  0
 11 33  1  0  0  0
 12 34  1  0  0  0
 12 35  1  0  0  0
 13 14  1  0  0  0
 13 17  1  0  0  0
 13 20  1  0  0  0
 14 15  1  0  0  0
 14 36  1  0  0  0
 15 16  1  0  0  0
 15 37  1  0  0  0
 15 38  1  0  0  0
 16 17  1  0  0  0
 16 39  1  0  0  0
 16 40  1  0  0  0
 17 18  1  0  0  0
 17 41  1  0  0  0
 18 42  1  0  0  0
 19 43  1  0  0  0
 20 44  1  0  0  0
 20 45  1  0  0  0
 20 46  1  0  0  0
 21 22  2  0  0  0
 22 23  2  0  0  0
M  CHG  2  22   1  23  -1
M  END
>  <Name>
lit-211

>  <Family>
A.1

>  <RBA>
0.9,1.6,0.6

>  <RBA_avg>
1.000000

>  <Method>
RUC*,MCF-7,CUC

>  <set>
0

$$$$
lit-212
  Cerius2 12180216413D 1   1.00000                          
 Structure written by MMmdl.
 46 49  0  0  0  0  0  0  0  0999 V2000
   -6.7908   -4.0759   16.7266 C   0  0  0  0  0  0
   -5.4045   -4.0895   16.6717 C   0  0  0  0  0  0
   -4.7762   -4.4578   15.4755 C   0  0  0  0  0  0
   -7.5418   -4.3837   15.5893 C   0  0  0  0  0  0
   -6.9309   -4.7019   14.3600 C   0  0  0  0  0  0
   -5.5155   -4.7768   14.3049 C   0  0  0  0  0  0
   -4.8036   -5.1084   13.0077 C   0  0  0  0  0  0
   -5.7010   -5.6401   11.8936 C   0  0  0  0  0  0
   -7.7878   -5.0362   13.1350 C   0  0  0  0  0  0
   -6.9875   -4.8224   11.8173 C   0  0  0  0  0  0
   -9.9723   -4.6196   11.8006 C   0  0  0  0  0  0
   -9.1655   -4.3193   13.0781 C   0  0  0  0  0  0
   -9.1450   -4.3762   10.5327 C   0  0  0  0  0  0
   -7.8642   -5.2286   10.6320 C   0  0  0  0  0  0
   -7.2855   -5.1672    9.2208 C   0  0  0  0  0  0
   -8.5260   -5.1318    8.3093 C   0  0  0  0  0  0
   -9.7427   -4.9724    9.2420 C   0  0  0  0  0  0
  -10.7477   -4.1568    8.6601 O   0  0  0  0  0  0
   -4.7666   -3.7402   17.8316 O   0  0  0  0  0  0
   -8.9000   -2.8551   10.3634 C   0  0  0  0  0  0
   -3.3252   -4.5182   15.4571 N   0  3  0  0  0  0
   -2.7873   -5.6309   15.3200 O   0  0  0  0  0  0
   -2.7093   -3.4507   15.6258 O   0  5  0  0  0  0
   -7.3020   -3.8164   17.6518 H   0  0  0  0  0  0
   -8.6253   -4.3628   15.6913 H   0  0  0  0  0  0
   -4.0273   -5.8612   13.1776 H   0  0  0  0  0  0
   -4.3107   -4.1932   12.6553 H   0  0  0  0  0  0
   -5.9372   -6.6960   12.0799 H   0  0  0  0  0  0
   -5.1484   -5.6021   10.9482 H   0  0  0  0  0  0
   -8.0053   -6.1118   13.2249 H   0  0  0  0  0  0
   -6.7056   -3.7661   11.7218 H   0  0  0  0  0  0
  -10.8853   -4.0122   11.7900 H   0  0  0  0  0  0
  -10.3004   -5.6667   11.8377 H   0  0  0  0  0  0
   -9.0243   -3.2368   13.1837 H   0  0  0  0  0  0
   -9.7874   -4.6298   13.9256 H   0  0  0  0  0  0
   -8.1549   -6.2800   10.7955 H   0  0  0  0  0  0
   -6.6544   -6.0336    8.9983 H   0  0  0  0  0  0
   -6.6777   -4.2674    9.0742 H   0  0  0  0  0  0
   -8.6137   -6.0598    7.7333 H   0  0  0  0  0  0
   -8.4528   -4.3134    7.5842 H   0  0  0  0  0  0
  -10.1835   -5.9574    9.4416 H   0  0  0  0  0  0
  -10.9996   -4.5914    7.8179 H   0  0  0  0  0  0
   -3.8525   -3.4404   17.6409 H   0  0  0  0  0  0
   -8.3363   -2.6210    9.4549 H   0  0  0  0  0  0
   -8.3488   -2.4192   11.2006 H   0  0  0  0  0  0
   -9.8529   -2.3171   10.2979 H   0  0  0  0  0  0
  1  2  2  0  0  0
  1  4  1  0  0  0
  1 24  1  0  0  0
  2  3  1  0  0  0
  2 19  1  0  0  0
  3  6  2  0  0  0
  3 21  1  0  0  0
  4  5  2  0  0  0
  4 25  1  0  0  0
  5  6  1  0  0  0
  5  9  1  0  0  0
  6  7  1  0  0  0
  7  8  1  0  0  0
  7 26  1  0  0  0
  7 27  1  0  0  0
  8 10  1  0  0  0
  8 28  1  0  0  0
  8 29  1  0  0  0
  9 10  1  0  0  0
  9 12  1  0  0  0
  9 30  1  0  0  0
 10 14  1  0  0  0
 10 31  1  0  0  0
 11 12  1  0  0  0
 11 13  1  0  0  0
 11 32  1  0  0  0
 11 33  1  0  0  0
 12 34  1  0  0  0
 12 35  1  0  0  0
 13 14  1  0  0  0
 13 17  1  0  0  0
 13 20  1  0  0  0
 14 15  1  0  0  0
 14 36  1  0  0  0
 15 16  1  0  0  0
 15 37  1  0  0  0
 15 38  1  0  0  0
 16 17  1  0  0  0
 16 39  1  0  0  0
 16 40  1  0  0  0
 17 18  1  0  0  0
 17 41  1  0  0  0
 18 42  1  0  0  0
 19 43  1  0  0  0
 20 44  1  0  0  0
 20 45  1  0  0  0
 20 46  1  0  0  0
 21 22  2  0  0  0
 21 23  1  0  0  0
M  CHG  2  21   1  23  -1
M  END
>  <Name>
lit-212

>  <Family>
A.1

>  <RBA>
6.2,13

>  <RBA_avg>
9.600000

>  <Method>
RUC*,MCF-7

>  <set>
0

$$$$
lit-213
  Cerius2 12180216413D 1   1.00000                          
 Structure written by MMmdl.
 46 49  0  0  0  0  0  0  0  0999 V2000
   -6.8039   -4.1078   16.7406 C   0  0  0  0  0  0
   -5.4209   -4.1272   16.6602 C   0  0  0  0  0  0
   -4.7513   -4.3650   15.4494 C   0  0  0  0  0  0
   -7.5576   -4.3668   15.5992 C   0  0  0  0  0  0
   -6.9411   -4.6543   14.3672 C   0  0  0  0  0  0
   -5.5204   -4.7024   14.3085 C   0  0  0  0  0  0
   -4.8095   -5.0493   13.0137 C   0  0  0  0  0  0
   -5.7028   -5.6205   11.9175 C   0  0  0  0  0  0
   -7.7940   -4.9965   13.1417 C   0  0  0  0  0  0
   -6.9909   -4.8074   11.8222 C   0  0  0  0  0  0
   -9.9735   -4.5914   11.7978 C   0  0  0  0  0  0
   -9.1659   -4.2698   13.0702 C   0  0  0  0  0  0
   -9.1438   -4.3796   10.5256 C   0  0  0  0  0  0
   -7.8665   -5.2352   10.6439 C   0  0  0  0  0  0
   -7.2858   -5.2049    9.2328 C   0  0  0  0  0  0
   -8.5255   -5.1848    8.3194 C   0  0  0  0  0  0
   -9.7426   -5.0005    9.2472 C   0  0  0  0  0  0
  -10.7435   -4.1935    8.6468 O   0  0  0  0  0  0
   -4.7228   -3.9397   17.8243 O   0  0  0  0  0  0
   -8.8927   -2.8634   10.3239 C   0  0  0  0  0  0
   -3.3543   -4.3807   15.4285 N   0  0  0  0  0  0
   -7.2996   -3.9147   17.6887 H   0  0  0  0  0  0
   -8.6403   -4.3636   15.7034 H   0  0  0  0  0  0
   -4.0190   -5.7837   13.2091 H   0  0  0  0  0  0
   -4.3331   -4.1345   12.6379 H   0  0  0  0  0  0
   -5.9347   -6.6713   12.1347 H   0  0  0  0  0  0
   -5.1515   -5.6067   10.9707 H   0  0  0  0  0  0
   -8.0197   -6.0694   13.2447 H   0  0  0  0  0  0
   -6.7104   -3.7525   11.7073 H   0  0  0  0  0  0
  -10.8828   -3.9787   11.7738 H   0  0  0  0  0  0
  -10.3081   -5.6354   11.8563 H   0  0  0  0  0  0
   -9.0156   -3.1866   13.1537 H   0  0  0  0  0  0
   -9.7916   -4.5568   13.9231 H   0  0  0  0  0  0
   -8.1613   -6.2820   10.8286 H   0  0  0  0  0  0
   -6.6570   -6.0775    9.0290 H   0  0  0  0  0  0
   -6.6752   -4.3102    9.0681 H   0  0  0  0  0  0
   -8.6161   -6.1250    7.7640 H   0  0  0  0  0  0
   -8.4485   -4.3829    7.5765 H   0  0  0  0  0  0
  -10.1878   -5.9792    9.4672 H   0  0  0  0  0  0
  -10.9962   -4.6448    7.8137 H   0  0  0  0  0  0
   -3.8210   -4.2819   17.6454 H   0  0  0  0  0  0
   -8.3259   -2.6510    9.4119 H   0  0  0  0  0  0
   -8.3422   -2.4111   11.1529 H   0  0  0  0  0  0
   -9.8434   -2.3233   10.2443 H   0  0  0  0  0  0
   -2.8744   -4.4968   14.5402 H   0  0  0  0  0  0
   -2.8431   -3.7703   16.0610 H   0  0  0  0  0  0
  1  2  2  0  0  0
  1  4  1  0  0  0
  1 22  1  0  0  0
  2  3  1  0  0  0
  2 19  1  0  0  0
  3  6  2  0  0  0
  3 21  1  0  0  0
  4  5  2  0  0  0
  4 23  1  0  0  0
  5  6  1  0  0  0
  5  9  1  0  0  0
  6  7  1  0  0  0
  7  8  1  0  0  0
  7 24  1  0  0  0
  7 25  1  0  0  0
  8 10  1  0  0  0
  8 26  1  0  0  0
  8 27  1  0  0  0
  9 10  1  0  0  0
  9 12  1  0  0  0
  9 28  1  0  0  0
 10 14  1  0  0  0
 10 29  1  0  0  0
 11 12  1  0  0  0
 11 13  1  0  0  0
 11 30  1  0  0  0
 11 31  1  0  0  0
 12 32  1  0  0  0
 12 33  1  0  0  0
 13 14  1  0  0  0
 13 17  1  0  0  0
 13 20  1  0  0  0
 14 15  1  0  0  0
 14 34  1  0  0  0
 15 16  1  0  0  0
 15 35  1  0  0  0
 15 36  1  0  0  0
 16 17  1  0  0  0
 16 37  1  0  0  0
 16 38  1  0  0  0
 17 18  1  0  0  0
 17 39  1  0  0  0
 18 40  1  0  0  0
 19 41  1  0  0  0
 20 42  1  0  0  0
 20 43  1  0  0  0
 20 44  1  0  0  0
 21 45  1  0  0  0
 21 46  1  0  0  0
M  END
>  <Name>
lit-213

>  <Family>
A.1

>  <RBA>
6.5,16,2.0

>  <RBA_avg>
8.200000

>  <Method>
RBC,MCF-7,MCF-7

>  <set>
0

$$$$
lit-214
  Cerius2 12180216413D 1   1.00000                          
 Structure written by MMmdl.
 45 48  0  0  0  0  0  0  0  0999 V2000
   -6.7479   -4.2403   16.8102 C   0  0  0  0  0  0
   -5.3729   -4.1600   16.6700 C   0  0  0  0  0  0
   -4.7809   -4.3738   15.4352 C   0  0  0  0  0  0
   -7.5423   -4.5115   15.6915 C   0  0  0  0  0  0
   -6.9901   -4.6719   14.4048 C   0  0  0  0  0  0
   -5.5748   -4.6575   14.3061 C   0  0  0  0  0  0
   -4.8430   -4.9199   13.0097 C   0  0  0  0  0  0
   -5.7139   -5.5699   11.9440 C   0  0  0  0  0  0
   -7.8434   -4.9666   13.1606 C   0  0  0  0  0  0
   -7.0222   -4.7928   11.8393 C   0  0  0  0  0  0
   -9.9853   -4.5089   11.7643 C   0  0  0  0  0  0
   -9.1806   -4.1783   13.0394 C   0  0  0  0  0  0
   -9.1400   -4.3632   10.4946 C   0  0  0  0  0  0
   -7.8835   -5.2417   10.6585 C   0  0  0  0  0  0
   -7.2847   -5.2676    9.2548 C   0  0  0  0  0  0
   -8.5130   -5.2563    8.3258 C   0  0  0  0  0  0
   -9.7372   -5.0169    9.2320 C   0  0  0  0  0  0
  -10.7157   -4.2130    8.5918 O   0  0  0  0  0  0
   -4.6265   -3.8899   17.7784 O   0  0  0  0  0  0
   -8.8572   -2.8599   10.2408 C   0  0  0  0  0  0
   -8.8863   -4.6635   15.8893 O   0  0  0  0  0  0
   -7.1918   -4.1040   17.7931 H   0  0  0  0  0  0
   -3.6972   -4.3360   15.3337 H   0  0  0  0  0  0
   -3.9796   -5.5704   13.1961 H   0  0  0  0  0  0
   -4.4594   -3.9623   12.6353 H   0  0  0  0  0  0
   -5.9120   -6.6187   12.1991 H   0  0  0  0  0  0
   -5.1687   -5.5663   10.9939 H   0  0  0  0  0  0
   -8.1096   -6.0312   13.2487 H   0  0  0  0  0  0
   -6.7603   -3.7343   11.7137 H   0  0  0  0  0  0
  -10.8732   -3.8673   11.7135 H   0  0  0  0  0  0
  -10.3560   -5.5389   11.8497 H   0  0  0  0  0  0
   -8.9789   -3.1018   13.0923 H   0  0  0  0  0  0
   -9.8484   -4.4020   13.8742 H   0  0  0  0  0  0
   -8.2010   -6.2764   10.8707 H   0  0  0  0  0  0
   -6.6693   -6.1574    9.0877 H   0  0  0  0  0  0
   -6.6564   -4.3895    9.0688 H   0  0  0  0  0  0
   -8.6153   -6.2136    7.8026 H   0  0  0  0  0  0
   -8.4121   -4.4825    7.5564 H   0  0  0  0  0  0
  -10.2035   -5.9787    9.4807 H   0  0  0  0  0  0
  -10.9673   -4.6883    7.7719 H   0  0  0  0  0  0
   -3.6805   -3.8682   17.5186 H   0  0  0  0  0  0
   -8.2672   -2.6921    9.3344 H   0  0  0  0  0  0
   -8.3184   -2.3844   11.0643 H   0  0  0  0  0  0
   -9.7963   -2.3074   10.1195 H   0  0  0  0  0  0
   -9.0901   -4.5328   16.8390 H   0  0  0  0  0  0
  1  2  2  0  0  0
  1  4  1  0  0  0
  1 22  1  0  0  0
  2  3  1  0  0  0
  2 19  1  0  0  0
  3  6  2  0  0  0
  3 23  1  0  0  0
  4  5  2  0  0  0
  4 21  1  0  0  0
  5  6  1  0  0  0
  5  9  1  0  0  0
  6  7  1  0  0  0
  7  8  1  0  0  0
  7 24  1  0  0  0
  7 25  1  0  0  0
  8 10  1  0  0  0
  8 26  1  0  0  0
  8 27  1  0  0  0
  9 10  1  0  0  0
  9 12  1  0  0  0
  9 28  1  0  0  0
 10 14  1  0  0  0
 10 29  1  0  0  0
 11 12  1  0  0  0
 11 13  1  0  0  0
 11 30  1  0  0  0
 11 31  1  0  0  0
 12 32  1  0  0  0
 12 33  1  0  0  0
 13 14  1  0  0  0
 13 17  1  0  0  0
 13 20  1  0  0  0
 14 15  1  0  0  0
 14 34  1  0  0  0
 15 16  1  0  0  0
 15 35  1  0  0  0
 15 36  1  0  0  0
 16 17  1  0  0  0
 16 37  1  0  0  0
 16 38  1  0  0  0
 17 18  1  0  0  0
 17 39  1  0  0  0
 18 40  1  0  0  0
 19 41  1  0  0  0
 20 42  1  0  0  0
 20 43  1  0  0  0
 20 44  1  0  0  0
 21 45  1  0  0  0
M  END
>  <Name>
lit-214

>  <Family>
A.1

>  <RBA>
19.000000

>  <RBA_avg>
19.000000

>  <Method>
RUC*

>  <set>
0

$$$$
lit-215
  Cerius2 12180216413D 1   1.00000                          
 Structure written by MMmdl.
 45 48  0  0  0  0  0  0  0  0999 V2000
   -6.7923   -4.1101   16.7446 C   0  0  0  0  0  0
   -5.4042   -4.1407   16.6661 C   0  0  0  0  0  0
   -4.7844   -4.4444   15.4588 C   0  0  0  0  0  0
   -7.5677   -4.3736   15.6141 C   0  0  0  0  0  0
   -6.9645   -4.6604   14.3741 C   0  0  0  0  0  0
   -5.5534   -4.7210   14.3122 C   0  0  0  0  0  0
   -4.8136   -5.0247   13.0292 C   0  0  0  0  0  0
   -5.6947   -5.5998   11.9246 C   0  0  0  0  0  0
   -7.8088   -4.9948   13.1434 C   0  0  0  0  0  0
   -6.9945   -4.7993   11.8282 C   0  0  0  0  0  0
   -9.9793   -4.5931   11.7902 C   0  0  0  0  0  0
   -9.1793   -4.2693   13.0670 C   0  0  0  0  0  0
   -9.1436   -4.3793   10.5218 C   0  0  0  0  0  0
   -7.8625   -5.2297   10.6453 C   0  0  0  0  0  0
   -7.2758   -5.1960    9.2368 C   0  0  0  0  0  0
   -8.5117   -5.1817    8.3182 C   0  0  0  0  0  0
   -9.7338   -5.0031    9.2407 C   0  0  0  0  0  0
  -10.7359   -4.2008    8.6360 O   0  0  0  0  0  0
   -4.6571   -3.8761   17.7803 O   0  0  0  0  0  0
   -8.8980   -2.8621   10.3203 C   0  0  0  0  0  0
   -7.3916   -3.8237   17.9410 O   0  0  0  0  0  0
   -3.6978   -4.4722   15.3926 H   0  0  0  0  0  0
   -8.6502   -4.3618   15.7089 H   0  0  0  0  0  0
   -3.9984   -5.7304   13.2296 H   0  0  0  0  0  0
   -4.3603   -4.0900   12.6747 H   0  0  0  0  0  0
   -5.9164   -6.6542   12.1340 H   0  0  0  0  0  0
   -5.1397   -5.5722   10.9803 H   0  0  0  0  0  0
   -8.0335   -6.0687   13.2384 H   0  0  0  0  0  0
   -6.7226   -3.7416   11.7176 H   0  0  0  0  0  0
  -10.8900   -3.9829   11.7616 H   0  0  0  0  0  0
  -10.3113   -5.6380   11.8470 H   0  0  0  0  0  0
   -9.0302   -3.1860   13.1507 H   0  0  0  0  0  0
   -9.8075   -4.5564   13.9181 H   0  0  0  0  0  0
   -8.1535   -6.2778   10.8279 H   0  0  0  0  0  0
   -6.6419   -6.0656    9.0355 H   0  0  0  0  0  0
   -6.6689   -4.2983    9.0752 H   0  0  0  0  0  0
   -8.5956   -6.1223    7.7625 H   0  0  0  0  0  0
   -8.4354   -4.3794    7.5756 H   0  0  0  0  0  0
  -10.1752   -5.9839    9.4588 H   0  0  0  0  0  0
  -10.9821   -4.6528    7.8013 H   0  0  0  0  0  0
   -3.7086   -3.9425   17.5417 H   0  0  0  0  0  0
   -8.3277   -2.6477    9.4110 H   0  0  0  0  0  0
   -8.3538   -2.4069   11.1518 H   0  0  0  0  0  0
   -9.8507   -2.3263   10.2355 H   0  0  0  0  0  0
   -8.3634   -3.8422   17.8158 H   0  0  0  0  0  0
  1  2  2  0  0  0
  1  4  1  0  0  0
  1 21  1  0  0  0
  2  3  1  0  0  0
  2 19  1  0  0  0
  3  6  2  0  0  0
  3 22  1  0  0  0
  4  5  2  0  0  0
  4 23  1  0  0  0
  5  6  1  0  0  0
  5  9  1  0  0  0
  6  7  1  0  0  0
  7  8  1  0  0  0
  7 24  1  0  0  0
  7 25  1  0  0  0
  8 10  1  0  0  0
  8 26  1  0  0  0
  8 27  1  0  0  0
  9 10  1  0  0  0
  9 12  1  0  0  0
  9 28  1  0  0  0
 10 14  1  0  0  0
 10 29  1  0  0  0
 11 12  1  0  0  0
 11 13  1  0  0  0
 11 30  1  0  0  0
 11 31  1  0  0  0
 12 32  1  0  0  0
 12 33  1  0  0  0
 13 14  1  0  0  0
 13 17  1  0  0  0
 13 20  1  0  0  0
 14 15  1  0  0  0
 14 34  1  0  0  0
 15 16  1  0  0  0
 15 35  1  0  0  0
 15 36  1  0  0  0
 16 17  1  0  0  0
 16 37  1  0  0  0
 16 38  1  0  0  0
 17 18  1  0  0  0
 17 39  1  0  0  0
 18 40  1  0  0  0
 19 41  1  0  0  0
 20 42  1  0  0  0
 20 43  1  0  0  0
 20 44  1  0  0  0
 21 45  1  0  0  0
M  END
>  <Name>
lit-215

>  <Family>
A.1

>  <RBA>
25.2,22,23

>  <RBA_avg>
23.000000

>  <Method>
RUC,RUC,RUC

>  <set>
0

$$$$
lit-216
  Cerius2 12180216413D 1   1.00000                          
 Structure written by MMmdl.
 45 48  0  0  0  0  0  0  0  0999 V2000
   -6.8071   -4.1102   16.7485 C   0  0  0  0  0  0
   -5.4281   -4.1233   16.6660 C   0  0  0  0  0  0
   -4.7867   -4.4209   15.4635 C   0  0  0  0  0  0
   -7.5580   -4.3876   15.6056 C   0  0  0  0  0  0
   -6.9420   -4.6727   14.3682 C   0  0  0  0  0  0
   -5.5247   -4.7247   14.3057 C   0  0  0  0  0  0
   -4.8078   -5.0594   13.0163 C   0  0  0  0  0  0
   -5.6987   -5.6220   11.9133 C   0  0  0  0  0  0
   -7.7945   -5.0079   13.1407 C   0  0  0  0  0  0
   -6.9892   -4.8106   11.8227 C   0  0  0  0  0  0
   -9.9725   -4.5962   11.7979 C   0  0  0  0  0  0
   -9.1660   -4.2812   13.0726 C   0  0  0  0  0  0
   -9.1420   -4.3769   10.5274 C   0  0  0  0  0  0
   -7.8638   -5.2321   10.6414 C   0  0  0  0  0  0
   -7.2826   -5.1931    9.2307 C   0  0  0  0  0  0
   -8.5219   -5.1689    8.3169 C   0  0  0  0  0  0
   -9.7396   -4.9911    9.2452 C   0  0  0  0  0  0
  -10.7411   -4.1815    8.6491 O   0  0  0  0  0  0
   -4.6965   -3.8404   17.7861 O   0  0  0  0  0  0
   -8.8920   -2.8594   10.3342 C   0  0  0  0  0  0
   -3.4157   -4.3935   15.5010 O   0  0  0  0  0  0
   -7.3050   -3.8879   17.6888 H   0  0  0  0  0  0
   -8.6413   -4.3833   15.7077 H   0  0  0  0  0  0
   -4.0166   -5.7931   13.2119 H   0  0  0  0  0  0
   -4.3300   -4.1414   12.6506 H   0  0  0  0  0  0
   -5.9294   -6.6750   12.1209 H   0  0  0  0  0  0
   -5.1461   -5.5992   10.9674 H   0  0  0  0  0  0
   -8.0196   -6.0816   13.2369 H   0  0  0  0  0  0
   -6.7101   -3.7546   11.7143 H   0  0  0  0  0  0
  -10.8821   -3.9840   11.7768 H   0  0  0  0  0  0
  -10.3064   -5.6408   11.8504 H   0  0  0  0  0  0
   -9.0160   -3.1985   13.1620 H   0  0  0  0  0  0
   -9.7919   -4.5730   13.9237 H   0  0  0  0  0  0
   -8.1578   -6.2802   10.8198 H   0  0  0  0  0  0
   -6.6528   -6.0638    9.0221 H   0  0  0  0  0  0
   -6.6729   -4.2968    9.0715 H   0  0  0  0  0  0
   -8.6115   -6.1061    7.7561 H   0  0  0  0  0  0
   -8.4454   -4.3627    7.5787 H   0  0  0  0  0  0
  -10.1840   -5.9714    9.4595 H   0  0  0  0  0  0
  -10.9929   -4.6282    7.8132 H   0  0  0  0  0  0
   -3.7564   -3.9078   17.4998 H   0  0  0  0  0  0
   -8.3256   -2.6414    9.4234 H   0  0  0  0  0  0
   -8.3416   -2.4114   11.1657 H   0  0  0  0  0  0
   -9.8432   -2.3195   10.2579 H   0  0  0  0  0  0
   -3.0608   -4.4921   14.5955 H   0  0  0  0  0  0
  1  2  2  0  0  0
  1  4  1  0  0  0
  1 22  1  0  0  0
  2  3  1  0  0  0
  2 19  1  0  0  0
  3  6  2  0  0  0
  3 21  1  0  0  0
  4  5  2  0  0  0
  4 23  1  0  0  0
  5  6  1  0  0  0
  5  9  1  0  0  0
  6  7  1  0  0  0
  7  8  1  0  0  0
  7 24  1  0  0  0
  7 25  1  0  0  0
  8 10  1  0  0  0
  8 26  1  0  0  0
  8 27  1  0  0  0
  9 10  1  0  0  0
  9 12  1  0  0  0
  9 28  1  0  0  0
 10 14  1  0  0  0
 10 29  1  0  0  0
 11 12  1  0  0  0
 11 13  1  0  0  0
 11 30  1  0  0  0
 11 31  1  0  0  0
 12 32  1  0  0  0
 12 33  1  0  0  0
 13 14  1  0  0  0
 13 17  1  0  0  0
 13 20  1  0  0  0
 14 15  1  0  0  0
 14 34  1  0  0  0
 15 16  1  0  0  0
 15 35  1  0  0  0
 15 36  1  0  0  0
 16 17  1  0  0  0
 16 37  1  0  0  0
 16 38  1  0  0  0
 17 18  1  0  0  0
 17 39  1  0  0  0
 18 40  1  0  0  0
 19 41  1  0  0  0
 20 42  1  0  0  0
 20 43  1  0  0  0
 20 44  1  0  0  0
 21 45  1  0  0  0
M  END
>  <Name>
lit-216

>  <Family>
A.1

>  <RBA>
36.7,45,43

>  <RBA_avg>
42.000000

>  <Method>
RUC,RUC,RUC

>  <set>
0

$$$$
lit-217
  Cerius2 12180216413D 1   1.00000                          
 Structure written by MMmdl.
 44 47  0  0  0  0  0  0  0  0999 V2000
   -6.7888   -4.1047   16.7446 C   0  0  0  0  0  0
   -5.4065   -4.1407   16.6593 C   0  0  0  0  0  0
   -4.7821   -4.4467   15.4568 C   0  0  0  0  0  0
   -7.5597   -4.3698   15.6100 C   0  0  0  0  0  0
   -6.9597   -4.6609   14.3714 C   0  0  0  0  0  0
   -5.5492   -4.7238   14.3099 C   0  0  0  0  0  0
   -4.8101   -5.0298   13.0274 C   0  0  0  0  0  0
   -5.6926   -5.6019   11.9220 C   0  0  0  0  0  0
   -7.8053   -4.9960   13.1428 C   0  0  0  0  0  0
   -6.9923   -4.8003   11.8270 C   0  0  0  0  0  0
   -9.9776   -4.5946   11.7936 C   0  0  0  0  0  0
   -9.1761   -4.2711   13.0695 C   0  0  0  0  0  0
   -9.1434   -4.3794   10.5242 C   0  0  0  0  0  0
   -7.8620   -5.2298   10.6452 C   0  0  0  0  0  0
   -7.2774   -5.1948    9.2358 C   0  0  0  0  0  0
   -8.5146   -5.1797    8.3190 C   0  0  0  0  0  0
   -9.7353   -5.0019    9.2434 C   0  0  0  0  0  0
   -8.8982   -2.8620   10.3241 C   0  0  0  0  0  0
  -10.7382   -4.1990    8.6408 O   0  0  0  0  0  0
   -7.2769   -3.8755   17.6893 H   0  0  0  0  0  0
   -3.6954   -4.4757   15.3951 H   0  0  0  0  0  0
   -8.9155   -4.3448   15.7502 O   0  0  0  0  0  0
   -3.9971   -5.7381   13.2281 H   0  0  0  0  0  0
   -4.3538   -4.0966   12.6731 H   0  0  0  0  0  0
   -5.9153   -6.6564   12.1299 H   0  0  0  0  0  0
   -5.1381   -5.5735   10.9775 H   0  0  0  0  0  0
   -8.0294   -6.0698   13.2382 H   0  0  0  0  0  0
   -6.7198   -3.7428   11.7165 H   0  0  0  0  0  0
  -10.8887   -3.9849   11.7665 H   0  0  0  0  0  0
  -10.3088   -5.6398   11.8501 H   0  0  0  0  0  0
   -9.0275   -3.1879   13.1534 H   0  0  0  0  0  0
   -9.8023   -4.5592   13.9218 H   0  0  0  0  0  0
   -8.1528   -6.2781   10.8272 H   0  0  0  0  0  0
   -6.6436   -6.0640    9.0329 H   0  0  0  0  0  0
   -6.6707   -4.2969    9.0741 H   0  0  0  0  0  0
   -8.5993   -6.1198    7.7626 H   0  0  0  0  0  0
   -8.4392   -4.3768    7.5771 H   0  0  0  0  0  0
  -10.1766   -5.9828    9.4612 H   0  0  0  0  0  0
   -8.3294   -2.6464    9.4141 H   0  0  0  0  0  0
   -8.3524   -2.4077   11.1551 H   0  0  0  0  0  0
   -9.8510   -2.3259   10.2416 H   0  0  0  0  0  0
  -10.9863   -4.6507    7.8064 H   0  0  0  0  0  0
   -4.8016   -3.9285   17.5380 H   0  0  0  0  0  0
   -9.0982   -4.1597   16.5594 H   0  0  0  0  0  0
  1  2  2  0  0  0
  1  4  1  0  0  0
  1 20  1  0  0  0
  2  3  1  0  0  0
  2 43  1  0  0  0
  3  6  2  0  0  0
  3 21  1  0  0  0
  4  5  2  0  0  0
  4 22  1  0  0  0
  5  6  1  0  0  0
  5  9  1  0  0  0
  6  7  1  0  0  0
  7  8  1  0  0  0
  7 23  1  0  0  0
  7 24  1  0  0  0
  8 10  1  0  0  0
  8 25  1  0  0  0
  8 26  1  0  0  0
  9 10  1  0  0  0
  9 12  1  0  0  0
  9 27  1  0  0  0
 10 14  1  0  0  0
 10 28  1  0  0  0
 11 12  1  0  0  0
 11 13  1  0  0  0
 11 29  1  0  0  0
 11 30  1  0  0  0
 12 31  1  0  0  0
 12 32  1  0  0  0
 13 14  1  0  0  0
 13 17  1  0  0  0
 13 18  1  0  0  0
 14 15  1  0  0  0
 14 33  1  0  0  0
 15 16  1  0  0  0
 15 34  1  0  0  0
 15 35  1  0  0  0
 16 17  1  0  0  0
 16 36  1  0  0  0
 16 37  1  0  0  0
 17 19  1  0  0  0
 17 38  1  0  0  0
 18 39  1  0  0  0
 18 40  1  0  0  0
 18 41  1  0  0  0
 19 42  1  0  0  0
 22 44  1  0  0  0
M  END
>  <Name>
lit-217

>  <Family>
A.1

>  <RBA>
0.2,0.2

>  <RBA_avg>
0.200000

>  <Method>
CUC,MCF-7

>  <set>
0

$$$$
lit-218
  Cerius2 12180216413D 1   1.00000                          
 Structure written by MMmdl.
 44 47  0  0  0  0  0  0  0  0999 V2000
   -6.7818   -4.1108   16.7385 C   0  0  0  0  0  0
   -5.3984   -4.1405   16.6680 C   0  0  0  0  0  0
   -4.7845   -4.4463   15.4564 C   0  0  0  0  0  0
   -7.5621   -4.3724   15.6133 C   0  0  0  0  0  0
   -6.9616   -4.6604   14.3729 C   0  0  0  0  0  0
   -5.5512   -4.7223   14.3099 C   0  0  0  0  0  0
   -4.8116   -5.0266   13.0274 C   0  0  0  0  0  0
   -5.6937   -5.6006   11.9229 C   0  0  0  0  0  0
   -7.8069   -4.9946   13.1434 C   0  0  0  0  0  0
   -6.9935   -4.7995   11.8275 C   0  0  0  0  0  0
   -9.9785   -4.5924   11.7921 C   0  0  0  0  0  0
   -9.1773   -4.2686   13.0683 C   0  0  0  0  0  0
   -9.1436   -4.3791   10.5230 C   0  0  0  0  0  0
   -7.8626   -5.2298   10.6455 C   0  0  0  0  0  0
   -7.2773   -5.1964    9.2364 C   0  0  0  0  0  0
   -8.5139   -5.1817    8.3189 C   0  0  0  0  0  0
   -9.7351   -5.0028    9.2426 C   0  0  0  0  0  0
  -10.7376   -4.2004    8.6386 O   0  0  0  0  0  0
   -8.8978   -2.8619   10.3212 C   0  0  0  0  0  0
   -7.3530   -3.8220   17.9435 O   0  0  0  0  0  0
   -4.7944   -3.9331   17.5480 H   0  0  0  0  0  0
   -3.6960   -4.4713   15.4068 H   0  0  0  0  0  0
   -8.6441   -4.3587   15.7124 H   0  0  0  0  0  0
   -3.9970   -5.7330   13.2279 H   0  0  0  0  0  0
   -4.3573   -4.0923   12.6728 H   0  0  0  0  0  0
   -5.9159   -6.6550   12.1319 H   0  0  0  0  0  0
   -5.1393   -5.5729   10.9783 H   0  0  0  0  0  0
   -8.0320   -6.0682   13.2386 H   0  0  0  0  0  0
   -6.7213   -3.7420   11.7165 H   0  0  0  0  0  0
  -10.8890   -3.9819   11.7641 H   0  0  0  0  0  0
  -10.3107   -5.6373   11.8494 H   0  0  0  0  0  0
   -9.0278   -3.1854   13.1516 H   0  0  0  0  0  0
   -9.8047   -4.5554   13.9202 H   0  0  0  0  0  0
   -8.1538   -6.2779   10.8283 H   0  0  0  0  0  0
   -6.6436   -6.0660    9.0347 H   0  0  0  0  0  0
   -6.6703   -4.2987    9.0742 H   0  0  0  0  0  0
   -8.5985   -6.1224    7.7633 H   0  0  0  0  0  0
   -8.4379   -4.3795    7.5763 H   0  0  0  0  0  0
  -10.1766   -5.9834    9.4612 H   0  0  0  0  0  0
  -10.9849   -4.6527    7.8044 H   0  0  0  0  0  0
   -8.3283   -2.6476    9.4115 H   0  0  0  0  0  0
   -8.3526   -2.4068   11.1523 H   0  0  0  0  0  0
   -9.8504   -2.3258   10.2375 H   0  0  0  0  0  0
   -8.3280   -3.8364   17.8370 H   0  0  0  0  0  0
  1  2  2  0  0  0
  1  4  1  0  0  0
  1 20  1  0  0  0
  2  3  1  0  0  0
  2 21  1  0  0  0
  3  6  2  0  0  0
  3 22  1  0  0  0
  4  5  2  0  0  0
  4 23  1  0  0  0
  5  6  1  0  0  0
  5  9  1  0  0  0
  6  7  1  0  0  0
  7  8  1  0  0  0
  7 24  1  0  0  0
  7 25  1  0  0  0
  8 10  1  0  0  0
  8 26  1  0  0  0
  8 27  1  0  0  0
  9 10  1  0  0  0
  9 12  1  0  0  0
  9 28  1  0  0  0
 10 14  1  0  0  0
 10 29  1  0  0  0
 11 12  1  0  0  0
 11 13  1  0  0  0
 11 30  1  0  0  0
 11 31  1  0  0  0
 12 32  1  0  0  0
 12 33  1  0  0  0
 13 14  1  0  0  0
 13 17  1  0  0  0
 13 19  1  0  0  0
 14 15  1  0  0  0
 14 34  1  0  0  0
 15 16  1  0  0  0
 15 35  1  0  0  0
 15 36  1  0  0  0
 16 17  1  0  0  0
 16 37  1  0  0  0
 16 38  1  0  0  0
 17 18  1  0  0  0
 17 39  1  0  0  0
 18 40  1  0  0  0
 19 41  1  0  0  0
 19 42  1  0  0  0
 19 43  1  0  0  0
 20 44  1  0  0  0
M  END
>  <Name>
lit-218

>  <Family>
A.1

>  <RBA>
8.74,28,18

>  <RBA_avg>
18.000000

>  <Method>
CUC,LUC,MCF-7

>  <set>
0

$$$$
lit-219
  Cerius2 12180216413D 1   1.00000                          
 Structure written by MMmdl.
 44 47  0  0  0  0  0  0  0  0999 V2000
   -6.8049   -4.1072   16.7432 C   0  0  0  0  0  0
   -5.4189   -4.1159   16.6738 C   0  0  0  0  0  0
   -4.7900   -4.4135   15.4684 C   0  0  0  0  0  0
   -7.5592   -4.3841   15.6032 C   0  0  0  0  0  0
   -6.9451   -4.6681   14.3678 C   0  0  0  0  0  0
   -5.5290   -4.7184   14.3090 C   0  0  0  0  0  0
   -4.8106   -5.0536   13.0195 C   0  0  0  0  0  0
   -5.6996   -5.6184   11.9159 C   0  0  0  0  0  0
   -7.7964   -5.0046   13.1405 C   0  0  0  0  0  0
   -6.9905   -4.8082   11.8229 C   0  0  0  0  0  0
   -9.9739   -4.5959   11.7962 C   0  0  0  0  0  0
   -9.1681   -4.2785   13.0709 C   0  0  0  0  0  0
   -9.1428   -4.3780   10.5257 C   0  0  0  0  0  0
   -7.8639   -5.2321   10.6417 C   0  0  0  0  0  0
   -7.2819   -5.1947    9.2313 C   0  0  0  0  0  0
   -8.5207   -5.1732    8.3168 C   0  0  0  0  0  0
   -9.7391   -4.9947    9.2441 C   0  0  0  0  0  0
  -10.7408   -4.1869    8.6459 O   0  0  0  0  0  0
   -8.8939   -2.8606   10.3303 C   0  0  0  0  0  0
   -3.4223   -4.3868   15.4991 O   0  0  0  0  0  0
   -7.3029   -3.8850   17.6852 H   0  0  0  0  0  0
   -4.8307   -3.8914   17.5610 H   0  0  0  0  0  0
   -8.6422   -4.3800   15.7074 H   0  0  0  0  0  0
   -4.0187   -5.7861   13.2164 H   0  0  0  0  0  0
   -4.3339   -4.1352   12.6534 H   0  0  0  0  0  0
   -5.9295   -6.6715   12.1245 H   0  0  0  0  0  0
   -5.1458   -5.5960   10.9707 H   0  0  0  0  0  0
   -8.0211   -6.0782   13.2375 H   0  0  0  0  0  0
   -6.7121   -3.7521   11.7133 H   0  0  0  0  0  0
  -10.8837   -3.9842   11.7735 H   0  0  0  0  0  0
  -10.3072   -5.6406   11.8500 H   0  0  0  0  0  0
   -9.0187   -3.1957   13.1587 H   0  0  0  0  0  0
   -9.7942   -4.5694   13.9222 H   0  0  0  0  0  0
   -8.1573   -6.2801   10.8214 H   0  0  0  0  0  0
   -6.6511   -6.0653    9.0244 H   0  0  0  0  0  0
   -6.6729   -4.2981    9.0711 H   0  0  0  0  0  0
   -8.6091   -6.1114    7.7576 H   0  0  0  0  0  0
   -8.4444   -4.3683    7.5772 H   0  0  0  0  0  0
  -10.1829   -5.9750    9.4596 H   0  0  0  0  0  0
  -10.9914   -4.6351    7.8105 H   0  0  0  0  0  0
   -8.3271   -2.6437    9.4194 H   0  0  0  0  0  0
   -8.3444   -2.4109   11.1613 H   0  0  0  0  0  0
   -9.8455   -2.3217   10.2524 H   0  0  0  0  0  0
   -3.0687   -4.4708   14.5916 H   0  0  0  0  0  0
  1  2  2  0  0  0
  1  4  1  0  0  0
  1 21  1  0  0  0
  2  3  1  0  0  0
  2 22  1  0  0  0
  3  6  2  0  0  0
  3 20  1  0  0  0
  4  5  2  0  0  0
  4 23  1  0  0  0
  5  6  1  0  0  0
  5  9  1  0  0  0
  6  7  1  0  0  0
  7  8  1  0  0  0
  7 24  1  0  0  0
  7 25  1  0  0  0
  8 10  1  0  0  0
  8 26  1  0  0  0
  8 27  1  0  0  0
  9 10  1  0  0  0
  9 12  1  0  0  0
  9 28  1  0  0  0
 10 14  1  0  0  0
 10 29  1  0  0  0
 11 12  1  0  0  0
 11 13  1  0  0  0
 11 30  1  0  0  0
 11 31  1  0  0  0
 12 32  1  0  0  0
 12 33  1  0  0  0
 13 14  1  0  0  0
 13 17  1  0  0  0
 13 19  1  0  0  0
 14 15  1  0  0  0
 14 34  1  0  0  0
 15 16  1  0  0  0
 15 35  1  0  0  0
 15 36  1  0  0  0
 16 17  1  0  0  0
 16 37  1  0  0  0
 16 38  1  0  0  0
 17 18  1  0  0  0
 17 39  1  0  0  0
 18 40  1  0  0  0
 19 41  1  0  0  0
 19 42  1  0  0  0
 19 43  1  0  0  0
 20 44  1  0  0  0
M  END
>  <Name>
lit-219

>  <Family>
A.1

>  <RBA>
1.32,0.08

>  <RBA_avg>
0.700000

>  <Method>
CUC,MCF-7

>  <set>
0

$$$$
lit-220
  Cerius2 12180216413D 1   1.00000                          
 Structure written by MMmdl.
 48 51  0  0  0  0  0  0  0  0999 V2000
   -6.8084   -4.1136   16.7681 C   0  0  0  0  0  0
   -5.4171   -4.1393   16.6781 C   0  0  0  0  0  0
   -4.7999   -4.4434   15.4622 C   0  0  0  0  0  0
   -7.5620   -4.3786   15.6130 C   0  0  0  0  0  0
   -6.9639   -4.6633   14.3710 C   0  0  0  0  0  0
   -5.5587   -4.7226   14.3120 C   0  0  0  0  0  0
   -4.8145   -5.0248   13.0318 C   0  0  0  0  0  0
   -5.6931   -5.5984   11.9239 C   0  0  0  0  0  0
   -7.8087   -4.9955   13.1416 C   0  0  0  0  0  0
   -6.9940   -4.7991   11.8269 C   0  0  0  0  0  0
   -9.9785   -4.5917   11.7893 C   0  0  0  0  0  0
   -9.1782   -4.2686   13.0663 C   0  0  0  0  0  0
   -9.1426   -4.3789   10.5206 C   0  0  0  0  0  0
   -7.8617   -5.2297   10.6442 C   0  0  0  0  0  0
   -7.2751   -5.1964    9.2356 C   0  0  0  0  0  0
   -8.5112   -5.1819    8.3172 C   0  0  0  0  0  0
   -9.7331   -5.0027    9.2397 C   0  0  0  0  0  0
  -10.7351   -4.2003    8.6348 O   0  0  0  0  0  0
   -4.6229   -3.8695   17.7569 O   0  0  0  0  0  0
   -8.8963   -2.8617   10.3188 C   0  0  0  0  0  0
   -7.5868   -3.8516   17.8635 O   0  0  0  0  0  0
   -6.9502   -3.6818   19.1251 C   0  0  0  0  0  0
   -3.7127   -4.4671   15.3938 H   0  0  0  0  0  0
   -8.6464   -4.3675   15.7085 H   0  0  0  0  0  0
   -4.0001   -5.7310   13.2341 H   0  0  0  0  0  0
   -4.3599   -4.0899   12.6796 H   0  0  0  0  0  0
   -5.9142   -6.6535   12.1307 H   0  0  0  0  0  0
   -5.1365   -5.5682   10.9806 H   0  0  0  0  0  0
   -8.0344   -6.0693   13.2353 H   0  0  0  0  0  0
   -6.7227   -3.7413   11.7166 H   0  0  0  0  0  0
  -10.8887   -3.9805   11.7606 H   0  0  0  0  0  0
  -10.3115   -5.6363   11.8461 H   0  0  0  0  0  0
   -9.0280   -3.1855   13.1500 H   0  0  0  0  0  0
   -9.8065   -4.5551   13.9175 H   0  0  0  0  0  0
   -8.1531   -6.2778   10.8268 H   0  0  0  0  0  0
   -6.6414   -6.0661    9.0345 H   0  0  0  0  0  0
   -6.6681   -4.2988    9.0737 H   0  0  0  0  0  0
   -8.5954   -6.1228    7.7617 H   0  0  0  0  0  0
   -8.4346   -4.3800    7.5742 H   0  0  0  0  0  0
  -10.1749   -5.9833    9.4582 H   0  0  0  0  0  0
  -10.9819   -4.6528    7.8007 H   0  0  0  0  0  0
   -3.6829   -3.9341   17.4866 H   0  0  0  0  0  0
   -8.3251   -2.6479    9.4100 H   0  0  0  0  0  0
   -8.3528   -2.4064   11.1506 H   0  0  0  0  0  0
   -9.8487   -2.3256   10.2329 H   0  0  0  0  0  0
   -7.7373   -3.5605   19.8762 H   0  0  0  0  0  0
   -6.3444   -2.7707   19.1405 H   0  0  0  0  0  0
   -6.3707   -4.5680   19.4024 H   0  0  0  0  0  0
  1  2  2  0  0  0
  1  4  1  0  0  0
  1 21  1  0  0  0
  2  3  1  0  0  0
  2 19  1  0  0  0
  3  6  2  0  0  0
  3 23  1  0  0  0
  4  5  2  0  0  0
  4 24  1  0  0  0
  5  6  1  0  0  0
  5  9  1  0  0  0
  6  7  1  0  0  0
  7  8  1  0  0  0
  7 25  1  0  0  0
  7 26  1  0  0  0
  8 10  1  0  0  0
  8 27  1  0  0  0
  8 28  1  0  0  0
  9 10  1  0  0  0
  9 12  1  0  0  0
  9 29  1  0  0  0
 10 14  1  0  0  0
 10 30  1  0  0  0
 11 12  1  0  0  0
 11 13  1  0  0  0
 11 31  1  0  0  0
 11 32  1  0  0  0
 12 33  1  0  0  0
 12 34  1  0  0  0
 13 14  1  0  0  0
 13 17  1  0  0  0
 13 20  1  0  0  0
 14 15  1  0  0  0
 14 35  1  0  0  0
 15 16  1  0  0  0
 15 36  1  0  0  0
 15 37  1  0  0  0
 16 17  1  0  0  0
 16 38  1  0  0  0
 16 39  1  0  0  0
 17 18  1  0  0  0
 17 40  1  0  0  0
 18 41  1  0  0  0
 19 42  1  0  0  0
 20 43  1  0  0  0
 20 44  1  0  0  0
 20 45  1  0  0  0
 21 22  1  0  0  0
 22 46  1  0  0  0
 22 47  1  0  0  0
 22 48  1  0  0  0
M  END
>  <Name>
lit-220

>  <Family>
A.1

>  <RBA>
0.05,0.1

>  <RBA_avg>
0.080000

>  <Method>
RUC,RBC

>  <set>
0

$$$$
lit-221
  Cerius2 12180216413D 1   1.00000                          
 Structure written by MMmdl.
 48 51  0  0  0  0  0  0  0  0999 V2000
   -6.7952   -4.1371   16.7578 C   0  0  0  0  0  0
   -5.4139   -4.1539   16.6767 C   0  0  0  0  0  0
   -4.7815   -4.3881   15.4547 C   0  0  0  0  0  0
   -7.5538   -4.3777   15.6101 C   0  0  0  0  0  0
   -6.9456   -4.6391   14.3656 C   0  0  0  0  0  0
   -5.5312   -4.6823   14.2989 C   0  0  0  0  0  0
   -4.8071   -5.0031   13.0095 C   0  0  0  0  0  0
   -5.6955   -5.6002   11.9221 C   0  0  0  0  0  0
   -7.7980   -4.9744   13.1401 C   0  0  0  0  0  0
   -6.9912   -4.7962   11.8197 C   0  0  0  0  0  0
   -9.9729   -4.5691   11.7958 C   0  0  0  0  0  0
   -9.1622   -4.2365   13.0640 C   0  0  0  0  0  0
   -9.1433   -4.3783   10.5196 C   0  0  0  0  0  0
   -7.8674   -5.2361   10.6467 C   0  0  0  0  0  0
   -7.2883   -5.2239    9.2348 C   0  0  0  0  0  0
   -8.5294   -5.2128    8.3230 C   0  0  0  0  0  0
   -9.7450   -5.0145    9.2501 C   0  0  0  0  0  0
  -10.7455   -4.2136    8.6407 O   0  0  0  0  0  0
   -4.6995   -3.9576   17.8249 O   0  0  0  0  0  0
   -8.8885   -2.8654   10.2970 C   0  0  0  0  0  0
   -3.4077   -4.4046   15.4153 O   0  0  0  0  0  0
   -2.9060   -3.0852   15.1583 C   0  0  0  0  0  0
   -7.2911   -3.9545   17.7082 H   0  0  0  0  0  0
   -8.6367   -4.3793   15.7183 H   0  0  0  0  0  0
   -3.9877   -5.7047   13.2063 H   0  0  0  0  0  0
   -4.3651   -4.0746   12.6279 H   0  0  0  0  0  0
   -5.9183   -6.6497   12.1536 H   0  0  0  0  0  0
   -5.1463   -5.5922   10.9740 H   0  0  0  0  0  0
   -8.0320   -6.0454   13.2443 H   0  0  0  0  0  0
   -6.7157   -3.7411   11.6954 H   0  0  0  0  0  0
  -10.8786   -3.9513   11.7651 H   0  0  0  0  0  0
  -10.3135   -5.6103   11.8676 H   0  0  0  0  0  0
   -9.0019   -3.1539   13.1334 H   0  0  0  0  0  0
   -9.7887   -4.5064   13.9218 H   0  0  0  0  0  0
   -8.1645   -6.2800   10.8439 H   0  0  0  0  0  0
   -6.6612   -6.1001    9.0410 H   0  0  0  0  0  0
   -6.6764   -4.3324    9.0586 H   0  0  0  0  0  0
   -8.6227   -6.1598    7.7796 H   0  0  0  0  0  0
   -8.4519   -4.4205    7.5700 H   0  0  0  0  0  0
  -10.1915   -5.9895    9.4834 H   0  0  0  0  0  0
  -11.0002   -4.6754    7.8141 H   0  0  0  0  0  0
   -3.7594   -4.1365   17.6049 H   0  0  0  0  0  0
   -8.3212   -2.6668    9.3823 H   0  0  0  0  0  0
   -8.3374   -2.4029   11.1198 H   0  0  0  0  0  0
   -9.8380   -2.3244   10.2097 H   0  0  0  0  0  0
   -1.8196   -3.1580   15.0538 H   0  0  0  0  0  0
   -3.1230   -2.4139   15.9959 H   0  0  0  0  0  0
   -3.3107   -2.6720   14.2286 H   0  0  0  0  0  0
  1  2  2  0  0  0
  1  4  1  0  0  0
  1 23  1  0  0  0
  2  3  1  0  0  0
  2 19  1  0  0  0
  3  6  2  0  0  0
  3 21  1  0  0  0
  4  5  2  0  0  0
  4 24  1  0  0  0
  5  6  1  0  0  0
  5  9  1  0  0  0
  6  7  1  0  0  0
  7  8  1  0  0  0
  7 25  1  0  0  0
  7 26  1  0  0  0
  8 10  1  0  0  0
  8 27  1  0  0  0
  8 28  1  0  0  0
  9 10  1  0  0  0
  9 12  1  0  0  0
  9 29  1  0  0  0
 10 14  1  0  0  0
 10 30  1  0  0  0
 11 12  1  0  0  0
 11 13  1  0  0  0
 11 31  1  0  0  0
 11 32  1  0  0  0
 12 33  1  0  0  0
 12 34  1  0  0  0
 13 14  1  0  0  0
 13 17  1  0  0  0
 13 20  1  0  0  0
 14 15  1  0  0  0
 14 35  1  0  0  0
 15 16  1  0  0  0
 15 36  1  0  0  0
 15 37  1  0  0  0
 16 17  1  0  0  0
 16 38  1  0  0  0
 16 39  1  0  0  0
 17 18  1  0  0  0
 17 40  1  0  0  0
 18 41  1  0  0  0
 19 42  1  0  0  0
 20 43  1  0  0  0
 20 44  1  0  0  0
 20 45  1  0  0  0
 21 22  1  0  0  0
 22 46  1  0  0  0
 22 47  1  0  0  0
 22 48  1  0  0  0
M  END
>  <Name>
lit-221

>  <Family>
A.1

>  <RBA>
1.300000

>  <RBA_avg>
1.300000

>  <Method>
RUC

>  <set>
1

$$$$
lit-228
  Cerius2 12180216413D 1   1.00000                          
 Structure written by MMmdl.
 47 50  0  0  0  0  0  0  0  0999 V2000
   -6.7785   -4.3018   16.8043 C   0  0  0  0  0  0
   -5.3966   -4.2757   16.7085 C   0  0  0  0  0  0
   -4.7714   -4.4407   15.4789 C   0  0  0  0  0  0
   -7.5474   -4.4780   15.6517 C   0  0  0  0  0  0
   -6.9474   -4.6095   14.3856 C   0  0  0  0  0  0
   -5.5378   -4.6324   14.3144 C   0  0  0  0  0  0
   -4.8053   -4.8262   13.0085 C   0  0  0  0  0  0
   -5.6728   -5.4513   11.9208 C   0  0  0  0  0  0
   -7.8021   -4.8349   13.1382 C   0  0  0  0  0  0
   -6.9906   -4.6829   11.8115 C   0  0  0  0  0  0
   -9.9618   -4.3914   11.7788 C   0  0  0  0  0  0
   -9.1588   -4.0537   13.0696 C   0  0  0  0  0  0
   -9.1409   -4.3383   10.4778 C   0  0  0  0  0  0
   -7.8696   -5.1901   10.6663 C   0  0  0  0  0  0
   -7.3058   -5.2993    9.2539 C   0  0  0  0  0  0
   -8.5641   -5.4131    8.3705 C   0  0  0  0  0  0
   -9.7667   -5.1066    9.2901 C   0  0  0  0  0  0
  -10.7733   -4.3691    8.6137 O   0  0  0  0  0  0
   -4.6764   -4.0960   17.8521 O   0  0  0  0  0  0
   -8.8878   -2.8690   10.0566 C   0  0  0  0  0  0
   -9.0028   -2.5427   13.2873 C   0  0  0  0  0  0
   -7.2669   -4.1899   17.7696 H   0  0  0  0  0  0
   -3.6848   -4.4328   15.4111 H   0  0  0  0  0  0
   -8.6295   -4.5134   15.7639 H   0  0  0  0  0  0
   -3.9294   -5.4675   13.1651 H   0  0  0  0  0  0
   -4.4419   -3.8471   12.6718 H   0  0  0  0  0  0
   -5.8671   -6.5064   12.1524 H   0  0  0  0  0  0
   -5.1229   -5.4254   10.9735 H   0  0  0  0  0  0
   -8.0808   -5.8991   13.2109 H   0  0  0  0  0  0
   -6.7355   -3.6294   11.6498 H   0  0  0  0  0  0
  -10.8488   -3.7505   11.7023 H   0  0  0  0  0  0
  -10.3503   -5.4122   11.9033 H   0  0  0  0  0  0
   -9.7959   -4.4055   13.8928 H   0  0  0  0  0  0
   -8.1746   -6.2147   10.9397 H   0  0  0  0  0  0
   -6.6564   -6.1721    9.1336 H   0  0  0  0  0  0
   -6.7250   -4.4106    8.9832 H   0  0  0  0  0  0
   -8.6586   -6.4247    7.9599 H   0  0  0  0  0  0
   -8.5072   -4.7271    7.5181 H   0  0  0  0  0  0
  -10.2145   -6.0483    9.6320 H   0  0  0  0  0  0
  -11.0416   -4.9141    7.8441 H   0  0  0  0  0  0
   -3.7229   -4.1022   17.6215 H   0  0  0  0  0  0
   -8.4948   -2.7880    9.0374 H   0  0  0  0  0  0
   -8.1705   -2.3549   10.6945 H   0  0  0  0  0  0
   -9.8210   -2.2944   10.0792 H   0  0  0  0  0  0
   -9.8958   -1.9994   12.9614 H   0  0  0  0  0  0
   -8.1349   -2.1272   12.7721 H   0  0  0  0  0  0
   -8.8696   -2.3188   14.3509 H   0  0  0  0  0  0
  1  2  2  0  0  0
  1  4  1  0  0  0
  1 22  1  0  0  0
  2  3  1  0  0  0
  2 19  1  0  0  0
  3  6  2  0  0  0
  3 23  1  0  0  0
  4  5  2  0  0  0
  4 24  1  0  0  0
  5  6  1  0  0  0
  5  9  1  0  0  0
  6  7  1  0  0  0
  7  8  1  0  0  0
  7 25  1  0  0  0
  7 26  1  0  0  0
  8 10  1  0  0  0
  8 27  1  0  0  0
  8 28  1  0  0  0
  9 10  1  0  0  0
  9 12  1  0  0  0
  9 29  1  0  0  0
 10 14  1  0  0  0
 10 30  1  0  0  0
 11 12  1  0  0  0
 11 13  1  0  0  0
 11 31  1  0  0  0
 11 32  1  0  0  0
 12 21  1  0  0  0
 12 33  1  0  0  0
 13 14  1  0  0  0
 13 17  1  0  0  0
 13 20  1  0  0  0
 14 15  1  0  0  0
 14 34  1  0  0  0
 15 16  1  0  0  0
 15 35  1  0  0  0
 15 36  1  0  0  0
 16 17  1  0  0  0
 16 37  1  0  0  0
 16 38  1  0  0  0
 17 18  1  0  0  0
 17 39  1  0  0  0
 18 40  1  0  0  0
 19 41  1  0  0  0
 20 42  1  0  0  0
 20 43  1  0  0  0
 20 44  1  0  0  0
 21 45  1  0  0  0
 21 46  1  0  0  0
 21 47  1  0  0  0
M  END
>  <Name>
lit-228

>  <Family>
A.1

>  <RBA>
124,65

>  <RBA_avg>
95.000000

>  <Method>
RUC,RBC

>  <set>
0

$$$$
lit-229
  Cerius2 12180216413D 1   1.00000                          
 Structure written by MMmdl.
 51 54  0  0  0  0  0  0  0  0999 V2000
   -6.7805   -4.3375   16.8091 C   0  0  0  0  0  0
   -5.3988   -4.2984   16.7141 C   0  0  0  0  0  0
   -4.7720   -4.4385   15.4822 C   0  0  0  0  0  0
   -7.5478   -4.5000   15.6537 C   0  0  0  0  0  0
   -6.9458   -4.6030   14.3856 C   0  0  0  0  0  0
   -5.5367   -4.6171   14.3146 C   0  0  0  0  0  0
   -4.8039   -4.7933   13.0066 C   0  0  0  0  0  0
   -5.6674   -5.4258   11.9202 C   0  0  0  0  0  0
   -7.8006   -4.8078   13.1355 C   0  0  0  0  0  0
   -6.9884   -4.6636   11.8083 C   0  0  0  0  0  0
   -9.9553   -4.3581   11.7787 C   0  0  0  0  0  0
   -9.1445   -4.0036   13.0656 C   0  0  0  0  0  0
   -9.1400   -4.3329   10.4721 C   0  0  0  0  0  0
   -7.8690   -5.1834   10.6697 C   0  0  0  0  0  0
   -7.3106   -5.3147    9.2573 C   0  0  0  0  0  0
   -8.5741   -5.4517    8.3837 C   0  0  0  0  0  0
   -9.7726   -5.1247    9.3026 C   0  0  0  0  0  0
  -10.7812   -4.3993    8.6164 O   0  0  0  0  0  0
   -4.6802   -4.1325   17.8607 O   0  0  0  0  0  0
   -8.8858   -2.8742   10.0153 C   0  0  0  0  0  0
   -8.9536   -2.4913   13.3005 C   0  0  0  0  0  0
  -10.2043   -1.8088   13.1444 O   0  0  0  0  0  0
  -10.0519   -0.4019   13.3264 C   0  0  0  0  0  0
   -7.2697   -4.2468   17.7762 H   0  0  0  0  0  0
   -3.6854   -4.4231   15.4151 H   0  0  0  0  0  0
   -8.6297   -4.5475   15.7650 H   0  0  0  0  0  0
   -3.9193   -5.4239   13.1575 H   0  0  0  0  0  0
   -4.4544   -3.8079   12.6738 H   0  0  0  0  0  0
   -5.8569   -6.4814   12.1541 H   0  0  0  0  0  0
   -5.1177   -5.3991   10.9728 H   0  0  0  0  0  0
   -8.0957   -5.8678   13.2050 H   0  0  0  0  0  0
   -6.7375   -3.6103   11.6399 H   0  0  0  0  0  0
  -10.8463   -3.7258   11.6882 H   0  0  0  0  0  0
  -10.3425   -5.3770   11.9225 H   0  0  0  0  0  0
   -9.7901   -4.3442   13.8876 H   0  0  0  0  0  0
   -8.1749   -6.2040   10.9572 H   0  0  0  0  0  0
   -6.6570   -6.1858    9.1490 H   0  0  0  0  0  0
   -6.7368   -4.4274    8.9678 H   0  0  0  0  0  0
   -8.6692   -6.4735    7.9994 H   0  0  0  0  0  0
   -8.5227   -4.7872    7.5142 H   0  0  0  0  0  0
  -10.2203   -6.0586    9.6657 H   0  0  0  0  0  0
  -11.0541   -4.9591    7.8590 H   0  0  0  0  0  0
   -3.7266   -4.1275   17.6304 H   0  0  0  0  0  0
   -8.5378   -2.8153    8.9784 H   0  0  0  0  0  0
   -8.1308   -2.3613   10.6090 H   0  0  0  0  0  0
   -9.8086   -2.2853   10.0688 H   0  0  0  0  0  0
   -8.2100   -2.0613   12.6275 H   0  0  0  0  0  0
   -8.6033   -2.3118   14.3226 H   0  0  0  0  0  0
  -11.0317    0.0669   13.2037 H   0  0  0  0  0  0
   -9.3706    0.0077   12.5745 H   0  0  0  0  0  0
   -9.6819   -0.1847   14.3329 H   0  0  0  0  0  0
  1  2  2  0  0  0
  1  4  1  0  0  0
  1 24  1  0  0  0
  2  3  1  0  0  0
  2 19  1  0  0  0
  3  6  2  0  0  0
  3 25  1  0  0  0
  4  5  2  0  0  0
  4 26  1  0  0  0
  5  6  1  0  0  0
  5  9  1  0  0  0
  6  7  1  0  0  0
  7  8  1  0  0  0
  7 27  1  0  0  0
  7 28  1  0  0  0
  8 10  1  0  0  0
  8 29  1  0  0  0
  8 30  1  0  0  0
  9 10  1  0  0  0
  9 12  1  0  0  0
  9 31  1  0  0  0
 10 14  1  0  0  0
 10 32  1  0  0  0
 11 12  1  0  0  0
 11 13  1  0  0  0
 11 33  1  0  0  0
 11 34  1  0  0  0
 12 21  1  0  0  0
 12 35  1  0  0  0
 13 14  1  0  0  0
 13 17  1  0  0  0
 13 20  1  0  0  0
 14 15  1  0  0  0
 14 36  1  0  0  0
 15 16  1  0  0  0
 15 37  1  0  0  0
 15 38  1  0  0  0
 16 17  1  0  0  0
 16 39  1  0  0  0
 16 40  1  0  0  0
 17 18  1  0  0  0
 17 41  1  0  0  0
 18 42  1  0  0  0
 19 43  1  0  0  0
 20 44  1  0  0  0
 20 45  1  0  0  0
 20 46  1  0  0  0
 21 22  1  0  0  0
 21 47  1  0  0  0
 21 48  1  0  0  0
 22 23  1  0  0  0
 23 49  1  0  0  0
 23 50  1  0  0  0
 23 51  1  0  0  0
M  END
>  <Name>
lit-229

>  <Family>
A.1

>  <RBA>
37.000000

>  <RBA_avg>
37.000000

>  <Method>
RBC

>  <set>
1

$$$$
lit-230
  Cerius2 12180216413D 1   1.00000                          
 Structure written by MMmdl.
 45 48  0  0  0  0  0  0  0  0999 V2000
   -6.7790   -4.2117   16.7847 C   0  0  0  0  0  0
   -5.3968   -4.2278   16.6941 C   0  0  0  0  0  0
   -4.7729   -4.4566   15.4743 C   0  0  0  0  0  0
   -7.5502   -4.4161   15.6378 C   0  0  0  0  0  0
   -6.9509   -4.6252   14.3816 C   0  0  0  0  0  0
   -5.5407   -4.6752   14.3150 C   0  0  0  0  0  0
   -4.8052   -4.9101   13.0171 C   0  0  0  0  0  0
   -5.6805   -5.5026   11.9184 C   0  0  0  0  0  0
   -7.8043   -4.8957   13.1389 C   0  0  0  0  0  0
   -6.9910   -4.7191   11.8182 C   0  0  0  0  0  0
   -9.9770   -4.4785   11.7862 C   0  0  0  0  0  0
   -9.1729   -4.1455   13.0672 C   0  0  0  0  0  0
   -9.1453   -4.3548   10.4947 C   0  0  0  0  0  0
   -7.8658   -5.2001   10.6578 C   0  0  0  0  0  0
   -7.2930   -5.2535    9.2449 C   0  0  0  0  0  0
   -8.5424   -5.3228    8.3455 C   0  0  0  0  0  0
   -9.7534   -5.0710    9.2684 C   0  0  0  0  0  0
  -10.7616   -4.3115    8.6201 O   0  0  0  0  0  0
   -4.6755   -4.0198   17.8320 O   0  0  0  0  0  0
   -8.8966   -2.8623   10.1550 C   0  0  0  0  0  0
   -8.9780   -2.7308   13.1661 O   0  0  0  0  0  0
   -7.2668   -4.0438   17.7423 H   0  0  0  0  0  0
   -3.6862   -4.4728   15.4090 H   0  0  0  0  0  0
   -8.6322   -4.4111   15.7511 H   0  0  0  0  0  0
   -3.9565   -5.5836   13.1876 H   0  0  0  0  0  0
   -4.3997   -3.9480   12.6788 H   0  0  0  0  0  0
   -5.8880   -6.5590   12.1330 H   0  0  0  0  0  0
   -5.1283   -5.4704   10.9725 H   0  0  0  0  0  0
   -8.0561   -5.9657   13.2166 H   0  0  0  0  0  0
   -6.7329   -3.6620   11.6811 H   0  0  0  0  0  0
  -10.8618   -3.8336   11.7195 H   0  0  0  0  0  0
  -10.3446   -5.5088   11.8803 H   0  0  0  0  0  0
   -9.7947   -4.4331   13.9223 H   0  0  0  0  0  0
   -8.1615   -6.2360   10.8969 H   0  0  0  0  0  0
   -6.6474   -6.1245    9.0942 H   0  0  0  0  0  0
   -6.7041   -4.3585    9.0157 H   0  0  0  0  0  0
   -8.6293   -6.3095    7.8768 H   0  0  0  0  0  0
   -8.4805   -4.5892    7.5339 H   0  0  0  0  0  0
  -10.1949   -6.0317    9.5626 H   0  0  0  0  0  0
  -11.0191   -4.8215    7.8230 H   0  0  0  0  0  0
   -3.7216   -4.0614   17.6060 H   0  0  0  0  0  0
   -8.4235   -2.7283    9.1769 H   0  0  0  0  0  0
   -8.2531   -2.3599   10.8795 H   0  0  0  0  0  0
   -9.8439   -2.3112   10.1270 H   0  0  0  0  0  0
   -9.8709   -2.3291   13.1904 H   0  0  0  0  0  0
  1  2  2  0  0  0
  1  4  1  0  0  0
  1 22  1  0  0  0
  2  3  1  0  0  0
  2 19  1  0  0  0
  3  6  2  0  0  0
  3 23  1  0  0  0
  4  5  2  0  0  0
  4 24  1  0  0  0
  5  6  1  0  0  0
  5  9  1  0  0  0
  6  7  1  0  0  0
  7  8  1  0  0  0
  7 25  1  0  0  0
  7 26  1  0  0  0
  8 10  1  0  0  0
  8 27  1  0  0  0
  8 28  1  0  0  0
  9 10  1  0  0  0
  9 12  1  0  0  0
  9 29  1  0  0  0
 10 14  1  0  0  0
 10 30  1  0  0  0
 11 12  1  0  0  0
 11 13  1  0  0  0
 11 31  1  0  0  0
 11 32  1  0  0  0
 12 21  1  0  0  0
 12 33  1  0  0  0
 13 14  1  0  0  0
 13 17  1  0  0  0
 13 20  1  0  0  0
 14 15  1  0  0  0
 14 34  1  0  0  0
 15 16  1  0  0  0
 15 35  1  0  0  0
 15 36  1  0  0  0
 16 17  1  0  0  0
 16 37  1  0  0  0
 16 38  1  0  0  0
 17 18  1  0  0  0
 17 39  1  0  0  0
 18 40  1  0  0  0
 19 41  1  0  0  0
 20 42  1  0  0  0
 20 43  1  0  0  0
 20 44  1  0  0  0
 21 45  1  0  0  0
M  END
>  <Name>
lit-230

>  <Family>
A.1

>  <RBA>
3,4,7

>  <RBA_avg>
4.700000

>  <Method>
RUC,RBC,RBC

>  <set>
0

$$$$
lit-231
  Cerius2 12180216413D 1   1.00000                          
 Structure written by MMmdl.
 51 54  0  0  0  0  0  0  0  0999 V2000
   -6.7808   -4.3552   16.8118 C   0  0  0  0  0  0
   -5.3991   -4.3169   16.7181 C   0  0  0  0  0  0
   -4.7715   -4.4437   15.4851 C   0  0  0  0  0  0
   -7.5474   -4.5036   15.6539 C   0  0  0  0  0  0
   -6.9447   -4.5935   14.3849 C   0  0  0  0  0  0
   -5.5355   -4.6083   14.3150 C   0  0  0  0  0  0
   -4.8033   -4.7705   13.0053 C   0  0  0  0  0  0
   -5.6643   -5.4064   11.9190 C   0  0  0  0  0  0
   -7.7999   -4.7850   13.1324 C   0  0  0  0  0  0
   -6.9872   -4.6480   11.8048 C   0  0  0  0  0  0
   -9.9517   -4.3439   11.7786 C   0  0  0  0  0  0
   -9.1440   -3.9694   13.0613 C   0  0  0  0  0  0
   -9.1397   -4.3320   10.4689 C   0  0  0  0  0  0
   -7.8679   -5.1796   10.6721 C   0  0  0  0  0  0
   -7.3123   -5.3276    9.2603 C   0  0  0  0  0  0
   -8.5779   -5.4730    8.3911 C   0  0  0  0  0  0
   -9.7742   -5.1377    9.3100 C   0  0  0  0  0  0
  -10.7860   -4.4212    8.6191 O   0  0  0  0  0  0
   -4.6810   -4.1648   17.8670 O   0  0  0  0  0  0
   -8.8865   -2.8800    9.9932 C   0  0  0  0  0  0
   -8.9367   -2.4516   13.2987 C   0  0  0  0  0  0
  -10.2235   -1.6227   13.2411 C   0  0  0  0  0  0
   -9.9795   -0.2339   13.6668 C   0  0  0  0  0  0
   -9.7926    0.8649   14.0019 N   0  0  0  0  0  0
   -7.2708   -4.2741   17.7794 H   0  0  0  0  0  0
   -3.6849   -4.4285   15.4189 H   0  0  0  0  0  0
   -8.6295   -4.5489   15.7627 H   0  0  0  0  0  0
   -3.9129   -5.3940   13.1511 H   0  0  0  0  0  0
   -4.4634   -3.7804   12.6766 H   0  0  0  0  0  0
   -5.8510   -6.4622   12.1537 H   0  0  0  0  0  0
   -5.1142   -5.3786   10.9718 H   0  0  0  0  0  0
   -8.1036   -5.8427   13.2014 H   0  0  0  0  0  0
   -6.7398   -3.5951   11.6282 H   0  0  0  0  0  0
  -10.8531   -3.7304   11.6801 H   0  0  0  0  0  0
  -10.3272   -5.3655   11.9362 H   0  0  0  0  0  0
   -9.7766   -4.3079   13.8941 H   0  0  0  0  0  0
   -8.1729   -6.1974   10.9705 H   0  0  0  0  0  0
   -6.6604   -6.2013    9.1610 H   0  0  0  0  0  0
   -6.7371   -4.4451    8.9595 H   0  0  0  0  0  0
   -8.6738   -6.4983    8.0162 H   0  0  0  0  0  0
   -8.5289   -4.8164    7.5154 H   0  0  0  0  0  0
  -10.2196   -6.0682    9.6844 H   0  0  0  0  0  0
  -11.0602   -4.9893    7.8685 H   0  0  0  0  0  0
   -3.7273   -4.1584   17.6374 H   0  0  0  0  0  0
   -8.5074   -2.8360    8.9665 H   0  0  0  0  0  0
   -8.1565   -2.3477   10.6003 H   0  0  0  0  0  0
   -9.8168   -2.3010   10.0048 H   0  0  0  0  0  0
   -8.1948   -2.0356   12.6131 H   0  0  0  0  0  0
   -8.4999   -2.3090   14.2951 H   0  0  0  0  0  0
  -10.9846   -2.0711   13.8897 H   0  0  0  0  0  0
  -10.6267   -1.6075   12.2242 H   0  0  0  0  0  0
  1  2  2  0  0  0
  1  4  1  0  0  0
  1 25  1  0  0  0
  2  3  1  0  0  0
  2 19  1  0  0  0
  3  6  2  0  0  0
  3 26  1  0  0  0
  4  5  2  0  0  0
  4 27  1  0  0  0
  5  6  1  0  0  0
  5  9  1  0  0  0
  6  7  1  0  0  0
  7  8  1  0  0  0
  7 28  1  0  0  0
  7 29  1  0  0  0
  8 10  1  0  0  0
  8 30  1  0  0  0
  8 31  1  0  0  0
  9 10  1  0  0  0
  9 12  1  0  0  0
  9 32  1  0  0  0
 10 14  1  0  0  0
 10 33  1  0  0  0
 11 12  1  0  0  0
 11 13  1  0  0  0
 11 34  1  0  0  0
 11 35  1  0  0  0
 12 21  1  0  0  0
 12 36  1  0  0  0
 13 14  1  0  0  0
 13 17  1  0  0  0
 13 20  1  0  0  0
 14 15  1  0  0  0
 14 37  1  0  0  0
 15 16  1  0  0  0
 15 38  1  0  0  0
 15 39  1  0  0  0
 16 17  1  0  0  0
 16 40  1  0  0  0
 16 41  1  0  0  0
 17 18  1  0  0  0
 17 42  1  0  0  0
 18 43  1  0  0  0
 19 44  1  0  0  0
 20 45  1  0  0  0
 20 46  1  0  0  0
 20 47  1  0  0  0
 21 22  1  0  0  0
 21 48  1  0  0  0
 21 49  1  0  0  0
 22 23  1  0  0  0
 22 50  1  0  0  0
 22 51  1  0  0  0
 23 24  3  0  0  0
M  END
>  <Name>
lit-231

>  <Family>
A.1

>  <RBA>
18.000000

>  <RBA_avg>
18.000000

>  <Method>
LUC*

>  <set>
1

$$$$
lit-232
  Cerius2 12180216413D 1   1.00000                          
 Structure written by MMmdl.
 48 51  0  0  0  0  0  0  0  0999 V2000
   -6.7739   -4.2716   16.8017 C   0  0  0  0  0  0
   -5.3919   -4.2645   16.7059 C   0  0  0  0  0  0
   -4.7690   -4.4506   15.4783 C   0  0  0  0  0  0
   -7.5452   -4.4533   15.6515 C   0  0  0  0  0  0
   -6.9472   -4.6127   14.3875 C   0  0  0  0  0  0
   -5.5375   -4.6471   14.3159 C   0  0  0  0  0  0
   -4.8061   -4.8503   13.0111 C   0  0  0  0  0  0
   -5.6777   -5.4619   11.9198 C   0  0  0  0  0  0
   -7.8048   -4.8490   13.1405 C   0  0  0  0  0  0
   -6.9933   -4.6883   11.8146 C   0  0  0  0  0  0
   -9.9720   -4.4168   11.7758 C   0  0  0  0  0  0
   -9.1797   -4.0884   13.0764 C   0  0  0  0  0  0
   -9.1435   -4.3418   10.4797 C   0  0  0  0  0  0
   -7.8695   -5.1898   10.6646 C   0  0  0  0  0  0
   -7.3002   -5.2843    9.2528 C   0  0  0  0  0  0
   -8.5539   -5.3898    8.3624 C   0  0  0  0  0  0
   -9.7609   -5.0979    9.2801 C   0  0  0  0  0  0
   -8.8923   -2.8661   10.0787 C   0  0  0  0  0  0
  -10.7670   -4.3565    8.6075 O   0  0  0  0  0  0
   -4.6693   -4.0792   17.8472 O   0  0  0  0  0  0
   -9.0579   -2.5945   13.3079 C   0  0  0  0  0  0
  -10.0991   -1.7507   13.2981 C   0  0  0  0  0  0
   -7.2610   -4.1394   17.7651 H   0  0  0  0  0  0
   -3.6824   -4.4531   15.4099 H   0  0  0  0  0  0
   -8.6276   -4.4691   15.7650 H   0  0  0  0  0  0
   -3.9384   -5.5023   13.1689 H   0  0  0  0  0  0
   -4.4298   -3.8755   12.6759 H   0  0  0  0  0  0
   -5.8763   -6.5179   12.1440 H   0  0  0  0  0  0
   -5.1273   -5.4326   10.9728 H   0  0  0  0  0  0
   -8.0688   -5.9171   13.2137 H   0  0  0  0  0  0
   -6.7376   -3.6335   11.6606 H   0  0  0  0  0  0
  -10.8630   -3.7805   11.6969 H   0  0  0  0  0  0
  -10.3545   -5.4416   11.8856 H   0  0  0  0  0  0
   -9.8014   -4.4831   13.8931 H   0  0  0  0  0  0
   -8.1714   -6.2177   10.9290 H   0  0  0  0  0  0
   -6.6498   -6.1557    9.1264 H   0  0  0  0  0  0
   -6.7185   -4.3928    8.9936 H   0  0  0  0  0  0
   -8.6440   -6.3961    7.9381 H   0  0  0  0  0  0
   -8.4946   -4.6925    7.5194 H   0  0  0  0  0  0
  -10.2070   -6.0452    9.6089 H   0  0  0  0  0  0
   -8.4816   -2.7717    9.0677 H   0  0  0  0  0  0
   -8.1901   -2.3546   10.7362 H   0  0  0  0  0  0
   -9.8296   -2.2978   10.0906 H   0  0  0  0  0  0
  -11.0299   -4.8936    7.8303 H   0  0  0  0  0  0
   -3.7159   -4.1003   17.6167 H   0  0  0  0  0  0
   -8.0720   -2.1911   13.5289 H   0  0  0  0  0  0
   -9.9585   -0.6899   13.4885 H   0  0  0  0  0  0
  -11.1122   -2.0904   13.1009 H   0  0  0  0  0  0
  1  2  2  0  0  0
  1  4  1  0  0  0
  1 23  1  0  0  0
  2  3  1  0  0  0
  2 20  1  0  0  0
  3  6  2  0  0  0
  3 24  1  0  0  0
  4  5  2  0  0  0
  4 25  1  0  0  0
  5  6  1  0  0  0
  5  9  1  0  0  0
  6  7  1  0  0  0
  7  8  1  0  0  0
  7 26  1  0  0  0
  7 27  1  0  0  0
  8 10  1  0  0  0
  8 28  1  0  0  0
  8 29  1  0  0  0
  9 10  1  0  0  0
  9 12  1  0  0  0
  9 30  1  0  0  0
 10 14  1  0  0  0
 10 31  1  0  0  0
 11 12  1  0  0  0
 11 13  1  0  0  0
 11 32  1  0  0  0
 11 33  1  0  0  0
 12 21  1  0  0  0
 12 34  1  0  0  0
 13 14  1  0  0  0
 13 17  1  0  0  0
 13 18  1  0  0  0
 14 15  1  0  0  0
 14 35  1  0  0  0
 15 16  1  0  0  0
 15 36  1  0  0  0
 15 37  1  0  0  0
 16 17  1  0  0  0
 16 38  1  0  0  0
 16 39  1  0  0  0
 17 19  1  0  0  0
 17 40  1  0  0  0
 18 41  1  0  0  0
 18 42  1  0  0  0
 18 43  1  0  0  0
 19 44  1  0  0  0
 20 45  1  0  0  0
 21 22  2  0  0  0
 21 46  1  0  0  0
 22 47  1  0  0  0
 22 48  1  0  0  0
M  END
>  <Name>
lit-232

>  <Family>
A.1

>  <RBA>
123,119

>  <RBA_avg>
121.000000

>  <Method>
RUC*,LUC*

>  <set>
0

$$$$
lit-233
  Cerius2 12180216413D 1   1.00000                          
 Structure written by MMmdl.
 54 57  0  0  0  0  0  0  0  0999 V2000
   -6.7804   -4.3521   16.8118 C   0  0  0  0  0  0
   -5.3985   -4.3160   16.7180 C   0  0  0  0  0  0
   -4.7712   -4.4450   15.4850 C   0  0  0  0  0  0
   -7.5471   -4.5009   15.6541 C   0  0  0  0  0  0
   -6.9446   -4.5936   14.3852 C   0  0  0  0  0  0
   -5.5354   -4.6099   14.3152 C   0  0  0  0  0  0
   -4.8034   -4.7734   13.0056 C   0  0  0  0  0  0
   -5.6652   -5.4080   11.9192 C   0  0  0  0  0  0
   -7.8002   -4.7859   13.1328 C   0  0  0  0  0  0
   -6.9875   -4.6485   11.8051 C   0  0  0  0  0  0
   -9.9522   -4.3469   11.7787 C   0  0  0  0  0  0
   -9.1451   -3.9716   13.0613 C   0  0  0  0  0  0
   -9.1402   -4.3322   10.4691 C   0  0  0  0  0  0
   -7.8679   -5.1791   10.6717 C   0  0  0  0  0  0
   -7.3116   -5.3251    9.2601 C   0  0  0  0  0  0
   -8.5766   -5.4706    8.3902 C   0  0  0  0  0  0
   -9.7737   -5.1371    9.3089 C   0  0  0  0  0  0
  -10.7857   -4.4212    8.6178 O   0  0  0  0  0  0
   -4.6802   -4.1634   17.8667 O   0  0  0  0  0  0
   -8.8882   -2.8793    9.9954 C   0  0  0  0  0  0
   -8.9377   -2.4543   13.2989 C   0  0  0  0  0  0
  -11.2040    0.6226   13.6017 C   0  0  0  0  0  0
  -12.1780    1.2580   13.5532 N   0  0  0  0  0  0
  -10.2238   -1.6226   13.2366 C   0  0  0  0  0  0
   -9.9697   -0.1754   13.6655 C   0  0  0  0  0  0
   -7.2703   -4.2688   17.7791 H   0  0  0  0  0  0
   -3.6846   -4.4313   15.4189 H   0  0  0  0  0  0
   -8.6294   -4.5435   15.7625 H   0  0  0  0  0  0
   -3.9140   -5.3983   13.1516 H   0  0  0  0  0  0
   -4.4620   -3.7839   12.6768 H   0  0  0  0  0  0
   -5.8528   -6.4639   12.1535 H   0  0  0  0  0  0
   -5.1150   -5.3806   10.9720 H   0  0  0  0  0  0
   -8.1031   -5.8439   13.2020 H   0  0  0  0  0  0
   -6.7394   -3.5957   11.6292 H   0  0  0  0  0  0
  -10.8554   -3.7361   11.6805 H   0  0  0  0  0  0
  -10.3252   -5.3696   11.9356 H   0  0  0  0  0  0
   -9.7778   -4.3104   13.8939 H   0  0  0  0  0  0
   -8.1722   -6.1975   10.9689 H   0  0  0  0  0  0
   -6.6589   -6.1980    9.1599 H   0  0  0  0  0  0
   -6.7370   -4.4417    8.9605 H   0  0  0  0  0  0
   -8.6716   -6.4955    8.0142 H   0  0  0  0  0  0
   -8.5279   -4.8131    7.5152 H   0  0  0  0  0  0
  -10.2184   -6.0684    9.6823 H   0  0  0  0  0  0
  -11.0590   -4.9894    7.8668 H   0  0  0  0  0  0
   -3.7265   -4.1588   17.6370 H   0  0  0  0  0  0
   -8.5103   -2.8340    8.9682 H   0  0  0  0  0  0
   -8.1575   -2.3477   10.6021 H   0  0  0  0  0  0
   -9.8187   -2.3008   10.0085 H   0  0  0  0  0  0
   -8.1966   -2.0393   12.6131 H   0  0  0  0  0  0
   -8.5090   -2.3119   14.2978 H   0  0  0  0  0  0
  -10.9852   -2.0719   13.8866 H   0  0  0  0  0  0
  -10.6292   -1.6234   12.2192 H   0  0  0  0  0  0
   -9.5756   -0.1531   14.6880 H   0  0  0  0  0  0
   -9.2099    0.2759   13.0168 H   0  0  0  0  0  0
  1  2  2  0  0  0
  1  4  1  0  0  0
  1 26  1  0  0  0
  2  3  1  0  0  0
  2 19  1  0  0  0
  3  6  2  0  0  0
  3 27  1  0  0  0
  4  5  2  0  0  0
  4 28  1  0  0  0
  5  6  1  0  0  0
  5  9  1  0  0  0
  6  7  1  0  0  0
  7  8  1  0  0  0
  7 29  1  0  0  0
  7 30  1  0  0  0
  8 10  1  0  0  0
  8 31  1  0  0  0
  8 32  1  0  0  0
  9 10  1  0  0  0
  9 12  1  0  0  0
  9 33  1  0  0  0
 10 14  1  0  0  0
 10 34  1  0  0  0
 11 12  1  0  0  0
 11 13  1  0  0  0
 11 35  1  0  0  0
 11 36  1  0  0  0
 12 21  1  0  0  0
 12 37  1  0  0  0
 13 14  1  0  0  0
 13 17  1  0  0  0
 13 20  1  0  0  0
 14 15  1  0  0  0
 14 38  1  0  0  0
 15 16  1  0  0  0
 15 39  1  0  0  0
 15 40  1  0  0  0
 16 17  1  0  0  0
 16 41  1  0  0  0
 16 42  1  0  0  0
 17 18  1  0  0  0
 17 43  1  0  0  0
 18 44  1  0  0  0
 19 45  1  0  0  0
 20 46  1  0  0  0
 20 47  1  0  0  0
 20 48  1  0  0  0
 21 24  1  0  0  0
 21 49  1  0  0  0
 21 50  1  0  0  0
 22 23  3  0  0  0
 22 25  1  0  0  0
 24 25  1  0  0  0
 24 51  1  0  0  0
 24 52  1  0  0  0
 25 53  1  0  0  0
 25 54  1  0  0  0
M  END
>  <Name>
lit-233

>  <Family>
A.1

>  <RBA>
31.000000

>  <RBA_avg>
31.000000

>  <Method>
LUC*

>  <set>
0

$$$$
lit-234
  Cerius2 12180216413D 1   1.00000                          
 Structure written by MMmdl.
 49 52  0  0  0  0  0  0  0  0999 V2000
   -6.7749   -4.2594   16.7984 C   0  0  0  0  0  0
   -5.3929   -4.2538   16.7028 C   0  0  0  0  0  0
   -4.7698   -4.4482   15.4764 C   0  0  0  0  0  0
   -7.5467   -4.4483   15.6494 C   0  0  0  0  0  0
   -6.9480   -4.6163   14.3866 C   0  0  0  0  0  0
   -5.5383   -4.6514   14.3151 C   0  0  0  0  0  0
   -4.8064   -4.8610   13.0114 C   0  0  0  0  0  0
   -5.6783   -5.4718   11.9198 C   0  0  0  0  0  0
   -7.8047   -4.8585   13.1397 C   0  0  0  0  0  0
   -6.9937   -4.6975   11.8146 C   0  0  0  0  0  0
   -9.9767   -4.4303   11.7782 C   0  0  0  0  0  0
   -9.1790   -4.1102   13.0728 C   0  0  0  0  0  0
   -9.1439   -4.3463   10.4836 C   0  0  0  0  0  0
   -7.8704   -5.1962   10.6638 C   0  0  0  0  0  0
   -7.3000   -5.2828    9.2516 C   0  0  0  0  0  0
   -8.5520   -5.3730    8.3575 C   0  0  0  0  0  0
   -9.7598   -5.0888    9.2759 C   0  0  0  0  0  0
  -10.7636   -4.3384    8.6102 O   0  0  0  0  0  0
   -4.6706   -4.0620   17.8430 O   0  0  0  0  0  0
   -8.8854   -2.8661   10.1011 C   0  0  0  0  0  0
   -9.0432   -2.6484   13.2757 C   0  0  0  0  0  0
   -8.9393   -1.4664   13.4656 C   0  0  0  0  0  0
   -8.8060   -0.0267   13.6957 C   0  0  0  0  0  0
   -7.2618   -4.1210   17.7609 H   0  0  0  0  0  0
   -3.6832   -4.4514   15.4082 H   0  0  0  0  0  0
   -8.6287   -4.4634   15.7648 H   0  0  0  0  0  0
   -3.9411   -5.5156   13.1721 H   0  0  0  0  0  0
   -4.4263   -3.8884   12.6742 H   0  0  0  0  0  0
   -5.8778   -6.5276   12.1441 H   0  0  0  0  0  0
   -5.1279   -5.4431   10.9729 H   0  0  0  0  0  0
   -8.0626   -5.9280   13.2135 H   0  0  0  0  0  0
   -6.7375   -3.6420   11.6636 H   0  0  0  0  0  0
  -10.8641   -3.7887   11.7030 H   0  0  0  0  0  0
  -10.3582   -5.4559   11.8805 H   0  0  0  0  0  0
   -9.8040   -4.4752   13.8993 H   0  0  0  0  0  0
   -8.1724   -6.2252   10.9234 H   0  0  0  0  0  0
   -6.6547   -6.1571    9.1196 H   0  0  0  0  0  0
   -6.7119   -4.3932    9.0004 H   0  0  0  0  0  0
   -8.6444   -6.3732    7.9195 H   0  0  0  0  0  0
   -8.4889   -4.6647    7.5238 H   0  0  0  0  0  0
  -10.2078   -6.0387    9.5945 H   0  0  0  0  0  0
  -11.0268   -4.8667    7.8270 H   0  0  0  0  0  0
   -3.7171   -4.0856   17.6131 H   0  0  0  0  0  0
   -8.4499   -2.7622    9.1018 H   0  0  0  0  0  0
   -8.2014   -2.3597   10.7833 H   0  0  0  0  0  0
   -9.8239   -2.2996   10.0954 H   0  0  0  0  0  0
   -9.3162    0.5407   12.9116 H   0  0  0  0  0  0
   -7.7528    0.2699   13.6995 H   0  0  0  0  0  0
   -9.2422    0.2552   14.6586 H   0  0  0  0  0  0
  1  2  2  0  0  0
  1  4  1  0  0  0
  1 24  1  0  0  0
  2  3  1  0  0  0
  2 19  1  0  0  0
  3  6  2  0  0  0
  3 25  1  0  0  0
  4  5  2  0  0  0
  4 26  1  0  0  0
  5  6  1  0  0  0
  5  9  1  0  0  0
  6  7  1  0  0  0
  7  8  1  0  0  0
  7 27  1  0  0  0
  7 28  1  0  0  0
  8 10  1  0  0  0
  8 29  1  0  0  0
  8 30  1  0  0  0
  9 10  1  0  0  0
  9 12  1  0  0  0
  9 31  1  0  0  0
 10 14  1  0  0  0
 10 32  1  0  0  0
 11 12  1  0  0  0
 11 13  1  0  0  0
 11 33  1  0  0  0
 11 34  1  0  0  0
 12 21  1  0  0  0
 12 35  1  0  0  0
 13 14  1  0  0  0
 13 17  1  0  0  0
 13 20  1  0  0  0
 14 15  1  0  0  0
 14 36  1  0  0  0
 15 16  1  0  0  0
 15 37  1  0  0  0
 15 38  1  0  0  0
 16 17  1  0  0  0
 16 39  1  0  0  0
 16 40  1  0  0  0
 17 18  1  0  0  0
 17 41  1  0  0  0
 18 42  1  0  0  0
 19 43  1  0  0  0
 20 44  1  0  0  0
 20 45  1  0  0  0
 20 46  1  0  0  0
 21 22  3  0  0  0
 22 23  1  0  0  0
 23 47  1  0  0  0
 23 48  1  0  0  0
 23 49  1  0  0  0
M  END
>  <Name>
lit-234

>  <Family>
A.1

>  <RBA>
25.000000

>  <RBA_avg>
25.000000

>  <Method>
LUC*

>  <set>
0

$$$$
lit-235
  Cerius2 12180216413D 1   1.00000                          
 Structure written by MMmdl.
 46 49  0  0  0  0  0  0  0  0999 V2000
   -6.7751   -4.2638   16.7992 C   0  0  0  0  0  0
   -5.3930   -4.2564   16.7035 C   0  0  0  0  0  0
   -4.7698   -4.4474   15.4766 C   0  0  0  0  0  0
   -7.5467   -4.4505   15.6498 C   0  0  0  0  0  0
   -6.9479   -4.6150   14.3866 C   0  0  0  0  0  0
   -5.5382   -4.6490   14.3150 C   0  0  0  0  0  0
   -4.8063   -4.8565   13.0109 C   0  0  0  0  0  0
   -5.6777   -5.4690   11.9198 C   0  0  0  0  0  0
   -7.8045   -4.8554   13.1395 C   0  0  0  0  0  0
   -6.9936   -4.6956   11.8141 C   0  0  0  0  0  0
   -9.9762   -4.4265   11.7782 C   0  0  0  0  0  0
   -9.1778   -4.1054   13.0723 C   0  0  0  0  0  0
   -9.1438   -4.3459   10.4831 C   0  0  0  0  0  0
   -7.8707   -5.1961   10.6644 C   0  0  0  0  0  0
   -7.3007   -5.2859    9.2522 C   0  0  0  0  0  0
   -8.5530   -5.3770    8.3587 C   0  0  0  0  0  0
   -9.7605   -5.0905    9.2769 C   0  0  0  0  0  0
  -10.7640   -4.3409    8.6099 O   0  0  0  0  0  0
   -4.6707   -4.0664   17.8440 O   0  0  0  0  0  0
   -8.8847   -2.8667   10.0975 C   0  0  0  0  0  0
   -9.0413   -2.6435   13.2747 C   0  0  0  0  0  0
   -8.9407   -1.4616   13.4661 C   0  0  0  0  0  0
   -7.2621   -4.1284   17.7622 H   0  0  0  0  0  0
   -3.6832   -4.4495   15.4084 H   0  0  0  0  0  0
   -8.6287   -4.4672   15.7651 H   0  0  0  0  0  0
   -3.9397   -5.5094   13.1709 H   0  0  0  0  0  0
   -4.4282   -3.8830   12.6738 H   0  0  0  0  0  0
   -5.8764   -6.5248   12.1449 H   0  0  0  0  0  0
   -5.1274   -5.4405   10.9728 H   0  0  0  0  0  0
   -8.0639   -5.9247   13.2133 H   0  0  0  0  0  0
   -6.7380   -3.6402   11.6620 H   0  0  0  0  0  0
  -10.8631   -3.7840   11.7022 H   0  0  0  0  0  0
  -10.3588   -5.4516   11.8823 H   0  0  0  0  0  0
   -9.8031   -4.4693   13.8991 H   0  0  0  0  0  0
   -8.1731   -6.2245   10.9259 H   0  0  0  0  0  0
   -6.6561   -6.1609    9.1218 H   0  0  0  0  0  0
   -6.7120   -4.3971    8.9990 H   0  0  0  0  0  0
   -8.6461   -6.3781    7.9226 H   0  0  0  0  0  0
   -8.4898   -4.6705    7.5237 H   0  0  0  0  0  0
  -10.2089   -6.0395    9.5974 H   0  0  0  0  0  0
  -11.0268   -4.8702    7.8273 H   0  0  0  0  0  0
   -3.7173   -4.0877   17.6138 H   0  0  0  0  0  0
   -8.4477   -2.7650    9.0986 H   0  0  0  0  0  0
   -8.2020   -2.3588   10.7797 H   0  0  0  0  0  0
   -9.8232   -2.3002   10.0891 H   0  0  0  0  0  0
   -8.8497   -0.4121   13.6368 H   0  0  0  0  0  0
  1  2  2  0  0  0
  1  4  1  0  0  0
  1 23  1  0  0  0
  2  3  1  0  0  0
  2 19  1  0  0  0
  3  6  2  0  0  0
  3 24  1  0  0  0
  4  5  2  0  0  0
  4 25  1  0  0  0
  5  6  1  0  0  0
  5  9  1  0  0  0
  6  7  1  0  0  0
  7  8  1  0  0  0
  7 26  1  0  0  0
  7 27  1  0  0  0
  8 10  1  0  0  0
  8 28  1  0  0  0
  8 29  1  0  0  0
  9 10  1  0  0  0
  9 12  1  0  0  0
  9 30  1  0  0  0
 10 14  1  0  0  0
 10 31  1  0  0  0
 11 12  1  0  0  0
 11 13  1  0  0  0
 11 32  1  0  0  0
 11 33  1  0  0  0
 12 21  1  0  0  0
 12 34  1  0  0  0
 13 14  1  0  0  0
 13 17  1  0  0  0
 13 20  1  0  0  0
 14 15  1  0  0  0
 14 35  1  0  0  0
 15 16  1  0  0  0
 15 36  1  0  0  0
 15 37  1  0  0  0
 16 17  1  0  0  0
 16 38  1  0  0  0
 16 39  1  0  0  0
 17 18  1  0  0  0
 17 40  1  0  0  0
 18 41  1  0  0  0
 19 42  1  0  0  0
 20 43  1  0  0  0
 20 44  1  0  0  0
 20 45  1  0  0  0
 21 22  3  0  0  0
 22 46  1  0  0  0
M  END
>  <Name>
lit-235

>  <Family>
A.1

>  <RBA>
51.000000

>  <RBA_avg>
51.000000

>  <Method>
LUC*

>  <set>
0

$$$$
lit-236
  Cerius2 12180216413D 1   1.00000                          
 Structure written by MMmdl.
 48 51  0  0  0  0  0  0  0  0999 V2000
   -6.7742   -4.2661   16.7999 C   0  0  0  0  0  0
   -5.3922   -4.2576   16.7036 C   0  0  0  0  0  0
   -4.7695   -4.4482   15.4766 C   0  0  0  0  0  0
   -7.5458   -4.4536   15.6508 C   0  0  0  0  0  0
   -6.9477   -4.6172   14.3872 C   0  0  0  0  0  0
   -5.5381   -4.6503   14.3152 C   0  0  0  0  0  0
   -4.8065   -4.8580   13.0112 C   0  0  0  0  0  0
   -5.6785   -5.4695   11.9201 C   0  0  0  0  0  0
   -7.8052   -4.8562   13.1405 C   0  0  0  0  0  0
   -6.9935   -4.6943   11.8150 C   0  0  0  0  0  0
   -9.9724   -4.4239   11.7766 C   0  0  0  0  0  0
   -9.1826   -4.0958   13.0792 C   0  0  0  0  0  0
   -9.1428   -4.3427   10.4817 C   0  0  0  0  0  0
   -7.8695   -5.1920   10.6637 C   0  0  0  0  0  0
   -7.2992   -5.2813    9.2520 C   0  0  0  0  0  0
   -8.5519   -5.3809    8.3599 C   0  0  0  0  0  0
   -9.7594   -5.0929    9.2780 C   0  0  0  0  0  0
   -8.8919   -2.8648   10.0888 C   0  0  0  0  0  0
  -10.7646   -4.3479    8.6079 O   0  0  0  0  0  0
   -4.6696   -4.0667   17.8438 O   0  0  0  0  0  0
   -9.0516   -2.6007   13.3107 C   0  0  0  0  0  0
  -10.0177   -1.6694   13.3250 C   0  0  0  0  0  0
  -12.0077   -1.9576   12.9845 I   0  0  0  0  0  0
   -7.2610   -4.1307   17.7630 H   0  0  0  0  0  0
   -3.6830   -4.4498   15.4079 H   0  0  0  0  0  0
   -8.6276   -4.4719   15.7659 H   0  0  0  0  0  0
   -3.9403   -5.5116   13.1708 H   0  0  0  0  0  0
   -4.4277   -3.8847   12.6743 H   0  0  0  0  0  0
   -5.8783   -6.5251   12.1448 H   0  0  0  0  0  0
   -5.1281   -5.4412   10.9731 H   0  0  0  0  0  0
   -8.0678   -5.9247   13.2138 H   0  0  0  0  0  0
   -6.7355   -3.6401   11.6619 H   0  0  0  0  0  0
  -10.8654   -3.7916   11.6947 H   0  0  0  0  0  0
  -10.3515   -5.4503   11.8837 H   0  0  0  0  0  0
   -9.7920   -4.5041   13.8950 H   0  0  0  0  0  0
   -8.1716   -6.2208   10.9245 H   0  0  0  0  0  0
   -6.6499   -6.1530    9.1226 H   0  0  0  0  0  0
   -6.7159   -4.3895    8.9972 H   0  0  0  0  0  0
   -8.6425   -6.3848    7.9299 H   0  0  0  0  0  0
   -8.4913   -4.6791    7.5209 H   0  0  0  0  0  0
  -10.2063   -6.0415    9.6020 H   0  0  0  0  0  0
   -8.4758   -2.7653    9.0807 H   0  0  0  0  0  0
   -8.1946   -2.3546   10.7529 H   0  0  0  0  0  0
   -9.8302   -2.2982   10.0984 H   0  0  0  0  0  0
  -11.0267   -4.8809    7.8278 H   0  0  0  0  0  0
   -3.7163   -4.0881   17.6131 H   0  0  0  0  0  0
   -8.0457   -2.2427   13.5276 H   0  0  0  0  0  0
   -9.7368   -0.6384   13.5303 H   0  0  0  0  0  0
  1  2  2  0  0  0
  1  4  1  0  0  0
  1 24  1  0  0  0
  2  3  1  0  0  0
  2 20  1  0  0  0
  3  6  2  0  0  0
  3 25  1  0  0  0
  4  5  2  0  0  0
  4 26  1  0  0  0
  5  6  1  0  0  0
  5  9  1  0  0  0
  6  7  1  0  0  0
  7  8  1  0  0  0
  7 27  1  0  0  0
  7 28  1  0  0  0
  8 10  1  0  0  0
  8 29  1  0  0  0
  8 30  1  0  0  0
  9 10  1  0  0  0
  9 12  1  0  0  0
  9 31  1  0  0  0
 10 14  1  0  0  0
 10 32  1  0  0  0
 11 12  1  0  0  0
 11 13  1  0  0  0
 11 33  1  0  0  0
 11 34  1  0  0  0
 12 21  1  0  0  0
 12 35  1  0  0  0
 13 14  1  0  0  0
 13 17  1  0  0  0
 13 18  1  0  0  0
 14 15  1  0  0  0
 14 36  1  0  0  0
 15 16  1  0  0  0
 15 37  1  0  0  0
 15 38  1  0  0  0
 16 17  1  0  0  0
 16 39  1  0  0  0
 16 40  1  0  0  0
 17 19  1  0  0  0
 17 41  1  0  0  0
 18 42  1  0  0  0
 18 43  1  0  0  0
 18 44  1  0  0  0
 19 45  1  0  0  0
 20 46  1  0  0  0
 21 22  2  0  0  0
 21 47  1  0  0  0
 22 23  1  0  0  0
 22 48  1  0  0  0
M  END
>  <Name>
lit-236

>  <Family>
A.1

>  <RBA>
63.000000

>  <RBA_avg>
63.000000

>  <Method>
LUC*

>  <set>
2

$$$$
lit-237
  Cerius2 12180216413D 1   1.00000                          
 Structure written by MMmdl.
 48 51  0  0  0  0  0  0  0  0999 V2000
   -6.7747   -4.2699   16.8007 C   0  0  0  0  0  0
   -5.3928   -4.2604   16.7049 C   0  0  0  0  0  0
   -4.7696   -4.4481   15.4775 C   0  0  0  0  0  0
   -7.5461   -4.4554   15.6511 C   0  0  0  0  0  0
   -6.9475   -4.6159   14.3874 C   0  0  0  0  0  0
   -5.5379   -4.6482   14.3156 C   0  0  0  0  0  0
   -4.8060   -4.8535   13.0112 C   0  0  0  0  0  0
   -5.6774   -5.4657   11.9198 C   0  0  0  0  0  0
   -7.8044   -4.8542   13.1405 C   0  0  0  0  0  0
   -6.9930   -4.6920   11.8148 C   0  0  0  0  0  0
   -9.9712   -4.4184   11.7768 C   0  0  0  0  0  0
   -9.1781   -4.0925   13.0771 C   0  0  0  0  0  0
   -9.1429   -4.3414   10.4806 C   0  0  0  0  0  0
   -7.8695   -5.1909   10.6640 C   0  0  0  0  0  0
   -7.3004   -5.2832    9.2521 C   0  0  0  0  0  0
   -8.5542   -5.3862    8.3616 C   0  0  0  0  0  0
   -9.7609   -5.0951    9.2799 C   0  0  0  0  0  0
   -8.8913   -2.8651   10.0821 C   0  0  0  0  0  0
  -10.7666   -4.3517    8.6087 O   0  0  0  0  0  0
   -4.6704   -4.0722   17.8457 O   0  0  0  0  0  0
   -9.0506   -2.5987   13.3080 C   0  0  0  0  0  0
  -10.0973   -1.7604   13.2967 C   0  0  0  0  0  0
   -9.9128    0.2451   13.6378 I   0  0  0  0  0  0
   -7.2618   -4.1371   17.7640 H   0  0  0  0  0  0
   -3.6830   -4.4489   15.4091 H   0  0  0  0  0  0
   -8.6280   -4.4750   15.7658 H   0  0  0  0  0  0
   -3.9388   -5.5059   13.1702 H   0  0  0  0  0  0
   -4.4290   -3.8794   12.6752 H   0  0  0  0  0  0
   -5.8761   -6.5216   12.1443 H   0  0  0  0  0  0
   -5.1271   -5.4365   10.9728 H   0  0  0  0  0  0
   -8.0683   -5.9223   13.2136 H   0  0  0  0  0  0
   -6.7365   -3.6372   11.6620 H   0  0  0  0  0  0
  -10.8618   -3.7812   11.6993 H   0  0  0  0  0  0
  -10.3543   -5.4430   11.8850 H   0  0  0  0  0  0
   -9.8000   -4.4867   13.8940 H   0  0  0  0  0  0
   -8.1721   -6.2190   10.9267 H   0  0  0  0  0  0
   -6.6505   -6.1546    9.1240 H   0  0  0  0  0  0
   -6.7183   -4.3915    8.9944 H   0  0  0  0  0  0
   -8.6451   -6.3919    7.9355 H   0  0  0  0  0  0
   -8.4945   -4.6876    7.5197 H   0  0  0  0  0  0
  -10.2078   -6.0426    9.6070 H   0  0  0  0  0  0
   -8.4841   -2.7691    9.0699 H   0  0  0  0  0  0
   -8.1856   -2.3557   10.7377 H   0  0  0  0  0  0
   -9.8276   -2.2955   10.0988 H   0  0  0  0  0  0
  -11.0300   -4.8870    7.8307 H   0  0  0  0  0  0
   -3.7171   -4.0926   17.6152 H   0  0  0  0  0  0
   -8.0584   -2.2115   13.5256 H   0  0  0  0  0  0
  -11.1018   -2.1242   13.0983 H   0  0  0  0  0  0
  1  2  2  0  0  0
  1  4  1  0  0  0
  1 24  1  0  0  0
  2  3  1  0  0  0
  2 20  1  0  0  0
  3  6  2  0  0  0
  3 25  1  0  0  0
  4  5  2  0  0  0
  4 26  1  0  0  0
  5  6  1  0  0  0
  5  9  1  0  0  0
  6  7  1  0  0  0
  7  8  1  0  0  0
  7 27  1  0  0  0
  7 28  1  0  0  0
  8 10  1  0  0  0
  8 29  1  0  0  0
  8 30  1  0  0  0
  9 10  1  0  0  0
  9 12  1  0  0  0
  9 31  1  0  0  0
 10 14  1  0  0  0
 10 32  1  0  0  0
 11 12  1  0  0  0
 11 13  1  0  0  0
 11 33  1  0  0  0
 11 34  1  0  0  0
 12 21  1  0  0  0
 12 35  1  0  0  0
 13 14  1  0  0  0
 13 17  1  0  0  0
 13 18  1  0  0  0
 14 15  1  0  0  0
 14 36  1  0  0  0
 15 16  1  0  0  0
 15 37  1  0  0  0
 15 38  1  0  0  0
 16 17  1  0  0  0
 16 39  1  0  0  0
 16 40  1  0  0  0
 17 19  1  0  0  0
 17 41  1  0  0  0
 18 42  1  0  0  0
 18 43  1  0  0  0
 18 44  1  0  0  0
 19 45  1  0  0  0
 20 46  1  0  0  0
 21 22  2  0  0  0
 21 47  1  0  0  0
 22 23  1  0  0  0
 22 48  1  0  0  0
M  END
>  <Name>
lit-237

>  <Family>
A.1

>  <RBA>
54.000000

>  <RBA_avg>
54.000000

>  <Method>
LUC*

>  <set>
0

$$$$
lit-238
  Cerius2 12180216413D 1   1.00000                          
 Structure written by MMmdl.
 50 53  0  0  0  0  0  0  0  0999 V2000
   -6.7808   -4.3519   16.8114 C   0  0  0  0  0  0
   -5.3989   -4.3146   16.7177 C   0  0  0  0  0  0
   -4.7715   -4.4438   15.4848 C   0  0  0  0  0  0
   -7.5474   -4.5018   15.6537 C   0  0  0  0  0  0
   -6.9449   -4.5944   14.3850 C   0  0  0  0  0  0
   -5.5356   -4.6099   14.3150 C   0  0  0  0  0  0
   -4.8033   -4.7740   13.0056 C   0  0  0  0  0  0
   -5.6648   -5.4087   11.9189 C   0  0  0  0  0  0
   -7.7999   -4.7877   13.1327 C   0  0  0  0  0  0
   -6.9873   -4.6497   11.8052 C   0  0  0  0  0  0
   -9.9524   -4.3463   11.7785 C   0  0  0  0  0  0
   -9.1447   -3.9745   13.0617 C   0  0  0  0  0  0
   -9.1397   -4.3324   10.4694 C   0  0  0  0  0  0
   -7.8679   -5.1800   10.6717 C   0  0  0  0  0  0
   -7.3120   -5.3257    9.2598 C   0  0  0  0  0  0
   -8.5772   -5.4695    8.3897 C   0  0  0  0  0  0
   -9.7737   -5.1362    9.3089 C   0  0  0  0  0  0
   -8.8865   -2.8794    9.9964 C   0  0  0  0  0  0
  -10.7857   -4.4185    8.6193 O   0  0  0  0  0  0
   -4.6808   -4.1609   17.8663 O   0  0  0  0  0  0
   -8.9403   -2.4603   13.2993 C   0  0  0  0  0  0
  -10.2148   -1.6336   13.2397 C   0  0  0  0  0  0
   -9.9128   -0.3542   13.6129 F   0  0  0  0  0  0
   -7.2706   -4.2690   17.7788 H   0  0  0  0  0  0
   -3.6849   -4.4292   15.4187 H   0  0  0  0  0  0
   -8.6296   -4.5460   15.7628 H   0  0  0  0  0  0
   -3.9140   -5.3990   13.1520 H   0  0  0  0  0  0
   -4.4615   -3.7847   12.6767 H   0  0  0  0  0  0
   -5.8519   -6.4646   12.1530 H   0  0  0  0  0  0
   -5.1146   -5.3807   10.9718 H   0  0  0  0  0  0
   -8.1020   -5.8460   13.2017 H   0  0  0  0  0  0
   -6.7396   -3.5967   11.6298 H   0  0  0  0  0  0
  -10.8526   -3.7307   11.6810 H   0  0  0  0  0  0
  -10.3291   -5.3678   11.9341 H   0  0  0  0  0  0
   -9.7775   -4.3147   13.8937 H   0  0  0  0  0  0
   -8.1728   -6.1983   10.9686 H   0  0  0  0  0  0
   -6.6600   -6.1992    9.1591 H   0  0  0  0  0  0
   -6.7367   -4.4427    8.9607 H   0  0  0  0  0  0
   -8.6728   -6.4940    8.0127 H   0  0  0  0  0  0
   -8.5280   -4.8111    7.5154 H   0  0  0  0  0  0
  -10.2191   -6.0675    9.6816 H   0  0  0  0  0  0
   -8.5078   -2.8335    8.9697 H   0  0  0  0  0  0
   -8.1561   -2.3487   10.6045 H   0  0  0  0  0  0
   -9.8167   -2.3004   10.0098 H   0  0  0  0  0  0
  -11.0596   -4.9853    7.8675 H   0  0  0  0  0  0
   -3.7271   -4.1553   17.6367 H   0  0  0  0  0  0
   -8.2001   -2.0334   12.6200 H   0  0  0  0  0  0
   -8.5104   -2.2996   14.2947 H   0  0  0  0  0  0
  -10.9736   -2.0112   13.9308 H   0  0  0  0  0  0
  -10.6339   -1.5838   12.2330 H   0  0  0  0  0  0
  1  2  2  0  0  0
  1  4  1  0  0  0
  1 24  1  0  0  0
  2  3  1  0  0  0
  2 20  1  0  0  0
  3  6  2  0  0  0
  3 25  1  0  0  0
  4  5  2  0  0  0
  4 26  1  0  0  0
  5  6  1  0  0  0
  5  9  1  0  0  0
  6  7  1  0  0  0
  7  8  1  0  0  0
  7 27  1  0  0  0
  7 28  1  0  0  0
  8 10  1  0  0  0
  8 29  1  0  0  0
  8 30  1  0  0  0
  9 10  1  0  0  0
  9 12  1  0  0  0
  9 31  1  0  0  0
 10 14  1  0  0  0
 10 32  1  0  0  0
 11 12  1  0  0  0
 11 13  1  0  0  0
 11 33  1  0  0  0
 11 34  1  0  0  0
 12 21  1  0  0  0
 12 35  1  0  0  0
 13 14  1  0  0  0
 13 17  1  0  0  0
 13 18  1  0  0  0
 14 15  1  0  0  0
 14 36  1  0  0  0
 15 16  1  0  0  0
 15 37  1  0  0  0
 15 38  1  0  0  0
 16 17  1  0  0  0
 16 39  1  0  0  0
 16 40  1  0  0  0
 17 19  1  0  0  0
 17 41  1  0  0  0
 18 42  1  0  0  0
 18 43  1  0  0  0
 18 44  1  0  0  0
 19 45  1  0  0  0
 20 46  1  0  0  0
 21 22  1  0  0  0
 21 47  1  0  0  0
 21 48  1  0  0  0
 22 23  1  0  0  0
 22 49  1  0  0  0
 22 50  1  0  0  0
M  END
>  <Name>
lit-238

>  <Family>
A.1

>  <RBA>
77.000000

>  <RBA_avg>
77.000000

>  <Method>
LUC*

>  <set>
0

$$$$
lit-239
  Cerius2 12180216413D 1   1.00000                          
 Structure written by MMmdl.
 53 56  0  0  0  0  0  0  0  0999 V2000
   -6.7805   -4.3525   16.8116 C   0  0  0  0  0  0
   -5.3987   -4.3154   16.7178 C   0  0  0  0  0  0
   -4.7713   -4.4444   15.4850 C   0  0  0  0  0  0
   -7.5472   -4.5019   15.6540 C   0  0  0  0  0  0
   -6.9446   -4.5943   14.3851 C   0  0  0  0  0  0
   -5.5355   -4.6100   14.3152 C   0  0  0  0  0  0
   -4.8035   -4.7734   13.0055 C   0  0  0  0  0  0
   -5.6650   -5.4082   11.9191 C   0  0  0  0  0  0
   -7.8001   -4.7866   13.1328 C   0  0  0  0  0  0
   -6.9875   -4.6491   11.8052 C   0  0  0  0  0  0
   -9.9520   -4.3464   11.7788 C   0  0  0  0  0  0
   -9.1446   -3.9719   13.0614 C   0  0  0  0  0  0
   -9.1401   -4.3321   10.4692 C   0  0  0  0  0  0
   -7.8680   -5.1794   10.6718 C   0  0  0  0  0  0
   -7.3118   -5.3258    9.2601 C   0  0  0  0  0  0
   -8.5769   -5.4702    8.3902 C   0  0  0  0  0  0
   -9.7737   -5.1367    9.3090 C   0  0  0  0  0  0
   -8.8877   -2.8791    9.9955 C   0  0  0  0  0  0
  -10.7858   -4.4206    8.6180 O   0  0  0  0  0  0
   -4.6806   -4.1621   17.8666 O   0  0  0  0  0  0
   -8.9365   -2.4549   13.2991 C   0  0  0  0  0  0
  -11.1529    0.4979   13.5691 F   0  0  0  0  0  0
  -10.2191   -1.6240   13.2327 C   0  0  0  0  0  0
   -9.9745   -0.1855   13.6571 C   0  0  0  0  0  0
   -7.2705   -4.2695   17.7791 H   0  0  0  0  0  0
   -3.6846   -4.4300   15.4188 H   0  0  0  0  0  0
   -8.6294   -4.5454   15.7624 H   0  0  0  0  0  0
   -3.9138   -5.3979   13.1515 H   0  0  0  0  0  0
   -4.4623   -3.7837   12.6767 H   0  0  0  0  0  0
   -5.8522   -6.4641   12.1532 H   0  0  0  0  0  0
   -5.1149   -5.3805   10.9719 H   0  0  0  0  0  0
   -8.1031   -5.8445   13.2018 H   0  0  0  0  0  0
   -6.7395   -3.5962   11.6292 H   0  0  0  0  0  0
  -10.8546   -3.7347   11.6808 H   0  0  0  0  0  0
  -10.3258   -5.3689   11.9354 H   0  0  0  0  0  0
   -9.7776   -4.3104   13.8940 H   0  0  0  0  0  0
   -8.1727   -6.1977   10.9690 H   0  0  0  0  0  0
   -6.6598   -6.1992    9.1600 H   0  0  0  0  0  0
   -6.7366   -4.4428    8.9605 H   0  0  0  0  0  0
   -8.6723   -6.4950    8.0136 H   0  0  0  0  0  0
   -8.5278   -4.8122    7.5156 H   0  0  0  0  0  0
  -10.2187   -6.0679    9.6823 H   0  0  0  0  0  0
   -8.5082   -2.8339    8.9690 H   0  0  0  0  0  0
   -8.1581   -2.3472   10.6033 H   0  0  0  0  0  0
   -9.8184   -2.3011   10.0072 H   0  0  0  0  0  0
  -11.0598   -4.9889    7.8675 H   0  0  0  0  0  0
   -3.7268   -4.1565   17.6369 H   0  0  0  0  0  0
   -8.1929   -2.0408   12.6155 H   0  0  0  0  0  0
   -8.5105   -2.3121   14.2991 H   0  0  0  0  0  0
  -10.9899   -2.0604   13.8786 H   0  0  0  0  0  0
  -10.6310   -1.6147   12.2190 H   0  0  0  0  0  0
   -9.6275   -0.1222   14.6924 H   0  0  0  0  0  0
   -9.2500    0.3098   13.0043 H   0  0  0  0  0  0
  1  2  2  0  0  0
  1  4  1  0  0  0
  1 25  1  0  0  0
  2  3  1  0  0  0
  2 20  1  0  0  0
  3  6  2  0  0  0
  3 26  1  0  0  0
  4  5  2  0  0  0
  4 27  1  0  0  0
  5  6  1  0  0  0
  5  9  1  0  0  0
  6  7  1  0  0  0
  7  8  1  0  0  0
  7 28  1  0  0  0
  7 29  1  0  0  0
  8 10  1  0  0  0
  8 30  1  0  0  0
  8 31  1  0  0  0
  9 10  1  0  0  0
  9 12  1  0  0  0
  9 32  1  0  0  0
 10 14  1  0  0  0
 10 33  1  0  0  0
 11 12  1  0  0  0
 11 13  1  0  0  0
 11 34  1  0  0  0
 11 35  1  0  0  0
 12 21  1  0  0  0
 12 36  1  0  0  0
 13 14  1  0  0  0
 13 17  1  0  0  0
 13 18  1  0  0  0
 14 15  1  0  0  0
 14 37  1  0  0  0
 15 16  1  0  0  0
 15 38  1  0  0  0
 15 39  1  0  0  0
 16 17  1  0  0  0
 16 40  1  0  0  0
 16 41  1  0  0  0
 17 19  1  0  0  0
 17 42  1  0  0  0
 18 43  1  0  0  0
 18 44  1  0  0  0
 18 45  1  0  0  0
 19 46  1  0  0  0
 20 47  1  0  0  0
 21 23  1  0  0  0
 21 48  1  0  0  0
 21 49  1  0  0  0
 22 24  1  0  0  0
 23 24  1  0  0  0
 23 50  1  0  0  0
 23 51  1  0  0  0
 24 52  1  0  0  0
 24 53  1  0  0  0
M  END
>  <Name>
lit-239

>  <Family>
A.1

>  <RBA>
57.000000

>  <RBA_avg>
57.000000

>  <Method>
LUC*

>  <set>
1

$$$$
lit-240
  Cerius2 12180216413D 1   1.00000                          
 Structure written by MMmdl.
 56 59  0  0  0  0  0  0  0  0999 V2000
   -6.7803   -4.3528   16.8118 C   0  0  0  0  0  0
   -5.3985   -4.3166   16.7181 C   0  0  0  0  0  0
   -4.7711   -4.4452   15.4851 C   0  0  0  0  0  0
   -7.5471   -4.5007   15.6540 C   0  0  0  0  0  0
   -6.9446   -4.5931   14.3853 C   0  0  0  0  0  0
   -5.5354   -4.6095   14.3153 C   0  0  0  0  0  0
   -4.8034   -4.7726   13.0056 C   0  0  0  0  0  0
   -5.6651   -5.4073   11.9191 C   0  0  0  0  0  0
   -7.8002   -4.7849   13.1328 C   0  0  0  0  0  0
   -6.9875   -4.6479   11.8051 C   0  0  0  0  0  0
   -9.9522   -4.3465   11.7786 C   0  0  0  0  0  0
   -9.1450   -3.9706   13.0611 C   0  0  0  0  0  0
   -9.1403   -4.3322   10.4690 C   0  0  0  0  0  0
   -7.8680   -5.1790   10.6719 C   0  0  0  0  0  0
   -7.3117   -5.3257    9.2603 C   0  0  0  0  0  0
   -8.5767   -5.4713    8.3905 C   0  0  0  0  0  0
   -9.7737   -5.1376    9.3092 C   0  0  0  0  0  0
   -8.8883   -2.8794    9.9947 C   0  0  0  0  0  0
  -10.7858   -4.4221    8.6175 O   0  0  0  0  0  0
   -4.6802   -4.1648   17.8670 O   0  0  0  0  0  0
   -8.9374   -2.4535   13.2981 C   0  0  0  0  0  0
  -12.1496    0.1750   14.4592 F   0  0  0  0  0  0
  -11.2325    0.6655   13.5764 C   0  0  0  0  0  0
  -10.2226   -1.6212   13.2289 C   0  0  0  0  0  0
   -9.9677   -0.1723   13.6543 C   0  0  0  0  0  0
   -7.2702   -4.2698   17.7792 H   0  0  0  0  0  0
   -3.6845   -4.4312   15.4191 H   0  0  0  0  0  0
   -8.6293   -4.5429   15.7623 H   0  0  0  0  0  0
   -3.9138   -5.3974   13.1515 H   0  0  0  0  0  0
   -4.4621   -3.7831   12.6769 H   0  0  0  0  0  0
   -5.8526   -6.4632   12.1535 H   0  0  0  0  0  0
   -5.1149   -5.3798   10.9720 H   0  0  0  0  0  0
   -8.1032   -5.8429   13.2020 H   0  0  0  0  0  0
   -6.7394   -3.5952   11.6287 H   0  0  0  0  0  0
  -10.8555   -3.7360   11.6803 H   0  0  0  0  0  0
  -10.3249   -5.3693   11.9358 H   0  0  0  0  0  0
   -9.7778   -4.3089   13.8938 H   0  0  0  0  0  0
   -8.1723   -6.1973   10.9695 H   0  0  0  0  0  0
   -6.6592   -6.1989    9.1606 H   0  0  0  0  0  0
   -6.7369   -4.4426    8.9603 H   0  0  0  0  0  0
   -8.6718   -6.4963    8.0146 H   0  0  0  0  0  0
   -8.5279   -4.8139    7.5155 H   0  0  0  0  0  0
  -10.2185   -6.0686    9.6829 H   0  0  0  0  0  0
   -8.5077   -2.8345    8.9686 H   0  0  0  0  0  0
   -8.1599   -2.3466   10.6031 H   0  0  0  0  0  0
   -9.8194   -2.3018   10.0049 H   0  0  0  0  0  0
  -11.0584   -4.9902    7.8663 H   0  0  0  0  0  0
   -3.7265   -4.1601   17.6374 H   0  0  0  0  0  0
   -8.1929   -2.0397   12.6151 H   0  0  0  0  0  0
   -8.5130   -2.3104   14.2987 H   0  0  0  0  0  0
  -11.0292    1.7044   13.8511 H   0  0  0  0  0  0
  -11.6761    0.6430   12.5769 H   0  0  0  0  0  0
  -10.9844   -2.0666   13.8797 H   0  0  0  0  0  0
  -10.6207   -1.6208   12.2094 H   0  0  0  0  0  0
   -9.5945   -0.1592   14.6850 H   0  0  0  0  0  0
   -9.1978    0.2728   13.0138 H   0  0  0  0  0  0
  1  2  2  0  0  0
  1  4  1  0  0  0
  1 26  1  0  0  0
  2  3  1  0  0  0
  2 20  1  0  0  0
  3  6  2  0  0  0
  3 27  1  0  0  0
  4  5  2  0  0  0
  4 28  1  0  0  0
  5  6  1  0  0  0
  5  9  1  0  0  0
  6  7  1  0  0  0
  7  8  1  0  0  0
  7 29  1  0  0  0
  7 30  1  0  0  0
  8 10  1  0  0  0
  8 31  1  0  0  0
  8 32  1  0  0  0
  9 10  1  0  0  0
  9 12  1  0  0  0
  9 33  1  0  0  0
 10 14  1  0  0  0
 10 34  1  0  0  0
 11 12  1  0  0  0
 11 13  1  0  0  0
 11 35  1  0  0  0
 11 36  1  0  0  0
 12 21  1  0  0  0
 12 37  1  0  0  0
 13 14  1  0  0  0
 13 17  1  0  0  0
 13 18  1  0  0  0
 14 15  1  0  0  0
 14 38  1  0  0  0
 15 16  1  0  0  0
 15 39  1  0  0  0
 15 40  1  0  0  0
 16 17  1  0  0  0
 16 41  1  0  0  0
 16 42  1  0  0  0
 17 19  1  0  0  0
 17 43  1  0  0  0
 18 44  1  0  0  0
 18 45  1  0  0  0
 18 46  1  0  0  0
 19 47  1  0  0  0
 20 48  1  0  0  0
 21 24  1  0  0  0
 21 49  1  0  0  0
 21 50  1  0  0  0
 22 23  1  0  0  0
 23 25  1  0  0  0
 23 51  1  0  0  0
 23 52  1  0  0  0
 24 25  1  0  0  0
 24 53  1  0  0  0
 24 54  1  0  0  0
 25 55  1  0  0  0
 25 56  1  0  0  0
M  END
>  <Name>
lit-240

>  <Family>
A.1

>  <RBA>
112.000000

>  <RBA_avg>
112.000000

>  <Method>
LUC*

>  <set>
0

$$$$
lit-241
  Cerius2 12180216413D 1   1.00000                          
 Structure written by MMmdl.
 51 54  0  0  0  0  0  0  0  0999 V2000
   -6.7804   -4.3529   16.8117 C   0  0  0  0  0  0
   -5.3985   -4.3174   16.7182 C   0  0  0  0  0  0
   -4.7712   -4.4456   15.4852 C   0  0  0  0  0  0
   -7.5471   -4.5000   15.6538 C   0  0  0  0  0  0
   -6.9446   -4.5920   14.3851 C   0  0  0  0  0  0
   -5.5354   -4.6089   14.3152 C   0  0  0  0  0  0
   -4.8033   -4.7714   13.0054 C   0  0  0  0  0  0
   -5.6648   -5.4062   11.9189 C   0  0  0  0  0  0
   -7.8001   -4.7841   13.1326 C   0  0  0  0  0  0
   -6.9875   -4.6474   11.8048 C   0  0  0  0  0  0
   -9.9525   -4.3458   11.7783 C   0  0  0  0  0  0
   -9.1450   -3.9712   13.0609 C   0  0  0  0  0  0
   -9.1402   -4.3327   10.4689 C   0  0  0  0  0  0
   -7.8680   -5.1794   10.6722 C   0  0  0  0  0  0
   -7.3118   -5.3269    9.2606 C   0  0  0  0  0  0
   -8.5769   -5.4717    8.3906 C   0  0  0  0  0  0
   -9.7738   -5.1379    9.3092 C   0  0  0  0  0  0
   -8.8877   -2.8801    9.9946 C   0  0  0  0  0  0
  -10.7859   -4.4219    8.6183 O   0  0  0  0  0  0
   -4.6803   -4.1665   17.8672 O   0  0  0  0  0  0
   -8.9415   -2.4556   13.2968 C   0  0  0  0  0  0
  -10.2207   -1.6276   13.2328 C   0  0  0  0  0  0
   -9.9204   -0.2879   13.6266 O   0  0  0  0  0  0
   -7.2703   -4.2703   17.7792 H   0  0  0  0  0  0
   -3.6845   -4.4322   15.4192 H   0  0  0  0  0  0
   -8.6295   -4.5424   15.7624 H   0  0  0  0  0  0
   -3.9134   -5.3956   13.1509 H   0  0  0  0  0  0
   -4.4627   -3.7814   12.6770 H   0  0  0  0  0  0
   -5.8518   -6.4621   12.1530 H   0  0  0  0  0  0
   -5.1146   -5.3782   10.9717 H   0  0  0  0  0  0
   -8.1025   -5.8423   13.2020 H   0  0  0  0  0  0
   -6.7402   -3.5946   11.6283 H   0  0  0  0  0  0
  -10.8539   -3.7319   11.6801 H   0  0  0  0  0  0
  -10.3277   -5.3676   11.9354 H   0  0  0  0  0  0
   -9.7775   -4.3103   13.8935 H   0  0  0  0  0  0
   -8.1724   -6.1974   10.9704 H   0  0  0  0  0  0
   -6.6599   -6.2006    9.1613 H   0  0  0  0  0  0
   -6.7363   -4.4444    8.9604 H   0  0  0  0  0  0
   -8.6721   -6.4965    8.0141 H   0  0  0  0  0  0
   -8.5277   -4.8139    7.5159 H   0  0  0  0  0  0
  -10.2186   -6.0691    9.6830 H   0  0  0  0  0  0
   -8.5058   -2.8351    8.9690 H   0  0  0  0  0  0
   -8.1602   -2.3473   10.6044 H   0  0  0  0  0  0
   -9.8188   -2.3026   10.0041 H   0  0  0  0  0  0
  -11.0592   -4.9898    7.8673 H   0  0  0  0  0  0
   -3.7265   -4.1623   17.6377 H   0  0  0  0  0  0
   -8.1965   -2.0311   12.6201 H   0  0  0  0  0  0
   -8.5079   -2.2972   14.2919 H   0  0  0  0  0  0
  -10.9780   -2.0250   13.9158 H   0  0  0  0  0  0
  -10.6292   -1.5910   12.2203 H   0  0  0  0  0  0
  -10.7714    0.1992   13.5778 H   0  0  0  0  0  0
  1  2  2  0  0  0
  1  4  1  0  0  0
  1 24  1  0  0  0
  2  3  1  0  0  0
  2 20  1  0  0  0
  3  6  2  0  0  0
  3 25  1  0  0  0
  4  5  2  0  0  0
  4 26  1  0  0  0
  5  6  1  0  0  0
  5  9  1  0  0  0
  6  7  1  0  0  0
  7  8  1  0  0  0
  7 27  1  0  0  0
  7 28  1  0  0  0
  8 10  1  0  0  0
  8 29  1  0  0  0
  8 30  1  0  0  0
  9 10  1  0  0  0
  9 12  1  0  0  0
  9 31  1  0  0  0
 10 14  1  0  0  0
 10 32  1  0  0  0
 11 12  1  0  0  0
 11 13  1  0  0  0
 11 33  1  0  0  0
 11 34  1  0  0  0
 12 21  1  0  0  0
 12 35  1  0  0  0
 13 14  1  0  0  0
 13 17  1  0  0  0
 13 18  1  0  0  0
 14 15  1  0  0  0
 14 36  1  0  0  0
 15 16  1  0  0  0
 15 37  1  0  0  0
 15 38  1  0  0  0
 16 17  1  0  0  0
 16 39  1  0  0  0
 16 40  1  0  0  0
 17 19  1  0  0  0
 17 41  1  0  0  0
 18 42  1  0  0  0
 18 43  1  0  0  0
 18 44  1  0  0  0
 19 45  1  0  0  0
 20 46  1  0  0  0
 21 22  1  0  0  0
 21 47  1  0  0  0
 21 48  1  0  0  0
 22 23  1  0  0  0
 22 49  1  0  0  0
 22 50  1  0  0  0
 23 51  1  0  0  0
M  END
>  <Name>
lit-241

>  <Family>
A.1

>  <RBA>
13.000000

>  <RBA_avg>
13.000000

>  <Method>
LUC*

>  <set>
0

$$$$
lit-242
  Cerius2 12180216413D 1   1.00000                          
 Structure written by MMmdl.
 47 50  0  0  0  0  0  0  0  0999 V2000
   -6.7810   -4.3502   16.8109 C   0  0  0  0  0  0
   -5.3992   -4.3099   16.7165 C   0  0  0  0  0  0
   -4.7722   -4.4414   15.4838 C   0  0  0  0  0  0
   -7.5479   -4.5049   15.6541 C   0  0  0  0  0  0
   -6.9455   -4.5992   14.3853 C   0  0  0  0  0  0
   -5.5364   -4.6124   14.3148 C   0  0  0  0  0  0
   -4.8035   -4.7797   13.0060 C   0  0  0  0  0  0
   -5.6657   -5.4134   11.9193 C   0  0  0  0  0  0
   -7.8009   -4.7936   13.1333 C   0  0  0  0  0  0
   -6.9876   -4.6531   11.8063 C   0  0  0  0  0  0
   -9.9507   -4.3465   11.7791 C   0  0  0  0  0  0
   -9.1433   -3.9789   13.0656 C   0  0  0  0  0  0
   -9.1387   -4.3315   10.4697 C   0  0  0  0  0  0
   -7.8673   -5.1795   10.6704 C   0  0  0  0  0  0
   -7.3114   -5.3197    9.2580 C   0  0  0  0  0  0
   -8.5770   -5.4674    8.3892 C   0  0  0  0  0  0
   -9.7738   -5.1341    9.3085 C   0  0  0  0  0  0
   -8.8864   -2.8775    9.9976 C   0  0  0  0  0  0
  -10.7853   -4.4157    8.6190 O   0  0  0  0  0  0
   -4.6810   -4.1515   17.8645 O   0  0  0  0  0  0
   -8.9211   -2.4715   13.2983 C   0  0  0  0  0  0
  -10.4460   -1.5392   13.2922 Cl  0  0  0  0  0  0
   -7.2705   -4.2659   17.7784 H   0  0  0  0  0  0
   -3.6856   -4.4250   15.4172 H   0  0  0  0  0  0
   -8.6298   -4.5527   15.7652 H   0  0  0  0  0  0
   -3.9158   -5.4066   13.1538 H   0  0  0  0  0  0
   -4.4594   -3.7915   12.6762 H   0  0  0  0  0  0
   -5.8538   -6.4692   12.1531 H   0  0  0  0  0  0
   -5.1156   -5.3857   10.9721 H   0  0  0  0  0  0
   -8.1030   -5.8518   13.2013 H   0  0  0  0  0  0
   -6.7386   -3.5997   11.6349 H   0  0  0  0  0  0
  -10.8490   -3.7282   11.6777 H   0  0  0  0  0  0
  -10.3304   -5.3672   11.9328 H   0  0  0  0  0  0
   -9.7761   -4.3183   13.8978 H   0  0  0  0  0  0
   -8.1721   -6.1988   10.9640 H   0  0  0  0  0  0
   -6.6553   -6.1897    9.1546 H   0  0  0  0  0  0
   -6.7412   -4.4328    8.9605 H   0  0  0  0  0  0
   -8.6713   -6.4931    8.0150 H   0  0  0  0  0  0
   -8.5294   -4.8113    7.5130 H   0  0  0  0  0  0
  -10.2195   -6.0653    9.6806 H   0  0  0  0  0  0
   -8.5544   -2.8284    8.9548 H   0  0  0  0  0  0
   -8.1184   -2.3640   10.5736 H   0  0  0  0  0  0
   -9.8059   -2.2845   10.0591 H   0  0  0  0  0  0
  -11.0594   -4.9820    7.8671 H   0  0  0  0  0  0
   -3.7273   -4.1449   17.6345 H   0  0  0  0  0  0
   -8.2523   -2.0165   12.5699 H   0  0  0  0  0  0
   -8.4791   -2.2891   14.2809 H   0  0  0  0  0  0
  1  2  2  0  0  0
  1  4  1  0  0  0
  1 23  1  0  0  0
  2  3  1  0  0  0
  2 20  1  0  0  0
  3  6  2  0  0  0
  3 24  1  0  0  0
  4  5  2  0  0  0
  4 25  1  0  0  0
  5  6  1  0  0  0
  5  9  1  0  0  0
  6  7  1  0  0  0
  7  8  1  0  0  0
  7 26  1  0  0  0
  7 27  1  0  0  0
  8 10  1  0  0  0
  8 28  1  0  0  0
  8 29  1  0  0  0
  9 10  1  0  0  0
  9 12  1  0  0  0
  9 30  1  0  0  0
 10 14  1  0  0  0
 10 31  1  0  0  0
 11 12  1  0  0  0
 11 13  1  0  0  0
 11 32  1  0  0  0
 11 33  1  0  0  0
 12 21  1  0  0  0
 12 34  1  0  0  0
 13 14  1  0  0  0
 13 17  1  0  0  0
 13 18  1  0  0  0
 14 15  1  0  0  0
 14 35  1  0  0  0
 15 16  1  0  0  0
 15 36  1  0  0  0
 15 37  1  0  0  0
 16 17  1  0  0  0
 16 38  1  0  0  0
 16 39  1  0  0  0
 17 19  1  0  0  0
 17 40  1  0  0  0
 18 41  1  0  0  0
 18 42  1  0  0  0
 18 43  1  0  0  0
 19 44  1  0  0  0
 20 45  1  0  0  0
 21 22  1  0  0  0
 21 46  1  0  0  0
 21 47  1  0  0  0
M  END
>  <Name>
lit-242

>  <Family>
A.1

>  <RBA>
110.000000

>  <RBA_avg>
110.000000

>  <Method>
LUC*

>  <set>
0

$$$$
lit-243
  Cerius2 12180216413D 1   1.00000                          
 Structure written by MMmdl.
 44 47  0  0  0  0  0  0  0  0999 V2000
   -6.7928   -4.1178   16.7466 C   0  0  0  0  0  0
   -5.4103   -4.1461   16.6622 C   0  0  0  0  0  0
   -4.7833   -4.4422   15.4587 C   0  0  0  0  0  0
   -7.5615   -4.3808   15.6098 C   0  0  0  0  0  0
   -6.9588   -4.6619   14.3701 C   0  0  0  0  0  0
   -5.5482   -4.7172   14.3095 C   0  0  0  0  0  0
   -4.8066   -5.0127   13.0262 C   0  0  0  0  0  0
   -5.6850   -5.5848   11.9175 C   0  0  0  0  0  0
   -7.8017   -4.9949   13.1390 C   0  0  0  0  0  0
   -6.9891   -4.7901   11.8242 C   0  0  0  0  0  0
   -9.9733   -4.5903   11.7880 C   0  0  0  0  0  0
   -9.1756   -4.2759   13.0688 C   0  0  0  0  0  0
   -9.1369   -4.3678   10.5186 C   0  0  0  0  0  0
   -7.8573   -5.2204   10.6408 C   0  0  0  0  0  0
   -7.2730   -5.1797    9.2309 C   0  0  0  0  0  0
   -8.5192   -5.3063    8.3213 C   0  0  0  0  0  0
   -9.7432   -4.9788    9.2326 C   0  0  0  0  0  0
   -8.8929   -2.8483   10.3390 C   0  0  0  0  0  0
  -10.7543   -4.1632    8.6581 O   0  0  0  0  0  0
   -4.6920   -3.8810   17.7900 O   0  0  0  0  0  0
   -8.3343   -4.1280    6.5569 I   0  0  0  0  0  0
   -7.2830   -3.8967   17.6921 H   0  0  0  0  0  0
   -3.6965   -4.4652   15.3977 H   0  0  0  0  0  0
   -8.6436   -4.3673   15.7208 H   0  0  0  0  0  0
   -3.9897   -5.7172   13.2240 H   0  0  0  0  0  0
   -4.3554   -4.0752   12.6765 H   0  0  0  0  0  0
   -5.9020   -6.6415   12.1202 H   0  0  0  0  0  0
   -5.1291   -5.5487   10.9742 H   0  0  0  0  0  0
   -8.0212   -6.0702   13.2292 H   0  0  0  0  0  0
   -6.7217   -3.7308   11.7174 H   0  0  0  0  0  0
  -10.8844   -3.9804   11.7629 H   0  0  0  0  0  0
  -10.3048   -5.6358   11.8381 H   0  0  0  0  0  0
   -9.0328   -3.1930   13.1648 H   0  0  0  0  0  0
   -9.8023   -4.5753   13.9169 H   0  0  0  0  0  0
   -8.1473   -6.2691   10.8214 H   0  0  0  0  0  0
   -6.5789   -6.0092    9.0560 H   0  0  0  0  0  0
   -6.7158   -4.2505    9.0686 H   0  0  0  0  0  0
   -8.6123   -6.3547    8.0091 H   0  0  0  0  0  0
  -10.2264   -5.9318    9.4872 H   0  0  0  0  0  0
   -8.2970   -2.6189    9.4524 H   0  0  0  0  0  0
   -8.3730   -2.3995   11.1894 H   0  0  0  0  0  0
   -9.8445   -2.3141   10.2358 H   0  0  0  0  0  0
  -10.8694   -4.4770    7.7371 H   0  0  0  0  0  0
   -3.7376   -3.9401   17.5704 H   0  0  0  0  0  0
  1  2  2  0  0  0
  1  4  1  0  0  0
  1 22  1  0  0  0
  2  3  1  0  0  0
  2 20  1  0  0  0
  3  6  2  0  0  0
  3 23  1  0  0  0
  4  5  2  0  0  0
  4 24  1  0  0  0
  5  6  1  0  0  0
  5  9  1  0  0  0
  6  7  1  0  0  0
  7  8  1  0  0  0
  7 25  1  0  0  0
  7 26  1  0  0  0
  8 10  1  0  0  0
  8 27  1  0  0  0
  8 28  1  0  0  0
  9 10  1  0  0  0
  9 12  1  0  0  0
  9 29  1  0  0  0
 10 14  1  0  0  0
 10 30  1  0  0  0
 11 12  1  0  0  0
 11 13  1  0  0  0
 11 31  1  0  0  0
 11 32  1  0  0  0
 12 33  1  0  0  0
 12 34  1  0  0  0
 13 14  1  0  0  0
 13 17  1  0  0  0
 13 18  1  0  0  0
 14 15  1  0  0  0
 14 35  1  0  0  0
 15 16  1  0  0  0
 15 36  1  0  0  0
 15 37  1  0  0  0
 16 17  1  0  0  0
 16 21  1  0  0  0
 16 38  1  0  0  0
 17 19  1  0  0  0
 17 39  1  0  0  0
 18 40  1  0  0  0
 18 41  1  0  0  0
 18 42  1  0  0  0
 19 43  1  0  0  0
 20 44  1  0  0  0
M  END
>  <Name>
lit-243

>  <Family>
A.1

>  <RBA>
57.000000

>  <RBA_avg>
57.000000

>  <Method>
RBC

>  <set>
0

$$$$
lit-244
  Cerius2 12180216413D 1   1.00000                          
 Structure written by MMmdl.
 44 47  0  0  0  0  0  0  0  0999 V2000
   -6.7912   -4.1036   16.7437 C   0  0  0  0  0  0
   -5.4089   -4.1413   16.6598 C   0  0  0  0  0  0
   -4.7835   -4.4482   15.4581 C   0  0  0  0  0  0
   -7.5613   -4.3679   15.6083 C   0  0  0  0  0  0
   -6.9603   -4.6602   14.3704 C   0  0  0  0  0  0
   -5.5499   -4.7248   14.3104 C   0  0  0  0  0  0
   -4.8097   -5.0320   13.0289 C   0  0  0  0  0  0
   -5.6917   -5.6035   11.9227 C   0  0  0  0  0  0
   -7.8050   -4.9949   13.1411 C   0  0  0  0  0  0
   -6.9904   -4.8003   11.8258 C   0  0  0  0  0  0
   -9.9758   -4.5862   11.7880 C   0  0  0  0  0  0
   -9.1761   -4.2703   13.0674 C   0  0  0  0  0  0
   -9.1379   -4.3726   10.5198 C   0  0  0  0  0  0
   -7.8600   -5.2293   10.6432 C   0  0  0  0  0  0
   -7.2693   -5.2136    9.2333 C   0  0  0  0  0  0
   -8.4990   -5.1615    8.3106 C   0  0  0  0  0  0
   -9.7294   -4.9964    9.2377 C   0  0  0  0  0  0
   -8.8862   -2.8561   10.3258 C   0  0  0  0  0  0
  -10.7806   -4.2226    8.6704 O   0  0  0  0  0  0
   -4.6890   -3.8744   17.7863 O   0  0  0  0  0  0
   -8.3789   -4.0798    7.4872 F   0  0  0  0  0  0
   -7.2801   -3.8738   17.6878 H   0  0  0  0  0  0
   -3.6969   -4.4786   15.3975 H   0  0  0  0  0  0
   -8.6434   -4.3465   15.7189 H   0  0  0  0  0  0
   -3.9977   -5.7412   13.2307 H   0  0  0  0  0  0
   -4.3518   -4.0995   12.6746 H   0  0  0  0  0  0
   -5.9160   -6.6577   12.1309 H   0  0  0  0  0  0
   -5.1361   -5.5764   10.9788 H   0  0  0  0  0  0
   -8.0296   -6.0687   13.2364 H   0  0  0  0  0  0
   -6.7172   -3.7430   11.7145 H   0  0  0  0  0  0
  -10.8837   -3.9717   11.7603 H   0  0  0  0  0  0
  -10.3127   -5.6298   11.8414 H   0  0  0  0  0  0
   -9.0283   -3.1875   13.1585 H   0  0  0  0  0  0
   -9.8039   -4.5631   13.9169 H   0  0  0  0  0  0
   -8.1579   -6.2746   10.8321 H   0  0  0  0  0  0
   -6.6784   -6.1164    9.0470 H   0  0  0  0  0  0
   -6.6207   -4.3463    9.0706 H   0  0  0  0  0  0
   -8.5886   -6.0491    7.6776 H   0  0  0  0  0  0
  -10.1364   -5.9904    9.4640 H   0  0  0  0  0  0
   -8.2790   -2.6404    9.4419 H   0  0  0  0  0  0
   -8.3734   -2.4003   11.1769 H   0  0  0  0  0  0
   -9.8350   -2.3207   10.2050 H   0  0  0  0  0  0
  -10.9072   -4.5582    7.7580 H   0  0  0  0  0  0
   -3.7350   -3.9408   17.5672 H   0  0  0  0  0  0
  1  2  2  0  0  0
  1  4  1  0  0  0
  1 22  1  0  0  0
  2  3  1  0  0  0
  2 20  1  0  0  0
  3  6  2  0  0  0
  3 23  1  0  0  0
  4  5  2  0  0  0
  4 24  1  0  0  0
  5  6  1  0  0  0
  5  9  1  0  0  0
  6  7  1  0  0  0
  7  8  1  0  0  0
  7 25  1  0  0  0
  7 26  1  0  0  0
  8 10  1  0  0  0
  8 27  1  0  0  0
  8 28  1  0  0  0
  9 10  1  0  0  0
  9 12  1  0  0  0
  9 29  1  0  0  0
 10 14  1  0  0  0
 10 30  1  0  0  0
 11 12  1  0  0  0
 11 13  1  0  0  0
 11 31  1  0  0  0
 11 32  1  0  0  0
 12 33  1  0  0  0
 12 34  1  0  0  0
 13 14  1  0  0  0
 13 17  1  0  0  0
 13 18  1  0  0  0
 14 15  1  0  0  0
 14 35  1  0  0  0
 15 16  1  0  0  0
 15 36  1  0  0  0
 15 37  1  0  0  0
 16 17  1  0  0  0
 16 21  1  0  0  0
 16 38  1  0  0  0
 17 19  1  0  0  0
 17 39  1  0  0  0
 18 40  1  0  0  0
 18 41  1  0  0  0
 18 42  1  0  0  0
 19 43  1  0  0  0
 20 44  1  0  0  0
M  END
>  <Name>
lit-244

>  <Family>
A.1

>  <RBA>
38.000000

>  <RBA_avg>
38.000000

>  <Method>
RBC

>  <set>
0

$$$$
lit-245
  Cerius2 12180216413D 1   1.00000                          
 Structure written by MMmdl.
 47 50  0  0  0  0  0  0  0  0999 V2000
   -6.7968   -4.1705   16.7616 C   0  0  0  0  0  0
   -5.4149   -4.1558   16.6701 C   0  0  0  0  0  0
   -4.7861   -4.4090   15.4577 C   0  0  0  0  0  0
   -7.5625   -4.4313   15.6227 C   0  0  0  0  0  0
   -6.9590   -4.6665   14.3732 C   0  0  0  0  0  0
   -5.5480   -4.6837   14.3060 C   0  0  0  0  0  0
   -4.8009   -4.9360   13.0151 C   0  0  0  0  0  0
   -5.6450   -5.5756   11.9019 C   0  0  0  0  0  0
   -7.8081   -4.9924   13.1449 C   0  0  0  0  0  0
   -6.9936   -4.8314   11.8244 C   0  0  0  0  0  0
   -9.9723   -4.5355   11.7969 C   0  0  0  0  0  0
   -9.1531   -4.2174   13.0634 C   0  0  0  0  0  0
   -9.1393   -4.3693   10.5192 C   0  0  0  0  0  0
   -7.8814   -5.2552   10.6505 C   0  0  0  0  0  0
   -7.3029   -5.2607    9.2386 C   0  0  0  0  0  0
   -8.5441   -5.2311    8.3274 C   0  0  0  0  0  0
   -9.7550   -5.0002    9.2534 C   0  0  0  0  0  0
   -8.8555   -2.8631   10.2863 C   0  0  0  0  0  0
  -10.7381   -4.1820    8.6388 O   0  0  0  0  0  0
   -4.6985   -3.8932   17.7999 O   0  0  0  0  0  0
   -5.7553   -7.0925   12.0944 C   0  0  0  0  0  0
   -7.2886   -3.9848   17.7138 H   0  0  0  0  0  0
   -3.6994   -4.3999   15.3924 H   0  0  0  0  0  0
   -8.6442   -4.4551   15.7385 H   0  0  0  0  0  0
   -3.9194   -5.5593   13.2114 H   0  0  0  0  0  0
   -4.4321   -3.9640   12.6606 H   0  0  0  0  0  0
   -5.1029   -5.4196   10.9598 H   0  0  0  0  0  0
   -8.0772   -6.0532   13.2520 H   0  0  0  0  0  0
   -6.7423   -3.7691   11.7017 H   0  0  0  0  0  0
  -10.8630   -3.8966   11.7643 H   0  0  0  0  0  0
  -10.3374   -5.5682   11.8730 H   0  0  0  0  0  0
   -8.9633   -3.1392   13.1266 H   0  0  0  0  0  0
   -9.7868   -4.4640   13.9229 H   0  0  0  0  0  0
   -8.2121   -6.2874   10.8500 H   0  0  0  0  0  0
   -6.6912   -6.1483    9.0481 H   0  0  0  0  0  0
   -6.6755   -4.3808    9.0576 H   0  0  0  0  0  0
   -8.6573   -6.1803    7.7920 H   0  0  0  0  0  0
   -8.4506   -4.4466    7.5678 H   0  0  0  0  0  0
  -10.2225   -5.9638    9.4926 H   0  0  0  0  0  0
   -8.2785   -2.6823    9.3740 H   0  0  0  0  0  0
   -8.3028   -2.4026   11.1091 H   0  0  0  0  0  0
   -9.7945   -2.3058   10.1881 H   0  0  0  0  0  0
  -11.0020   -4.6429    7.8145 H   0  0  0  0  0  0
   -3.7441   -3.9189   17.5742 H   0  0  0  0  0  0
   -6.3315   -7.5559   11.2884 H   0  0  0  0  0  0
   -6.2217   -7.3614   13.0466 H   0  0  0  0  0  0
   -4.7589   -7.5483   12.0809 H   0  0  0  0  0  0
  1  2  2  0  0  0
  1  4  1  0  0  0
  1 22  1  0  0  0
  2  3  1  0  0  0
  2 20  1  0  0  0
  3  6  2  0  0  0
  3 23  1  0  0  0
  4  5  2  0  0  0
  4 24  1  0  0  0
  5  6  1  0  0  0
  5  9  1  0  0  0
  6  7  1  0  0  0
  7  8  1  0  0  0
  7 25  1  0  0  0
  7 26  1  0  0  0
  8 10  1  0  0  0
  8 21  1  0  0  0
  8 27  1  0  0  0
  9 10  1  0  0  0
  9 12  1  0  0  0
  9 28  1  0  0  0
 10 14  1  0  0  0
 10 29  1  0  0  0
 11 12  1  0  0  0
 11 13  1  0  0  0
 11 30  1  0  0  0
 11 31  1  0  0  0
 12 32  1  0  0  0
 12 33  1  0  0  0
 13 14  1  0  0  0
 13 17  1  0  0  0
 13 18  1  0  0  0
 14 15  1  0  0  0
 14 34  1  0  0  0
 15 16  1  0  0  0
 15 35  1  0  0  0
 15 36  1  0  0  0
 16 17  1  0  0  0
 16 37  1  0  0  0
 16 38  1  0  0  0
 17 19  1  0  0  0
 17 39  1  0  0  0
 18 40  1  0  0  0
 18 41  1  0  0  0
 18 42  1  0  0  0
 19 43  1  0  0  0
 20 44  1  0  0  0
 21 45  1  0  0  0
 21 46  1  0  0  0
 21 47  1  0  0  0
M  END
>  <Name>
lit-245

>  <Family>
A.1

>  <RBA>
104,101

>  <RBA_avg>
103.000000

>  <Method>
RBC,MUC

>  <set>
0

$$$$
lit-246
  Cerius2 12180216413D 1   1.00000                          
 Structure written by MMmdl.
 45 48  0  0  0  0  0  0  0  0999 V2000
   -6.7971   -4.0939   16.7388 C   0  0  0  0  0  0
   -5.4147   -4.1190   16.6573 C   0  0  0  0  0  0
   -4.7859   -4.4336   15.4596 C   0  0  0  0  0  0
   -7.5626   -4.3781   15.6052 C   0  0  0  0  0  0
   -6.9583   -4.6773   14.3697 C   0  0  0  0  0  0
   -5.5482   -4.7302   14.3129 C   0  0  0  0  0  0
   -4.7965   -5.0535   13.0380 C   0  0  0  0  0  0
   -5.6638   -5.6035   11.9007 C   0  0  0  0  0  0
   -7.8013   -5.0259   13.1422 C   0  0  0  0  0  0
   -6.9877   -4.8290   11.8256 C   0  0  0  0  0  0
   -9.9776   -4.6005   11.7958 C   0  0  0  0  0  0
   -9.1720   -4.2958   13.0726 C   0  0  0  0  0  0
   -9.1432   -4.3774   10.5289 C   0  0  0  0  0  0
   -7.8698   -5.2411   10.6422 C   0  0  0  0  0  0
   -7.2869   -5.1994    9.2317 C   0  0  0  0  0  0
   -8.5242   -5.1633    8.3158 C   0  0  0  0  0  0
   -9.7425   -4.9819    9.2424 C   0  0  0  0  0  0
   -8.8862   -2.8601   10.3434 C   0  0  0  0  0  0
  -10.7376   -4.1634    8.6481 O   0  0  0  0  0  0
   -4.6987   -3.8330   17.7814 O   0  0  0  0  0  0
   -5.8747   -7.0069   12.1001 O   0  0  0  0  0  0
   -7.2897   -3.8589   17.6797 H   0  0  0  0  0  0
   -3.6988   -4.4563   15.4013 H   0  0  0  0  0  0
   -8.6448   -4.3658   15.7158 H   0  0  0  0  0  0
   -4.0037   -5.7761   13.2681 H   0  0  0  0  0  0
   -4.3231   -4.1229   12.6992 H   0  0  0  0  0  0
   -5.0989   -5.5014   10.9667 H   0  0  0  0  0  0
   -8.0299   -6.0976   13.2433 H   0  0  0  0  0  0
   -6.7249   -3.7680   11.7218 H   0  0  0  0  0  0
  -10.8845   -3.9842   11.7762 H   0  0  0  0  0  0
  -10.3160   -5.6439   11.8420 H   0  0  0  0  0  0
   -9.0202   -3.2138   13.1678 H   0  0  0  0  0  0
   -9.7992   -4.5904   13.9221 H   0  0  0  0  0  0
   -8.1779   -6.2855   10.8152 H   0  0  0  0  0  0
   -6.6616   -6.0728    9.0207 H   0  0  0  0  0  0
   -6.6717   -4.3061    9.0774 H   0  0  0  0  0  0
   -8.6186   -6.0973    7.7505 H   0  0  0  0  0  0
   -8.4412   -4.3542    7.5814 H   0  0  0  0  0  0
  -10.1934   -5.9605    9.4513 H   0  0  0  0  0  0
   -8.3138   -2.6409    9.4366 H   0  0  0  0  0  0
   -8.3392   -2.4172   11.1796 H   0  0  0  0  0  0
   -9.8348   -2.3163   10.2639 H   0  0  0  0  0  0
  -10.9913   -4.6050    7.8100 H   0  0  0  0  0  0
   -3.7438   -3.8923   17.5639 H   0  0  0  0  0  0
   -6.2383   -7.3574   11.2610 H   0  0  0  0  0  0
  1  2  2  0  0  0
  1  4  1  0  0  0
  1 22  1  0  0  0
  2  3  1  0  0  0
  2 20  1  0  0  0
  3  6  2  0  0  0
  3 23  1  0  0  0
  4  5  2  0  0  0
  4 24  1  0  0  0
  5  6  1  0  0  0
  5  9  1  0  0  0
  6  7  1  0  0  0
  7  8  1  0  0  0
  7 25  1  0  0  0
  7 26  1  0  0  0
  8 10  1  0  0  0
  8 21  1  0  0  0
  8 27  1  0  0  0
  9 10  1  0  0  0
  9 12  1  0  0  0
  9 28  1  0  0  0
 10 14  1  0  0  0
 10 29  1  0  0  0
 11 12  1  0  0  0
 11 13  1  0  0  0
 11 30  1  0  0  0
 11 31  1  0  0  0
 12 32  1  0  0  0
 12 33  1  0  0  0
 13 14  1  0  0  0
 13 17  1  0  0  0
 13 18  1  0  0  0
 14 15  1  0  0  0
 14 34  1  0  0  0
 15 16  1  0  0  0
 15 35  1  0  0  0
 15 36  1  0  0  0
 16 17  1  0  0  0
 16 37  1  0  0  0
 16 38  1  0  0  0
 17 19  1  0  0  0
 17 39  1  0  0  0
 18 40  1  0  0  0
 18 41  1  0  0  0
 18 42  1  0  0  0
 19 43  1  0  0  0
 20 44  1  0  0  0
 21 45  1  0  0  0
M  END
>  <Name>
lit-246

>  <Family>
A.1

>  <RBA>
0.800000

>  <RBA_avg>
0.800000

>  <Method>
RUC

>  <set>
0

$$$$
lit-247
  Cerius2 12180216413D 1   1.00000                          
 Structure written by MMmdl.
 57 60  0  0  0  0  0  0  0  0999 V2000
   -6.7994   -4.2159   16.7676 C   0  0  0  0  0  0
   -5.4200   -4.1390   16.6627 C   0  0  0  0  0  0
   -4.7923   -4.3502   15.4415 C   0  0  0  0  0  0
   -7.5647   -4.4946   15.6327 C   0  0  0  0  0  0
   -6.9632   -4.6861   14.3750 C   0  0  0  0  0  0
   -5.5534   -4.6450   14.2951 C   0  0  0  0  0  0
   -4.8163   -4.8611   12.9917 C   0  0  0  0  0  0
   -5.6352   -5.6290   11.9289 C   0  0  0  0  0  0
   -7.8151   -5.0203   13.1495 C   0  0  0  0  0  0
   -6.9966   -4.8961   11.8260 C   0  0  0  0  0  0
   -9.9664   -4.5143   11.7987 C   0  0  0  0  0  0
   -9.1411   -4.2135   13.0642 C   0  0  0  0  0  0
   -9.1281   -4.3648   10.5227 C   0  0  0  0  0  0
   -7.8926   -5.2872   10.6500 C   0  0  0  0  0  0
   -7.3160   -5.2883    9.2369 C   0  0  0  0  0  0
   -8.5571   -5.2304    8.3267 C   0  0  0  0  0  0
   -9.7612   -4.9733    9.2541 C   0  0  0  0  0  0
   -8.8084   -2.8644   10.2948 C   0  0  0  0  0  0
  -10.7234   -4.1274    8.6441 O   0  0  0  0  0  0
   -4.7047   -3.8591   17.7890 O   0  0  0  0  0  0
   -5.6504   -7.1401   12.2770 C   0  0  0  0  0  0
   -5.9464   -8.0703   11.0970 C   0  0  0  0  0  0
   -5.7484   -9.5389   11.4880 C   0  0  0  0  0  0
   -6.0579  -10.4562   10.3390 C   0  0  0  0  0  0
   -5.1661  -11.2800    9.7742 C   0  0  0  0  0  0
   -7.2888   -4.0642   17.7269 H   0  0  0  0  0  0
   -3.7077   -4.2944   15.3665 H   0  0  0  0  0  0
   -8.6434   -4.5674   15.7559 H   0  0  0  0  0  0
   -3.8695   -5.3836   13.1782 H   0  0  0  0  0  0
   -4.5531   -3.8712   12.5951 H   0  0  0  0  0  0
   -5.0969   -5.5136   10.9789 H   0  0  0  0  0  0
   -8.1082   -6.0728   13.2696 H   0  0  0  0  0  0
   -6.7400   -3.8357   11.6930 H   0  0  0  0  0  0
  -10.8430   -3.8561   11.7655 H   0  0  0  0  0  0
  -10.3540   -5.5388   11.8741 H   0  0  0  0  0  0
   -8.9252   -3.1399   13.1246 H   0  0  0  0  0  0
   -9.7803   -4.4405   13.9249 H   0  0  0  0  0  0
   -8.2629   -6.3032   10.8467 H   0  0  0  0  0  0
   -6.7163   -6.1781    9.0281 H   0  0  0  0  0  0
   -6.6767   -4.4151    9.0649 H   0  0  0  0  0  0
   -8.6923   -6.1776    7.7926 H   0  0  0  0  0  0
   -8.4467   -4.4489    7.5666 H   0  0  0  0  0  0
  -10.2533   -5.9257    9.4892 H   0  0  0  0  0  0
   -8.2314   -2.6932    9.3807 H   0  0  0  0  0  0
   -8.2417   -2.4200   11.1169 H   0  0  0  0  0  0
   -9.7342   -2.2842   10.2027 H   0  0  0  0  0  0
  -11.0003   -4.5778    7.8184 H   0  0  0  0  0  0
   -3.7522   -3.8407   17.5543 H   0  0  0  0  0  0
   -6.3450   -7.3560   13.0949 H   0  0  0  0  0  0
   -4.6561   -7.4136   12.6552 H   0  0  0  0  0  0
   -5.2832   -7.8236   10.2589 H   0  0  0  0  0  0
   -6.9739   -7.9374   10.7521 H   0  0  0  0  0  0
   -6.4120   -9.7933   12.3232 H   0  0  0  0  0  0
   -4.7206   -9.6935   11.8386 H   0  0  0  0  0  0
   -7.0802  -10.4433    9.9613 H   0  0  0  0  0  0
   -5.4492  -11.9259    8.9466 H   0  0  0  0  0  0
   -4.1358  -11.3341   10.1160 H   0  0  0  0  0  0
  1  2  2  0  0  0
  1  4  1  0  0  0
  1 26  1  0  0  0
  2  3  1  0  0  0
  2 20  1  0  0  0
  3  6  2  0  0  0
  3 27  1  0  0  0
  4  5  2  0  0  0
  4 28  1  0  0  0
  5  6  1  0  0  0
  5  9  1  0  0  0
  6  7  1  0  0  0
  7  8  1  0  0  0
  7 29  1  0  0  0
  7 30  1  0  0  0
  8 10  1  0  0  0
  8 21  1  0  0  0
  8 31  1  0  0  0
  9 10  1  0  0  0
  9 12  1  0  0  0
  9 32  1  0  0  0
 10 14  1  0  0  0
 10 33  1  0  0  0
 11 12  1  0  0  0
 11 13  1  0  0  0
 11 34  1  0  0  0
 11 35  1  0  0  0
 12 36  1  0  0  0
 12 37  1  0  0  0
 13 14  1  0  0  0
 13 17  1  0  0  0
 13 18  1  0  0  0
 14 15  1  0  0  0
 14 38  1  0  0  0
 15 16  1  0  0  0
 15 39  1  0  0  0
 15 40  1  0  0  0
 16 17  1  0  0  0
 16 41  1  0  0  0
 16 42  1  0  0  0
 17 19  1  0  0  0
 17 43  1  0  0  0
 18 44  1  0  0  0
 18 45  1  0  0  0
 18 46  1  0  0  0
 19 47  1  0  0  0
 20 48  1  0  0  0
 21 22  1  0  0  0
 21 49  1  0  0  0
 21 50  1  0  0  0
 22 23  1  0  0  0
 22 51  1  0  0  0
 22 52  1  0  0  0
 23 24  1  0  0  0
 23 53  1  0  0  0
 23 54  1  0  0  0
 24 25  2  0  0  0
 24 55  1  0  0  0
 25 56  1  0  0  0
 25 57  1  0  0  0
M  END
>  <Name>
lit-247

>  <Family>
A.1

>  <RBA>
132.000000

>  <RBA_avg>
132.000000

>  <Method>
LUC

>  <set>
1

$$$$
lit-248
  Cerius2 12180216413D 1   1.00000                          
 Structure written by MMmdl.
 60 63  0  0  0  0  0  0  0  0999 V2000
   -6.7994   -4.2160   16.7675 C   0  0  0  0  0  0
   -5.4201   -4.1390   16.6627 C   0  0  0  0  0  0
   -4.7923   -4.3500   15.4415 C   0  0  0  0  0  0
   -7.5646   -4.4946   15.6327 C   0  0  0  0  0  0
   -6.9632   -4.6862   14.3750 C   0  0  0  0  0  0
   -5.5533   -4.6449   14.2952 C   0  0  0  0  0  0
   -4.8162   -4.8611   12.9919 C   0  0  0  0  0  0
   -5.6350   -5.6286   11.9287 C   0  0  0  0  0  0
   -7.8149   -5.0204   13.1495 C   0  0  0  0  0  0
   -6.9966   -4.8960   11.8259 C   0  0  0  0  0  0
   -9.9664   -4.5145   11.7988 C   0  0  0  0  0  0
   -9.1411   -4.2138   13.0642 C   0  0  0  0  0  0
   -9.1282   -4.3649   10.5227 C   0  0  0  0  0  0
   -7.8927   -5.2874   10.6501 C   0  0  0  0  0  0
   -7.3162   -5.2885    9.2369 C   0  0  0  0  0  0
   -8.5573   -5.2310    8.3269 C   0  0  0  0  0  0
   -9.7614   -4.9731    9.2541 C   0  0  0  0  0  0
   -8.8083   -2.8645   10.2949 C   0  0  0  0  0  0
  -10.7229   -4.1265    8.6439 O   0  0  0  0  0  0
   -4.7047   -3.8590   17.7890 O   0  0  0  0  0  0
   -5.6503   -7.1398   12.2758 C   0  0  0  0  0  0
   -5.9449   -8.0682   11.0949 C   0  0  0  0  0  0
   -5.7477   -9.5372   11.4825 C   0  0  0  0  0  0
   -6.0493  -10.4668   10.3084 C   0  0  0  0  0  0
   -5.8558  -11.9292   10.6846 C   0  0  0  0  0  0
   -6.1519  -12.7405    9.5490 O   0  0  0  0  0  0
   -7.2888   -4.0645   17.7269 H   0  0  0  0  0  0
   -3.7077   -4.2942   15.3665 H   0  0  0  0  0  0
   -8.6434   -4.5675   15.7558 H   0  0  0  0  0  0
   -3.8696   -5.3838   13.1784 H   0  0  0  0  0  0
   -4.5528   -3.8711   12.5955 H   0  0  0  0  0  0
   -5.0967   -5.5126   10.9788 H   0  0  0  0  0  0
   -8.1080   -6.0730   13.2696 H   0  0  0  0  0  0
   -6.7402   -3.8356   11.6928 H   0  0  0  0  0  0
  -10.8431   -3.8564   11.7655 H   0  0  0  0  0  0
  -10.3539   -5.5389   11.8741 H   0  0  0  0  0  0
   -8.9254   -3.1402   13.1248 H   0  0  0  0  0  0
   -9.7803   -4.4410   13.9249 H   0  0  0  0  0  0
   -8.2629   -6.3035   10.8468 H   0  0  0  0  0  0
   -6.7162   -6.1782    9.0280 H   0  0  0  0  0  0
   -6.6772   -4.4152    9.0649 H   0  0  0  0  0  0
   -8.6927   -6.1787    7.7935 H   0  0  0  0  0  0
   -8.4468   -4.4501    7.5661 H   0  0  0  0  0  0
  -10.2541   -5.9251    9.4891 H   0  0  0  0  0  0
   -8.2313   -2.6933    9.3809 H   0  0  0  0  0  0
   -8.2417   -2.4201   11.1170 H   0  0  0  0  0  0
   -9.7341   -2.2843   10.2028 H   0  0  0  0  0  0
  -11.0001   -4.5770    7.8182 H   0  0  0  0  0  0
   -3.7523   -3.8399   17.5541 H   0  0  0  0  0  0
   -6.3455   -7.3564   13.0929 H   0  0  0  0  0  0
   -4.6563   -7.4137   12.6548 H   0  0  0  0  0  0
   -5.2806   -7.8229   10.2581 H   0  0  0  0  0  0
   -6.9725   -7.9389   10.7503 H   0  0  0  0  0  0
   -6.4038   -9.7853   12.3257 H   0  0  0  0  0  0
   -4.7154   -9.6945   11.8180 H   0  0  0  0  0  0
   -5.4037  -10.2229    9.4555 H   0  0  0  0  0  0
   -7.0780  -10.3154    9.9583 H   0  0  0  0  0  0
   -6.5277  -12.2158   11.4998 H   0  0  0  0  0  0
   -4.8219  -12.1219   10.9879 H   0  0  0  0  0  0
   -6.0128  -13.6668    9.8439 H   0  0  0  0  0  0
  1  2  2  0  0  0
  1  4  1  0  0  0
  1 27  1  0  0  0
  2  3  1  0  0  0
  2 20  1  0  0  0
  3  6  2  0  0  0
  3 28  1  0  0  0
  4  5  2  0  0  0
  4 29  1  0  0  0
  5  6  1  0  0  0
  5  9  1  0  0  0
  6  7  1  0  0  0
  7  8  1  0  0  0
  7 30  1  0  0  0
  7 31  1  0  0  0
  8 10  1  0  0  0
  8 21  1  0  0  0
  8 32  1  0  0  0
  9 10  1  0  0  0
  9 12  1  0  0  0
  9 33  1  0  0  0
 10 14  1  0  0  0
 10 34  1  0  0  0
 11 12  1  0  0  0
 11 13  1  0  0  0
 11 35  1  0  0  0
 11 36  1  0  0  0
 12 37  1  0  0  0
 12 38  1  0  0  0
 13 14  1  0  0  0
 13 17  1  0  0  0
 13 18  1  0  0  0
 14 15  1  0  0  0
 14 39  1  0  0  0
 15 16  1  0  0  0
 15 40  1  0  0  0
 15 41  1  0  0  0
 16 17  1  0  0  0
 16 42  1  0  0  0
 16 43  1  0  0  0
 17 19  1  0  0  0
 17 44  1  0  0  0
 18 45  1  0  0  0
 18 46  1  0  0  0
 18 47  1  0  0  0
 19 48  1  0  0  0
 20 49  1  0  0  0
 21 22  1  0  0  0
 21 50  1  0  0  0
 21 51  1  0  0  0
 22 23  1  0  0  0
 22 52  1  0  0  0
 22 53  1  0  0  0
 23 24  1  0  0  0
 23 54  1  0  0  0
 23 55  1  0  0  0
 24 25  1  0  0  0
 24 56  1  0  0  0
 24 57  1  0  0  0
 25 26  1  0  0  0
 25 58  1  0  0  0
 25 59  1  0  0  0
 26 60  1  0  0  0
M  END
>  <Name>
lit-248

>  <Family>
A.1

>  <RBA>
36.000000

>  <RBA_avg>
36.000000

>  <Method>
LUC

>  <set>
0

$$$$
lit-249
  Cerius2 12180216413D 1   1.00000                          
 Structure written by MMmdl.
 66 69  0  0  0  0  0  0  0  0999 V2000
   -6.7989   -4.2220   16.7691 C   0  0  0  0  0  0
   -5.4197   -4.1425   16.6643 C   0  0  0  0  0  0
   -4.7921   -4.3482   15.4420 C   0  0  0  0  0  0
   -7.5641   -4.4975   15.6336 C   0  0  0  0  0  0
   -6.9629   -4.6843   14.3751 C   0  0  0  0  0  0
   -5.5530   -4.6406   14.2950 C   0  0  0  0  0  0
   -4.8165   -4.8529   12.9905 C   0  0  0  0  0  0
   -5.6344   -5.6251   11.9298 C   0  0  0  0  0  0
   -7.8148   -5.0176   13.1493 C   0  0  0  0  0  0
   -6.9968   -4.8945   11.8257 C   0  0  0  0  0  0
   -9.9661   -4.5092   11.7985 C   0  0  0  0  0  0
   -9.1397   -4.2087   13.0635 C   0  0  0  0  0  0
   -9.1281   -4.3640   10.5215 C   0  0  0  0  0  0
   -7.8937   -5.2877   10.6508 C   0  0  0  0  0  0
   -7.3178   -5.2942    9.2374 C   0  0  0  0  0  0
   -8.5592   -5.2365    8.3276 C   0  0  0  0  0  0
   -9.7625   -4.9750    9.2548 C   0  0  0  0  0  0
   -8.8066   -2.8646   10.2894 C   0  0  0  0  0  0
  -10.7234   -4.1292    8.6427 O   0  0  0  0  0  0
   -4.7047   -3.8658   17.7916 O   0  0  0  0  0  0
   -5.6460   -7.1350   12.2826 C   0  0  0  0  0  0
   -5.9566   -8.0685   11.1102 C   0  0  0  0  0  0
   -5.7528   -9.5358   11.5011 C   0  0  0  0  0  0
   -6.0839  -10.4703   10.3392 C   0  0  0  0  0  0
   -5.8871  -11.9344   10.7179 C   0  0  0  0  0  0
   -6.2159  -12.7382    9.5902 O   0  0  0  0  0  0
   -7.9882  -14.5404   10.1341 C   0  0  0  0  0  0
   -6.2567  -14.3638    9.7663 S   0  0  0  0  0  0
   -5.9759  -14.9523    8.4632 O   0  0  0  0  0  0
   -5.4614  -14.7458   10.9240 O   0  0  0  0  0  0
   -7.2884   -4.0749   17.7292 H   0  0  0  0  0  0
   -3.7074   -4.2903   15.3669 H   0  0  0  0  0  0
   -8.6427   -4.5727   15.7566 H   0  0  0  0  0  0
   -3.8673   -5.3712   13.1753 H   0  0  0  0  0  0
   -4.5585   -3.8618   12.5936 H   0  0  0  0  0  0
   -5.0970   -5.5113   10.9791 H   0  0  0  0  0  0
   -8.1090   -6.0698   13.2695 H   0  0  0  0  0  0
   -6.7417   -3.8340   11.6910 H   0  0  0  0  0  0
  -10.8410   -3.8490   11.7644 H   0  0  0  0  0  0
  -10.3562   -5.5326   11.8756 H   0  0  0  0  0  0
   -8.9219   -3.1354   13.1227 H   0  0  0  0  0  0
   -9.7791   -4.4336   13.9247 H   0  0  0  0  0  0
   -8.2660   -6.3024   10.8504 H   0  0  0  0  0  0
   -6.7203   -6.1860    9.0311 H   0  0  0  0  0  0
   -6.6768   -4.4230    9.0625 H   0  0  0  0  0  0
   -8.6964   -6.1847    7.7958 H   0  0  0  0  0  0
   -8.4478   -4.4572    7.5654 H   0  0  0  0  0  0
  -10.2561   -5.9259    9.4925 H   0  0  0  0  0  0
   -8.2269   -2.6969    9.3764 H   0  0  0  0  0  0
   -8.2420   -2.4179   11.1116 H   0  0  0  0  0  0
   -9.7315   -2.2841   10.1926 H   0  0  0  0  0  0
  -11.0039   -4.5831    7.8200 H   0  0  0  0  0  0
   -3.7523   -3.8438   17.5567 H   0  0  0  0  0  0
   -6.3311   -7.3475   13.1096 H   0  0  0  0  0  0
   -4.6474   -7.4074   12.6501 H   0  0  0  0  0  0
   -5.3046   -7.8267   10.2626 H   0  0  0  0  0  0
   -6.9891   -7.9417   10.7804 H   0  0  0  0  0  0
   -6.3895   -9.7784   12.3606 H   0  0  0  0  0  0
   -4.7133   -9.6933   11.8133 H   0  0  0  0  0  0
   -5.4577  -10.2327    9.4702 H   0  0  0  0  0  0
   -7.1204  -10.3177   10.0129 H   0  0  0  0  0  0
   -6.5352  -12.1972   11.5610 H   0  0  0  0  0  0
   -4.8438  -12.1169   10.9973 H   0  0  0  0  0  0
   -8.2020  -15.6052   10.2466 H   0  0  0  0  0  0
   -8.5673  -14.1279    9.3060 H   0  0  0  0  0  0
   -8.2097  -14.0152   11.0646 H   0  0  0  0  0  0
  1  2  2  0  0  0
  1  4  1  0  0  0
  1 31  1  0  0  0
  2  3  1  0  0  0
  2 20  1  0  0  0
  3  6  2  0  0  0
  3 32  1  0  0  0
  4  5  2  0  0  0
  4 33  1  0  0  0
  5  6  1  0  0  0
  5  9  1  0  0  0
  6  7  1  0  0  0
  7  8  1  0  0  0
  7 34  1  0  0  0
  7 35  1  0  0  0
  8 10  1  0  0  0
  8 21  1  0  0  0
  8 36  1  0  0  0
  9 10  1  0  0  0
  9 12  1  0  0  0
  9 37  1  0  0  0
 10 14  1  0  0  0
 10 38  1  0  0  0
 11 12  1  0  0  0
 11 13  1  0  0  0
 11 39  1  0  0  0
 11 40  1  0  0  0
 12 41  1  0  0  0
 12 42  1  0  0  0
 13 14  1  0  0  0
 13 17  1  0  0  0
 13 18  1  0  0  0
 14 15  1  0  0  0
 14 43  1  0  0  0
 15 16  1  0  0  0
 15 44  1  0  0  0
 15 45  1  0  0  0
 16 17  1  0  0  0
 16 46  1  0  0  0
 16 47  1  0  0  0
 17 19  1  0  0  0
 17 48  1  0  0  0
 18 49  1  0  0  0
 18 50  1  0  0  0
 18 51  1  0  0  0
 19 52  1  0  0  0
 20 53  1  0  0  0
 21 22  1  0  0  0
 21 54  1  0  0  0
 21 55  1  0  0  0
 22 23  1  0  0  0
 22 56  1  0  0  0
 22 57  1  0  0  0
 23 24  1  0  0  0
 23 58  1  0  0  0
 23 59  1  0  0  0
 24 25  1  0  0  0
 24 60  1  0  0  0
 24 61  1  0  0  0
 25 26  1  0  0  0
 25 62  1  0  0  0
 25 63  1  0  0  0
 26 28  1  0  0  0
 27 28  1  0  0  0
 27 64  1  0  0  0
 27 65  1  0  0  0
 27 66  1  0  0  0
 28 29  2  0  0  0
 28 30  2  0  0  0
M  END
>  <Name>
lit-249

>  <Family>
A.1

>  <RBA>
74.000000

>  <RBA_avg>
74.000000

>  <Method>
LUC

>  <set>
1

$$$$
lit-250
  Cerius2 12180216413D 1   1.00000                          
 Structure written by MMmdl.
 59 62  0  0  0  0  0  0  0  0999 V2000
   -6.7992   -4.2164   16.7677 C   0  0  0  0  0  0
   -5.4199   -4.1396   16.6629 C   0  0  0  0  0  0
   -4.7922   -4.3503   15.4417 C   0  0  0  0  0  0
   -7.5646   -4.4946   15.6328 C   0  0  0  0  0  0
   -6.9632   -4.6858   14.3750 C   0  0  0  0  0  0
   -5.5533   -4.6447   14.2952 C   0  0  0  0  0  0
   -4.8161   -4.8607   12.9919 C   0  0  0  0  0  0
   -5.6351   -5.6279   11.9288 C   0  0  0  0  0  0
   -7.8149   -5.0198   13.1495 C   0  0  0  0  0  0
   -6.9966   -4.8954   11.8260 C   0  0  0  0  0  0
   -9.9665   -4.5139   11.7987 C   0  0  0  0  0  0
   -9.1411   -4.2131   13.0641 C   0  0  0  0  0  0
   -9.1283   -4.3647   10.5226 C   0  0  0  0  0  0
   -7.8927   -5.2870   10.6501 C   0  0  0  0  0  0
   -7.3161   -5.2884    9.2370 C   0  0  0  0  0  0
   -8.5574   -5.2322    8.3271 C   0  0  0  0  0  0
   -9.7615   -4.9736    9.2542 C   0  0  0  0  0  0
   -8.8088   -2.8644   10.2940 C   0  0  0  0  0  0
  -10.7229   -4.1274    8.6434 O   0  0  0  0  0  0
   -4.7045   -3.8602   17.7893 O   0  0  0  0  0  0
   -5.6502   -7.1392   12.2757 C   0  0  0  0  0  0
   -5.9456   -8.0672   11.0947 C   0  0  0  0  0  0
   -5.7482   -9.5364   11.4814 C   0  0  0  0  0  0
   -6.0514  -10.4642   10.3073 C   0  0  0  0  0  0
   -5.8581  -11.9230   10.6801 C   0  0  0  0  0  0
   -6.1449  -12.6904    9.5881 F   0  0  0  0  0  0
   -7.2887   -4.0653   17.7271 H   0  0  0  0  0  0
   -3.7075   -4.2946   15.3667 H   0  0  0  0  0  0
   -8.6434   -4.5672   15.7559 H   0  0  0  0  0  0
   -3.8697   -5.3834   13.1782 H   0  0  0  0  0  0
   -4.5527   -3.8707   12.5956 H   0  0  0  0  0  0
   -5.0968   -5.5118   10.9788 H   0  0  0  0  0  0
   -8.1080   -6.0723   13.2695 H   0  0  0  0  0  0
   -6.7403   -3.8350   11.6929 H   0  0  0  0  0  0
  -10.8431   -3.8558   11.7655 H   0  0  0  0  0  0
  -10.3542   -5.5384   11.8744 H   0  0  0  0  0  0
   -8.9253   -3.1395   13.1244 H   0  0  0  0  0  0
   -9.7803   -4.4401   13.9249 H   0  0  0  0  0  0
   -8.2628   -6.3030   10.8472 H   0  0  0  0  0  0
   -6.7157   -6.1778    9.0285 H   0  0  0  0  0  0
   -6.6777   -4.4148    9.0645 H   0  0  0  0  0  0
   -8.6925   -6.1804    7.7949 H   0  0  0  0  0  0
   -8.4472   -4.4520    7.5656 H   0  0  0  0  0  0
  -10.2544   -5.9255    9.4896 H   0  0  0  0  0  0
   -8.2323   -2.6935    9.3796 H   0  0  0  0  0  0
   -8.2418   -2.4197   11.1156 H   0  0  0  0  0  0
   -9.7347   -2.2843   10.2021 H   0  0  0  0  0  0
  -10.9992   -4.5774    7.8173 H   0  0  0  0  0  0
   -3.7522   -3.8412   17.5544 H   0  0  0  0  0  0
   -6.3451   -7.3559   13.0931 H   0  0  0  0  0  0
   -4.6562   -7.4134   12.6541 H   0  0  0  0  0  0
   -5.2817   -7.8216   10.2576 H   0  0  0  0  0  0
   -6.9734   -7.9379   10.7507 H   0  0  0  0  0  0
   -6.4034   -9.7850   12.3252 H   0  0  0  0  0  0
   -4.7157   -9.6940   11.8158 H   0  0  0  0  0  0
   -5.4050  -10.2237    9.4549 H   0  0  0  0  0  0
   -7.0813  -10.3167    9.9609 H   0  0  0  0  0  0
   -6.5298  -12.2258   11.4884 H   0  0  0  0  0  0
   -4.8255  -12.1315   10.9743 H   0  0  0  0  0  0
  1  2  2  0  0  0
  1  4  1  0  0  0
  1 27  1  0  0  0
  2  3  1  0  0  0
  2 20  1  0  0  0
  3  6  2  0  0  0
  3 28  1  0  0  0
  4  5  2  0  0  0
  4 29  1  0  0  0
  5  6  1  0  0  0
  5  9  1  0  0  0
  6  7  1  0  0  0
  7  8  1  0  0  0
  7 30  1  0  0  0
  7 31  1  0  0  0
  8 10  1  0  0  0
  8 21  1  0  0  0
  8 32  1  0  0  0
  9 10  1  0  0  0
  9 12  1  0  0  0
  9 33  1  0  0  0
 10 14  1  0  0  0
 10 34  1  0  0  0
 11 12  1  0  0  0
 11 13  1  0  0  0
 11 35  1  0  0  0
 11 36  1  0  0  0
 12 37  1  0  0  0
 12 38  1  0  0  0
 13 14  1  0  0  0
 13 17  1  0  0  0
 13 18  1  0  0  0
 14 15  1  0  0  0
 14 39  1  0  0  0
 15 16  1  0  0  0
 15 40  1  0  0  0
 15 41  1  0  0  0
 16 17  1  0  0  0
 16 42  1  0  0  0
 16 43  1  0  0  0
 17 19  1  0  0  0
 17 44  1  0  0  0
 18 45  1  0  0  0
 18 46  1  0  0  0
 18 47  1  0  0  0
 19 48  1  0  0  0
 20 49  1  0  0  0
 21 22  1  0  0  0
 21 50  1  0  0  0
 21 51  1  0  0  0
 22 23  1  0  0  0
 22 52  1  0  0  0
 22 53  1  0  0  0
 23 24  1  0  0  0
 23 54  1  0  0  0
 23 55  1  0  0  0
 24 25  1  0  0  0
 24 56  1  0  0  0
 24 57  1  0  0  0
 25 26  1  0  0  0
 25 58  1  0  0  0
 25 59  1  0  0  0
M  END
>  <Name>
lit-250

>  <Family>
A.1

>  <RBA>
63.000000

>  <RBA_avg>
63.000000

>  <Method>
LUC

>  <set>
0

$$$$
lit-251
  Cerius2 12180216413D 1   1.00000                          
 Structure written by MMmdl.
 43 46  0  0  0  0  0  0  0  0999 V2000
   -6.7835   -3.9441   16.6782 C   0  0  0  0  0  0
   -5.4042   -4.0719   16.6152 C   0  0  0  0  0  0
   -4.7899   -4.5296   15.4573 C   0  0  0  0  0  0
   -7.5648   -4.2707   15.5661 C   0  0  0  0  0  0
   -6.9766   -4.7166   14.3690 C   0  0  0  0  0  0
   -5.5729   -4.8581   14.3384 C   0  0  0  0  0  0
   -4.8811   -5.3748   13.1236 C   0  0  0  0  0  0
   -5.7145   -5.6964   11.9063 C   0  0  0  0  0  0
   -7.8179   -5.1008   13.1554 C   0  0  0  0  0  0
   -6.9958   -4.8651   11.8570 C   0  0  0  0  0  0
   -9.9886   -4.6984   11.7908 C   0  0  0  0  0  0
   -9.2128   -4.4206   13.0903 C   0  0  0  0  0  0
   -9.1415   -4.3916   10.5503 C   0  0  0  0  0  0
   -7.8526   -5.2304   10.6426 C   0  0  0  0  0  0
   -7.2488   -5.1114    9.2454 C   0  0  0  0  0  0
   -8.4723   -5.0577    8.3123 C   0  0  0  0  0  0
   -9.7080   -4.9445    9.2265 C   0  0  0  0  0  0
   -8.9111   -2.8629   10.4448 C   0  0  0  0  0  0
  -10.7094   -4.1162    8.6565 O   0  0  0  0  0  0
   -4.6795   -3.7432   17.7223 O   0  0  0  0  0  0
   -3.6652   -5.5781   13.1330 O   0  0  0  0  0  0
   -7.2624   -3.5947   17.5908 H   0  0  0  0  0  0
   -3.7087   -4.6381   15.4178 H   0  0  0  0  0  0
   -8.6438   -4.1687   15.6637 H   0  0  0  0  0  0
   -5.9333   -6.7703   11.9186 H   0  0  0  0  0  0
   -5.1024   -5.4806   11.0232 H   0  0  0  0  0  0
   -8.0035   -6.1815   13.2501 H   0  0  0  0  0  0
   -6.7031   -3.8081   11.8010 H   0  0  0  0  0  0
  -10.9151   -4.1118   11.7818 H   0  0  0  0  0  0
  -10.2921   -5.7534   11.7871 H   0  0  0  0  0  0
   -9.1056   -3.3377   13.2278 H   0  0  0  0  0  0
   -9.8351   -4.7727   13.9223 H   0  0  0  0  0  0
   -8.1353   -6.2901   10.7621 H   0  0  0  0  0  0
   -6.6019   -5.9611    9.0044 H   0  0  0  0  0  0
   -6.6505   -4.1992    9.1428 H   0  0  0  0  0  0
   -8.5384   -5.9664    7.7033 H   0  0  0  0  0  0
   -8.3951   -4.2141    7.6173 H   0  0  0  0  0  0
  -10.1431   -5.9401    9.3803 H   0  0  0  0  0  0
   -8.3443   -2.5867    9.5502 H   0  0  0  0  0  0
   -8.3681   -2.4563   11.3021 H   0  0  0  0  0  0
   -9.8690   -2.3321   10.3948 H   0  0  0  0  0  0
  -10.9413   -4.5210    7.7939 H   0  0  0  0  0  0
   -3.7282   -3.8850   17.5278 H   0  0  0  0  0  0
  1  2  2  0  0  0
  1  4  1  0  0  0
  1 22  1  0  0  0
  2  3  1  0  0  0
  2 20  1  0  0  0
  3  6  2  0  0  0
  3 23  1  0  0  0
  4  5  2  0  0  0
  4 24  1  0  0  0
  5  6  1  0  0  0
  5  9  1  0  0  0
  6  7  1  0  0  0
  7  8  1  0  0  0
  7 21  2  0  0  0
  8 10  1  0  0  0
  8 25  1  0  0  0
  8 26  1  0  0  0
  9 10  1  0  0  0
  9 12  1  0  0  0
  9 27  1  0  0  0
 10 14  1  0  0  0
 10 28  1  0  0  0
 11 12  1  0  0  0
 11 13  1  0  0  0
 11 29  1  0  0  0
 11 30  1  0  0  0
 12 31  1  0  0  0
 12 32  1  0  0  0
 13 14  1  0  0  0
 13 17  1  0  0  0
 13 18  1  0  0  0
 14 15  1  0  0  0
 14 33  1  0  0  0
 15 16  1  0  0  0
 15 34  1  0  0  0
 15 35  1  0  0  0
 16 17  1  0  0  0
 16 36  1  0  0  0
 16 37  1  0  0  0
 17 19  1  0  0  0
 17 38  1  0  0  0
 18 39  1  0  0  0
 18 40  1  0  0  0
 18 41  1  0  0  0
 19 42  1  0  0  0
 20 43  1  0  0  0
M  END
>  <Name>
lit-251

>  <Family>
A.1

>  <RBA>
20,22

>  <RBA_avg>
21.000000

>  <Method>
LUC*,RBC

>  <set>
0

$$$$
lit-252
  Cerius2 12180216413D 1   1.00000                          
 Structure written by MMmdl.
 45 48  0  0  0  0  0  0  0  0999 V2000
   -6.7915   -4.1061   16.7458 C   0  0  0  0  0  0
   -5.4093   -4.1440   16.6660 C   0  0  0  0  0  0
   -4.7813   -4.4471   15.4649 C   0  0  0  0  0  0
   -7.5583   -4.3668   15.6075 C   0  0  0  0  0  0
   -6.9547   -4.6548   14.3689 C   0  0  0  0  0  0
   -5.5423   -4.7161   14.3085 C   0  0  0  0  0  0
   -4.7995   -5.0403   13.0297 C   0  0  0  0  0  0
   -5.6886   -5.5995   11.9177 C   0  0  0  0  0  0
   -7.8010   -4.9898   13.1403 C   0  0  0  0  0  0
   -6.9905   -4.7950   11.8232 C   0  0  0  0  0  0
   -9.9768   -4.5926   11.7942 C   0  0  0  0  0  0
   -9.1728   -4.2659   13.0677 C   0  0  0  0  0  0
   -9.1453   -4.3793   10.5228 C   0  0  0  0  0  0
   -7.8626   -5.2278   10.6434 C   0  0  0  0  0  0
   -7.2811   -5.1955    9.2324 C   0  0  0  0  0  0
   -8.5201   -5.1833    8.3180 C   0  0  0  0  0  0
   -9.7391   -5.0056    9.2446 C   0  0  0  0  0  0
   -8.9027   -2.8620   10.3184 C   0  0  0  0  0  0
  -10.7448   -4.2058    8.6424 O   0  0  0  0  0  0
   -4.6925   -3.8826   17.7956 O   0  0  0  0  0  0
   -4.1796   -3.8292   12.5811 O   0  0  0  0  0  0
   -7.2832   -3.8801   17.6894 H   0  0  0  0  0  0
   -3.6943   -4.4776   15.4064 H   0  0  0  0  0  0
   -8.6405   -4.3474   15.7168 H   0  0  0  0  0  0
   -4.0024   -5.7627   13.2441 H   0  0  0  0  0  0
   -5.9212   -6.6523   12.1230 H   0  0  0  0  0  0
   -5.1489   -5.5622   10.9646 H   0  0  0  0  0  0
   -8.0249   -6.0636   13.2365 H   0  0  0  0  0  0
   -6.7221   -3.7372   11.7094 H   0  0  0  0  0  0
  -10.8884   -3.9835   11.7677 H   0  0  0  0  0  0
  -10.3072   -5.6378   11.8535 H   0  0  0  0  0  0
   -9.0247   -3.1824   13.1494 H   0  0  0  0  0  0
   -9.7978   -4.5527   13.9213 H   0  0  0  0  0  0
   -8.1518   -6.2761   10.8282 H   0  0  0  0  0  0
   -6.6473   -6.0648    9.0300 H   0  0  0  0  0  0
   -6.6753   -4.2976    9.0677 H   0  0  0  0  0  0
   -8.6047   -6.1243    7.7631 H   0  0  0  0  0  0
   -8.4472   -4.3813    7.5747 H   0  0  0  0  0  0
  -10.1782   -5.9868    9.4655 H   0  0  0  0  0  0
   -8.3353   -2.6481    9.4073 H   0  0  0  0  0  0
   -8.3566   -2.4049   11.1478 H   0  0  0  0  0  0
   -9.8564   -2.3276   10.2357 H   0  0  0  0  0  0
  -10.9936   -4.6595    7.8096 H   0  0  0  0  0  0
   -3.7378   -3.9463   17.5786 H   0  0  0  0  0  0
   -3.6248   -4.0834   11.8151 H   0  0  0  0  0  0
  1  2  2  0  0  0
  1  4  1  0  0  0
  1 22  1  0  0  0
  2  3  1  0  0  0
  2 20  1  0  0  0
  3  6  2  0  0  0
  3 23  1  0  0  0
  4  5  2  0  0  0
  4 24  1  0  0  0
  5  6  1  0  0  0
  5  9  1  0  0  0
  6  7  1  0  0  0
  7  8  1  0  0  0
  7 21  1  0  0  0
  7 25  1  0  0  0
  8 10  1  0  0  0
  8 26  1  0  0  0
  8 27  1  0  0  0
  9 10  1  0  0  0
  9 12  1  0  0  0
  9 28  1  0  0  0
 10 14  1  0  0  0
 10 29  1  0  0  0
 11 12  1  0  0  0
 11 13  1  0  0  0
 11 30  1  0  0  0
 11 31  1  0  0  0
 12 32  1  0  0  0
 12 33  1  0  0  0
 13 14  1  0  0  0
 13 17  1  0  0  0
 13 18  1  0  0  0
 14 15  1  0  0  0
 14 34  1  0  0  0
 15 16  1  0  0  0
 15 35  1  0  0  0
 15 36  1  0  0  0
 16 17  1  0  0  0
 16 37  1  0  0  0
 16 38  1  0  0  0
 17 19  1  0  0  0
 17 39  1  0  0  0
 18 40  1  0  0  0
 18 41  1  0  0  0
 18 42  1  0  0  0
 19 43  1  0  0  0
 20 44  1  0  0  0
 21 45  1  0  0  0
M  END
>  <Name>
lit-252

>  <Family>
A.1

>  <RBA>
0.780000

>  <RBA_avg>
0.780000

>  <Method>
RUC

>  <set>
0

$$$$
lit-253
  Cerius2 12180216413D 1   1.00000                          
 Structure written by MMmdl.
 46 49  0  0  0  0  0  0  0  0999 V2000
   -6.7923   -4.1366   16.7566 C   0  0  0  0  0  0
   -5.4104   -4.1820   16.6822 C   0  0  0  0  0  0
   -4.7782   -4.4569   15.4762 C   0  0  0  0  0  0
   -7.5549   -4.3664   15.6092 C   0  0  0  0  0  0
   -6.9479   -4.6267   14.3655 C   0  0  0  0  0  0
   -5.5337   -4.6863   14.3061 C   0  0  0  0  0  0
   -4.7824   -4.9754   13.0154 C   0  0  0  0  0  0
   -5.6868   -5.5697   11.9257 C   0  0  0  0  0  0
   -7.7980   -4.9512   13.1364 C   0  0  0  0  0  0
   -6.9919   -4.7744   11.8157 C   0  0  0  0  0  0
   -9.9750   -4.5601   11.7941 C   0  0  0  0  0  0
   -9.1631   -4.2155   13.0588 C   0  0  0  0  0  0
   -9.1477   -4.3787   10.5147 C   0  0  0  0  0  0
   -7.8673   -5.2299   10.6473 C   0  0  0  0  0  0
   -7.2906   -5.2272    9.2343 C   0  0  0  0  0  0
   -8.5332   -5.2293    8.3246 C   0  0  0  0  0  0
   -9.7483   -5.0295    9.2522 C   0  0  0  0  0  0
   -8.9011   -2.8667   10.2771 C   0  0  0  0  0  0
  -10.7546   -4.2400    8.6375 O   0  0  0  0  0  0
   -4.6975   -3.9576   17.8224 O   0  0  0  0  0  0
   -4.1515   -3.7450   12.5125 N   0  0  0  0  0  0
   -7.2871   -3.9331   17.7037 H   0  0  0  0  0  0
   -3.6914   -4.4983   15.4270 H   0  0  0  0  0  0
   -8.6375   -4.3497   15.7158 H   0  0  0  0  0  0
   -3.9917   -5.7075   13.2249 H   0  0  0  0  0  0
   -5.9123   -6.6169   12.1698 H   0  0  0  0  0  0
   -5.1537   -5.5885   10.9673 H   0  0  0  0  0  0
   -8.0336   -6.0224   13.2379 H   0  0  0  0  0  0
   -6.7341   -3.7169   11.6820 H   0  0  0  0  0  0
  -10.8820   -3.9447   11.7596 H   0  0  0  0  0  0
  -10.3131   -5.6015   11.8749 H   0  0  0  0  0  0
   -9.0038   -3.1323   13.1200 H   0  0  0  0  0  0
   -9.7878   -4.4802   13.9193 H   0  0  0  0  0  0
   -8.1590   -6.2734   10.8538 H   0  0  0  0  0  0
   -6.6603   -6.1023    9.0469 H   0  0  0  0  0  0
   -6.6826   -4.3347    9.0495 H   0  0  0  0  0  0
   -8.6230   -6.1808    7.7887 H   0  0  0  0  0  0
   -8.4609   -4.4425    7.5653 H   0  0  0  0  0  0
  -10.1888   -6.0049    9.4951 H   0  0  0  0  0  0
   -8.3323   -2.6741    9.3620 H   0  0  0  0  0  0
   -8.3552   -2.3922   11.0967 H   0  0  0  0  0  0
   -9.8534   -2.3320   10.1818 H   0  0  0  0  0  0
  -11.0074   -4.7102    7.8150 H   0  0  0  0  0  0
   -3.7423   -4.0210   17.6079 H   0  0  0  0  0  0
   -3.5969   -3.9898   11.6866 H   0  0  0  0  0  0
   -3.4466   -3.4481   13.1933 H   0  0  0  0  0  0
  1  2  2  0  0  0
  1  4  1  0  0  0
  1 22  1  0  0  0
  2  3  1  0  0  0
  2 20  1  0  0  0
  3  6  2  0  0  0
  3 23  1  0  0  0
  4  5  2  0  0  0
  4 24  1  0  0  0
  5  6  1  0  0  0
  5  9  1  0  0  0
  6  7  1  0  0  0
  7  8  1  0  0  0
  7 21  1  0  0  0
  7 25  1  0  0  0
  8 10  1  0  0  0
  8 26  1  0  0  0
  8 27  1  0  0  0
  9 10  1  0  0  0
  9 12  1  0  0  0
  9 28  1  0  0  0
 10 14  1  0  0  0
 10 29  1  0  0  0
 11 12  1  0  0  0
 11 13  1  0  0  0
 11 30  1  0  0  0
 11 31  1  0  0  0
 12 32  1  0  0  0
 12 33  1  0  0  0
 13 14  1  0  0  0
 13 17  1  0  0  0
 13 18  1  0  0  0
 14 15  1  0  0  0
 14 34  1  0  0  0
 15 16  1  0  0  0
 15 35  1  0  0  0
 15 36  1  0  0  0
 16 17  1  0  0  0
 16 37  1  0  0  0
 16 38  1  0  0  0
 17 19  1  0  0  0
 17 39  1  0  0  0
 18 40  1  0  0  0
 18 41  1  0  0  0
 18 42  1  0  0  0
 19 43  1  0  0  0
 20 44  1  0  0  0
 21 45  1  0  0  0
 21 46  1  0  0  0
M  END
>  <Name>
lit-253

>  <Family>
A.1

>  <RBA>
0.020000

>  <RBA_avg>
0.020000

>  <Method>
RBC

>  <set>
2

$$$$
lit-254
  Cerius2 12180216413D 1   1.00000                          
 Structure written by MMmdl.
 47 50  0  0  0  0  0  0  0  0999 V2000
   -6.7925   -4.1168   16.7506 C   0  0  0  0  0  0
   -5.4113   -4.1735   16.6792 C   0  0  0  0  0  0
   -4.7795   -4.4639   15.4766 C   0  0  0  0  0  0
   -7.5540   -4.3534   15.6039 C   0  0  0  0  0  0
   -6.9470   -4.6301   14.3638 C   0  0  0  0  0  0
   -5.5345   -4.6954   14.3079 C   0  0  0  0  0  0
   -4.7818   -4.9991   13.0202 C   0  0  0  0  0  0
   -5.6876   -5.5726   11.9195 C   0  0  0  0  0  0
   -7.7973   -4.9620   13.1374 C   0  0  0  0  0  0
   -6.9922   -4.7785   11.8181 C   0  0  0  0  0  0
   -9.9761   -4.5742   11.7946 C   0  0  0  0  0  0
   -9.1668   -4.2340   13.0618 C   0  0  0  0  0  0
   -9.1485   -4.3805   10.5176 C   0  0  0  0  0  0
   -7.8659   -5.2286   10.6461 C   0  0  0  0  0  0
   -7.2875   -5.2144    9.2337 C   0  0  0  0  0  0
   -8.5291   -5.2147    8.3225 C   0  0  0  0  0  0
   -9.7457   -5.0244    9.2498 C   0  0  0  0  0  0
   -8.9058   -2.8662   10.2909 C   0  0  0  0  0  0
  -10.7532   -4.2330    8.6393 O   0  0  0  0  0  0
   -4.6986   -3.9445   17.8184 O   0  0  0  0  0  0
   -4.0378   -3.7514   12.5207 C   0  0  0  0  0  0
   -7.2878   -3.9008   17.6946 H   0  0  0  0  0  0
   -3.6928   -4.5170   15.4330 H   0  0  0  0  0  0
   -8.6365   -4.3288   15.7090 H   0  0  0  0  0  0
   -4.0288   -5.7679   13.2418 H   0  0  0  0  0  0
   -5.9167   -6.6223   12.1485 H   0  0  0  0  0  0
   -5.1511   -5.5760   10.9638 H   0  0  0  0  0  0
   -8.0264   -6.0346   13.2389 H   0  0  0  0  0  0
   -6.7367   -3.7209   11.6888 H   0  0  0  0  0  0
  -10.8859   -3.9627   11.7634 H   0  0  0  0  0  0
  -10.3096   -5.6176   11.8684 H   0  0  0  0  0  0
   -9.0143   -3.1502   13.1302 H   0  0  0  0  0  0
   -9.7907   -4.5083   13.9202 H   0  0  0  0  0  0
   -8.1547   -6.2743   10.8454 H   0  0  0  0  0  0
   -6.6540   -6.0862    9.0411 H   0  0  0  0  0  0
   -6.6825   -4.3185    9.0557 H   0  0  0  0  0  0
   -8.6152   -6.1633    7.7808 H   0  0  0  0  0  0
   -8.4582   -4.4231    7.5681 H   0  0  0  0  0  0
  -10.1841   -6.0025    9.4856 H   0  0  0  0  0  0
   -8.3375   -2.6655    9.3773 H   0  0  0  0  0  0
   -8.3614   -2.3961   11.1139 H   0  0  0  0  0  0
   -9.8596   -2.3335   10.1992 H   0  0  0  0  0  0
  -11.0042   -4.6984    7.8135 H   0  0  0  0  0  0
   -3.7437   -4.0204   17.6070 H   0  0  0  0  0  0
   -3.5164   -3.9591   11.5802 H   0  0  0  0  0  0
   -3.2835   -3.4229   13.2441 H   0  0  0  0  0  0
   -4.7163   -2.9078   12.3552 H   0  0  0  0  0  0
  1  2  2  0  0  0
  1  4  1  0  0  0
  1 22  1  0  0  0
  2  3  1  0  0  0
  2 20  1  0  0  0
  3  6  2  0  0  0
  3 23  1  0  0  0
  4  5  2  0  0  0
  4 24  1  0  0  0
  5  6  1  0  0  0
  5  9  1  0  0  0
  6  7  1  0  0  0
  7  8  1  0  0  0
  7 21  1  0  0  0
  7 25  1  0  0  0
  8 10  1  0  0  0
  8 26  1  0  0  0
  8 27  1  0  0  0
  9 10  1  0  0  0
  9 12  1  0  0  0
  9 28  1  0  0  0
 10 14  1  0  0  0
 10 29  1  0  0  0
 11 12  1  0  0  0
 11 13  1  0  0  0
 11 30  1  0  0  0
 11 31  1  0  0  0
 12 32  1  0  0  0
 12 33  1  0  0  0
 13 14  1  0  0  0
 13 17  1  0  0  0
 13 18  1  0  0  0
 14 15  1  0  0  0
 14 34  1  0  0  0
 15 16  1  0  0  0
 15 35  1  0  0  0
 15 36  1  0  0  0
 16 17  1  0  0  0
 16 37  1  0  0  0
 16 38  1  0  0  0
 17 19  1  0  0  0
 17 39  1  0  0  0
 18 40  1  0  0  0
 18 41  1  0  0  0
 18 42  1  0  0  0
 19 43  1  0  0  0
 20 44  1  0  0  0
 21 45  1  0  0  0
 21 46  1  0  0  0
 21 47  1  0  0  0
M  END
>  <Name>
lit-254

>  <Family>
A.1

>  <RBA>
3.600000

>  <RBA_avg>
3.600000

>  <Method>
RUC

>  <set>
0

$$$$
lit-255
  Cerius2 12180216413D 1   1.00000                          
 Structure written by MMmdl.
 47 50  0  0  0  0  0  0  0  0999 V2000
   -6.8039   -4.0750   16.7258 C   0  0  0  0  0  0
   -5.4233   -4.0799   16.6445 C   0  0  0  0  0  0
   -4.7873   -4.4171   15.4551 C   0  0  0  0  0  0
   -7.5598   -4.3900   15.5961 C   0  0  0  0  0  0
   -6.9480   -4.7094   14.3675 C   0  0  0  0  0  0
   -5.5337   -4.7692   14.3104 C   0  0  0  0  0  0
   -4.7892   -5.1286   13.0274 C   0  0  0  0  0  0
   -5.7072   -5.6555   11.9123 C   0  0  0  0  0  0
   -7.7988   -5.0497   13.1429 C   0  0  0  0  0  0
   -6.9905   -4.8304   11.8320 C   0  0  0  0  0  0
   -9.9765   -4.6297   11.7983 C   0  0  0  0  0  0
   -9.1777   -4.3358   13.0821 C   0  0  0  0  0  0
   -9.1415   -4.3764   10.5375 C   0  0  0  0  0  0
   -7.8611   -5.2290   10.6389 C   0  0  0  0  0  0
   -7.2742   -5.1582    9.2313 C   0  0  0  0  0  0
   -8.5091   -5.1162    8.3127 C   0  0  0  0  0  0
   -9.7313   -4.9635    9.2392 C   0  0  0  0  0  0
   -8.8957   -2.8542   10.3806 C   0  0  0  0  0  0
  -10.7327   -4.1437    8.6569 O   0  0  0  0  0  0
   -4.7133   -3.7484   17.7604 O   0  0  0  0  0  0
   -3.6628   -6.1504   13.2424 C   0  0  0  0  0  0
   -7.3019   -3.8227   17.6591 H   0  0  0  0  0  0
   -3.7005   -4.4010   15.4121 H   0  0  0  0  0  0
   -8.6426   -4.3788   15.7015 H   0  0  0  0  0  0
   -4.3364   -4.1952   12.6644 H   0  0  0  0  0  0
   -5.9575   -6.7107   12.0885 H   0  0  0  0  0  0
   -5.1625   -5.6180   10.9611 H   0  0  0  0  0  0
   -8.0131   -6.1260   13.2314 H   0  0  0  0  0  0
   -6.7042   -3.7747   11.7420 H   0  0  0  0  0  0
  -10.8905   -4.0237   11.7860 H   0  0  0  0  0  0
  -10.3029   -5.6775   11.8268 H   0  0  0  0  0  0
   -9.0402   -3.2536   13.1949 H   0  0  0  0  0  0
   -9.8031   -4.6527   13.9250 H   0  0  0  0  0  0
   -8.1525   -6.2815   10.7939 H   0  0  0  0  0  0
   -6.6421   -6.0233    9.0065 H   0  0  0  0  0  0
   -6.6652   -4.2577    9.0945 H   0  0  0  0  0  0
   -8.5933   -6.0403    7.7296 H   0  0  0  0  0  0
   -8.4316   -4.2928    7.5938 H   0  0  0  0  0  0
  -10.1734   -5.9498    9.4292 H   0  0  0  0  0  0
   -8.3276   -2.6134    9.4766 H   0  0  0  0  0  0
   -8.3485   -2.4244   11.2236 H   0  0  0  0  0  0
   -9.8483   -2.3156   10.3144 H   0  0  0  0  0  0
  -10.9793   -4.5721    7.8099 H   0  0  0  0  0  0
   -3.7572   -3.7987   17.5465 H   0  0  0  0  0  0
   -3.1982   -6.4230   12.2883 H   0  0  0  0  0  0
   -4.0423   -7.0663   13.7094 H   0  0  0  0  0  0
   -2.8668   -5.7551   13.8807 H   0  0  0  0  0  0
  1  2  2  0  0  0
  1  4  1  0  0  0
  1 22  1  0  0  0
  2  3  1  0  0  0
  2 20  1  0  0  0
  3  6  2  0  0  0
  3 23  1  0  0  0
  4  5  2  0  0  0
  4 24  1  0  0  0
  5  6  1  0  0  0
  5  9  1  0  0  0
  6  7  1  0  0  0
  7  8  1  0  0  0
  7 21  1  0  0  0
  7 25  1  0  0  0
  8 10  1  0  0  0
  8 26  1  0  0  0
  8 27  1  0  0  0
  9 10  1  0  0  0
  9 12  1  0  0  0
  9 28  1  0  0  0
 10 14  1  0  0  0
 10 29  1  0  0  0
 11 12  1  0  0  0
 11 13  1  0  0  0
 11 30  1  0  0  0
 11 31  1  0  0  0
 12 32  1  0  0  0
 12 33  1  0  0  0
 13 14  1  0  0  0
 13 17  1  0  0  0
 13 18  1  0  0  0
 14 15  1  0  0  0
 14 34  1  0  0  0
 15 16  1  0  0  0
 15 35  1  0  0  0
 15 36  1  0  0  0
 16 17  1  0  0  0
 16 37  1  0  0  0
 16 38  1  0  0  0
 17 19  1  0  0  0
 17 39  1  0  0  0
 18 40  1  0  0  0
 18 41  1  0  0  0
 18 42  1  0  0  0
 19 43  1  0  0  0
 20 44  1  0  0  0
 21 45  1  0  0  0
 21 46  1  0  0  0
 21 47  1  0  0  0
M  END
>  <Name>
lit-255

>  <Family>
A.1

>  <RBA>
31.000000

>  <RBA_avg>
31.000000

>  <Method>
RBC

>  <set>
0

$$$$
lit-256
  Cerius2 12180216413D 1   1.00000                          
 Structure written by MMmdl.
 47 50  0  0  0  0  0  0  0  0999 V2000
   -6.7834   -4.0797   16.7412 C   0  0  0  0  0  0
   -5.4017   -4.1417   16.6599 C   0  0  0  0  0  0
   -4.7800   -4.4705   15.4622 C   0  0  0  0  0  0
   -7.5565   -4.3422   15.6074 C   0  0  0  0  0  0
   -6.9587   -4.6569   14.3736 C   0  0  0  0  0  0
   -5.5492   -4.7445   14.3159 C   0  0  0  0  0  0
   -4.8123   -5.0729   13.0374 C   0  0  0  0  0  0
   -5.7023   -5.6210   11.9251 C   0  0  0  0  0  0
   -7.8045   -4.9918   13.1455 C   0  0  0  0  0  0
   -6.9885   -4.7960   11.8325 C   0  0  0  0  0  0
   -9.9754   -4.6270   11.7994 C   0  0  0  0  0  0
   -9.1763   -4.2707   13.0673 C   0  0  0  0  0  0
   -9.1612   -4.3548   10.5252 C   0  0  0  0  0  0
   -7.8605   -5.1982   10.6408 C   0  0  0  0  0  0
   -7.2697   -5.1450    9.2355 C   0  0  0  0  0  0
   -8.5042   -5.1598    8.3183 C   0  0  0  0  0  0
   -9.7300   -5.0118    9.2426 C   0  0  0  0  0  0
   -8.8967   -2.8206   10.3241 C   0  0  0  0  0  0
  -10.7647   -4.2787    8.6130 O   0  0  0  0  0  0
   -4.6792   -3.8762   17.7850 O   0  0  0  0  0  0
  -10.1035   -1.8966   10.4769 C   0  0  0  0  0  0
   -7.2695   -3.8323   17.6822 H   0  0  0  0  0  0
   -3.6938   -4.5190   15.4034 H   0  0  0  0  0  0
   -8.6380   -4.3010   15.7165 H   0  0  0  0  0  0
   -4.0198   -5.8025   13.2436 H   0  0  0  0  0  0
   -4.3287   -4.1528   12.6849 H   0  0  0  0  0  0
   -5.9438   -6.6730   12.1248 H   0  0  0  0  0  0
   -5.1445   -5.5959   10.9825 H   0  0  0  0  0  0
   -8.0279   -6.0659   13.2411 H   0  0  0  0  0  0
   -6.6915   -3.7449   11.7358 H   0  0  0  0  0  0
  -10.9283   -4.0877   11.7894 H   0  0  0  0  0  0
  -10.2422   -5.6912   11.8511 H   0  0  0  0  0  0
   -9.0296   -3.1859   13.1302 H   0  0  0  0  0  0
   -9.7986   -4.5484   13.9256 H   0  0  0  0  0  0
   -8.1435   -6.2519   10.8072 H   0  0  0  0  0  0
   -6.6140   -5.9975    9.0318 H   0  0  0  0  0  0
   -6.6864   -4.2309    9.0793 H   0  0  0  0  0  0
   -8.5665   -6.1013    7.7609 H   0  0  0  0  0  0
   -8.4482   -4.3559    7.5758 H   0  0  0  0  0  0
  -10.1290   -6.0080    9.4745 H   0  0  0  0  0  0
   -8.4652   -2.6382    9.3331 H   0  0  0  0  0  0
   -8.1474   -2.4625   11.0360 H   0  0  0  0  0  0
  -10.9854   -4.7632    7.7898 H   0  0  0  0  0  0
   -3.7261   -3.9605   17.5682 H   0  0  0  0  0  0
   -9.8151   -0.8715   10.2199 H   0  0  0  0  0  0
  -10.4663   -1.8768   11.5086 H   0  0  0  0  0  0
  -10.9320   -2.1774    9.8243 H   0  0  0  0  0  0
  1  2  2  0  0  0
  1  4  1  0  0  0
  1 22  1  0  0  0
  2  3  1  0  0  0
  2 20  1  0  0  0
  3  6  2  0  0  0
  3 23  1  0  0  0
  4  5  2  0  0  0
  4 24  1  0  0  0
  5  6  1  0  0  0
  5  9  1  0  0  0
  6  7  1  0  0  0
  7  8  1  0  0  0
  7 25  1  0  0  0
  7 26  1  0  0  0
  8 10  1  0  0  0
  8 27  1  0  0  0
  8 28  1  0  0  0
  9 10  1  0  0  0
  9 12  1  0  0  0
  9 29  1  0  0  0
 10 14  1  0  0  0
 10 30  1  0  0  0
 11 12  1  0  0  0
 11 13  1  0  0  0
 11 31  1  0  0  0
 11 32  1  0  0  0
 12 33  1  0  0  0
 12 34  1  0  0  0
 13 14  1  0  0  0
 13 17  1  0  0  0
 13 18  1  0  0  0
 14 15  1  0  0  0
 14 35  1  0  0  0
 15 16  1  0  0  0
 15 36  1  0  0  0
 15 37  1  0  0  0
 16 17  1  0  0  0
 16 38  1  0  0  0
 16 39  1  0  0  0
 17 19  1  0  0  0
 17 40  1  0  0  0
 18 21  1  0  0  0
 18 41  1  0  0  0
 18 42  1  0  0  0
 19 43  1  0  0  0
 20 44  1  0  0  0
 21 45  1  0  0  0
 21 46  1  0  0  0
 21 47  1  0  0  0
M  END
>  <Name>
lit-256

>  <Family>
A.1

>  <RBA>
59.000000

>  <RBA_avg>
59.000000

>  <Method>
MUC

>  <set>
1

$$$$
lit-257
  Cerius2 12180216413D 1   1.00000                          
 Structure written by MMmdl.
 50 53  0  0  0  0  0  0  0  0999 V2000
   -6.7831   -4.0797   16.7413 C   0  0  0  0  0  0
   -5.4014   -4.1424   16.6601 C   0  0  0  0  0  0
   -4.7798   -4.4710   15.4623 C   0  0  0  0  0  0
   -7.5564   -4.3416   15.6075 C   0  0  0  0  0  0
   -6.9586   -4.6565   14.3738 C   0  0  0  0  0  0
   -5.5492   -4.7444   14.3160 C   0  0  0  0  0  0
   -4.8123   -5.0723   13.0373 C   0  0  0  0  0  0
   -5.7024   -5.6206   11.9252 C   0  0  0  0  0  0
   -7.8045   -4.9913   13.1458 C   0  0  0  0  0  0
   -6.9887   -4.7956   11.8326 C   0  0  0  0  0  0
   -9.9752   -4.6284   11.7998 C   0  0  0  0  0  0
   -9.1764   -4.2704   13.0672 C   0  0  0  0  0  0
   -9.1620   -4.3544   10.5254 C   0  0  0  0  0  0
   -7.8608   -5.1978   10.6410 C   0  0  0  0  0  0
   -7.2698   -5.1452    9.2359 C   0  0  0  0  0  0
   -8.5040   -5.1610    8.3187 C   0  0  0  0  0  0
   -9.7301   -5.0121    9.2425 C   0  0  0  0  0  0
   -8.8971   -2.8186   10.3228 C   0  0  0  0  0  0
  -10.7642   -4.2794    8.6116 O   0  0  0  0  0  0
   -4.6787   -3.8774   17.7852 O   0  0  0  0  0  0
  -10.1113   -1.8897   10.4802 C   0  0  0  0  0  0
   -9.7513   -0.4513   10.1317 C   0  0  0  0  0  0
   -7.2692   -3.8325   17.6825 H   0  0  0  0  0  0
   -3.6936   -4.5199   15.4035 H   0  0  0  0  0  0
   -8.6378   -4.3000   15.7167 H   0  0  0  0  0  0
   -4.0194   -5.8015   13.2432 H   0  0  0  0  0  0
   -4.3292   -4.1518   12.6847 H   0  0  0  0  0  0
   -5.9436   -6.6726   12.1249 H   0  0  0  0  0  0
   -5.1446   -5.5953   10.9826 H   0  0  0  0  0  0
   -8.0279   -6.0654   13.2415 H   0  0  0  0  0  0
   -6.6913   -3.7447   11.7361 H   0  0  0  0  0  0
  -10.9301   -4.0925   11.7900 H   0  0  0  0  0  0
  -10.2394   -5.6934   11.8517 H   0  0  0  0  0  0
   -9.0299   -3.1855   13.1293 H   0  0  0  0  0  0
   -9.7986   -4.5475   13.9259 H   0  0  0  0  0  0
   -8.1435   -6.2514   10.8075 H   0  0  0  0  0  0
   -6.6139   -5.9977    9.0326 H   0  0  0  0  0  0
   -6.6865   -4.2312    9.0791 H   0  0  0  0  0  0
   -8.5665   -6.1029    7.7623 H   0  0  0  0  0  0
   -8.4481   -4.3578    7.5752 H   0  0  0  0  0  0
  -10.1295   -6.0080    9.4748 H   0  0  0  0  0  0
   -8.4598   -2.6446    9.3324 H   0  0  0  0  0  0
   -8.1443   -2.4676   11.0353 H   0  0  0  0  0  0
  -10.9845   -4.7646    7.7888 H   0  0  0  0  0  0
   -3.7257   -3.9622   17.5682 H   0  0  0  0  0  0
  -10.4718   -1.9078   11.5139 H   0  0  0  0  0  0
  -10.9396   -2.2061    9.8418 H   0  0  0  0  0  0
  -10.6217    0.1991   10.2632 H   0  0  0  0  0  0
   -9.4217   -0.3706    9.0910 H   0  0  0  0  0  0
   -8.9492   -0.0799   10.7775 H   0  0  0  0  0  0
  1  2  2  0  0  0
  1  4  1  0  0  0
  1 23  1  0  0  0
  2  3  1  0  0  0
  2 20  1  0  0  0
  3  6  2  0  0  0
  3 24  1  0  0  0
  4  5  2  0  0  0
  4 25  1  0  0  0
  5  6  1  0  0  0
  5  9  1  0  0  0
  6  7  1  0  0  0
  7  8  1  0  0  0
  7 26  1  0  0  0
  7 27  1  0  0  0
  8 10  1  0  0  0
  8 28  1  0  0  0
  8 29  1  0  0  0
  9 10  1  0  0  0
  9 12  1  0  0  0
  9 30  1  0  0  0
 10 14  1  0  0  0
 10 31  1  0  0  0
 11 12  1  0  0  0
 11 13  1  0  0  0
 11 32  1  0  0  0
 11 33  1  0  0  0
 12 34  1  0  0  0
 12 35  1  0  0  0
 13 14  1  0  0  0
 13 17  1  0  0  0
 13 18  1  0  0  0
 14 15  1  0  0  0
 14 36  1  0  0  0
 15 16  1  0  0  0
 15 37  1  0  0  0
 15 38  1  0  0  0
 16 17  1  0  0  0
 16 39  1  0  0  0
 16 40  1  0  0  0
 17 19  1  0  0  0
 17 41  1  0  0  0
 18 21  1  0  0  0
 18 42  1  0  0  0
 18 43  1  0  0  0
 19 44  1  0  0  0
 20 45  1  0  0  0
 21 22  1  0  0  0
 21 46  1  0  0  0
 21 47  1  0  0  0
 22 48  1  0  0  0
 22 49  1  0  0  0
 22 50  1  0  0  0
M  END
>  <Name>
lit-257

>  <Family>
A.1

>  <RBA>
40.000000

>  <RBA_avg>
40.000000

>  <Method>
MUC

>  <set>
0

$$$$
lit-258
  Cerius2 12180216413D 1   1.00000                          
 Structure written by MMmdl.
 53 56  0  0  0  0  0  0  0  0999 V2000
   -6.7831   -4.0798   16.7415 C   0  0  0  0  0  0
   -5.4015   -4.1426   16.6604 C   0  0  0  0  0  0
   -4.7798   -4.4710   15.4625 C   0  0  0  0  0  0
   -7.5562   -4.3414   15.6075 C   0  0  0  0  0  0
   -6.9586   -4.6561   14.3737 C   0  0  0  0  0  0
   -5.5491   -4.7442   14.3161 C   0  0  0  0  0  0
   -4.8122   -5.0722   13.0373 C   0  0  0  0  0  0
   -5.7022   -5.6201   11.9251 C   0  0  0  0  0  0
   -7.8043   -4.9910   13.1457 C   0  0  0  0  0  0
   -6.9885   -4.7952   11.8326 C   0  0  0  0  0  0
   -9.9751   -4.6287   11.7999 C   0  0  0  0  0  0
   -9.1761   -4.2702   13.0672 C   0  0  0  0  0  0
   -9.1623   -4.3545   10.5253 C   0  0  0  0  0  0
   -7.8608   -5.1975   10.6410 C   0  0  0  0  0  0
   -7.2700   -5.1449    9.2358 C   0  0  0  0  0  0
   -8.5044   -5.1626    8.3189 C   0  0  0  0  0  0
   -9.7305   -5.0125    9.2426 C   0  0  0  0  0  0
   -8.8979   -2.8187   10.3219 C   0  0  0  0  0  0
  -10.7636   -4.2787    8.6112 O   0  0  0  0  0  0
   -4.6788   -3.8783   17.7857 O   0  0  0  0  0  0
  -10.1119   -1.8887   10.4859 C   0  0  0  0  0  0
   -9.7491   -0.4448   10.1262 C   0  0  0  0  0  0
  -10.9353    0.4892   10.3060 C   0  0  0  0  0  0
   -7.2693   -3.8326   17.6827 H   0  0  0  0  0  0
   -3.6937   -4.5202   15.4038 H   0  0  0  0  0  0
   -8.6378   -4.2997   15.7167 H   0  0  0  0  0  0
   -4.0195   -5.8017   13.2434 H   0  0  0  0  0  0
   -4.3288   -4.1518   12.6851 H   0  0  0  0  0  0
   -5.9435   -6.6722   12.1244 H   0  0  0  0  0  0
   -5.1444   -5.5946   10.9824 H   0  0  0  0  0  0
   -8.0275   -6.0651   13.2414 H   0  0  0  0  0  0
   -6.6912   -3.7443   11.7361 H   0  0  0  0  0  0
  -10.9302   -4.0933   11.7901 H   0  0  0  0  0  0
  -10.2388   -5.6937   11.8519 H   0  0  0  0  0  0
   -9.0296   -3.1853   13.1289 H   0  0  0  0  0  0
   -9.7982   -4.5471   13.9260 H   0  0  0  0  0  0
   -8.1432   -6.2512   10.8075 H   0  0  0  0  0  0
   -6.6129   -5.9966    9.0328 H   0  0  0  0  0  0
   -6.6880   -4.2300    9.0786 H   0  0  0  0  0  0
   -8.5667   -6.1058    7.7646 H   0  0  0  0  0  0
   -8.4486   -4.3610    7.5739 H   0  0  0  0  0  0
  -10.1308   -6.0078    9.4752 H   0  0  0  0  0  0
   -8.4658   -2.6451    9.3289 H   0  0  0  0  0  0
   -8.1413   -2.4679   11.0304 H   0  0  0  0  0  0
  -10.9838   -4.7635    7.7881 H   0  0  0  0  0  0
   -3.7258   -3.9643   17.5691 H   0  0  0  0  0  0
  -10.4622   -1.9103   11.5236 H   0  0  0  0  0  0
  -10.9443   -2.2149    9.8568 H   0  0  0  0  0  0
   -9.4077   -0.3949    9.0857 H   0  0  0  0  0  0
   -8.9216   -0.1002   10.7573 H   0  0  0  0  0  0
  -10.6541    1.5137   10.0429 H   0  0  0  0  0  0
  -11.2816    0.4881   11.3444 H   0  0  0  0  0  0
  -11.7705    0.1905    9.6645 H   0  0  0  0  0  0
  1  2  2  0  0  0
  1  4  1  0  0  0
  1 24  1  0  0  0
  2  3  1  0  0  0
  2 20  1  0  0  0
  3  6  2  0  0  0
  3 25  1  0  0  0
  4  5  2  0  0  0
  4 26  1  0  0  0
  5  6  1  0  0  0
  5  9  1  0  0  0
  6  7  1  0  0  0
  7  8  1  0  0  0
  7 27  1  0  0  0
  7 28  1  0  0  0
  8 10  1  0  0  0
  8 29  1  0  0  0
  8 30  1  0  0  0
  9 10  1  0  0  0
  9 12  1  0  0  0
  9 31  1  0  0  0
 10 14  1  0  0  0
 10 32  1  0  0  0
 11 12  1  0  0  0
 11 13  1  0  0  0
 11 33  1  0  0  0
 11 34  1  0  0  0
 12 35  1  0  0  0
 12 36  1  0  0  0
 13 14  1  0  0  0
 13 17  1  0  0  0
 13 18  1  0  0  0
 14 15  1  0  0  0
 14 37  1  0  0  0
 15 16  1  0  0  0
 15 38  1  0  0  0
 15 39  1  0  0  0
 16 17  1  0  0  0
 16 40  1  0  0  0
 16 41  1  0  0  0
 17 19  1  0  0  0
 17 42  1  0  0  0
 18 21  1  0  0  0
 18 43  1  0  0  0
 18 44  1  0  0  0
 19 45  1  0  0  0
 20 46  1  0  0  0
 21 22  1  0  0  0
 21 47  1  0  0  0
 21 48  1  0  0  0
 22 23  1  0  0  0
 22 49  1  0  0  0
 22 50  1  0  0  0
 23 51  1  0  0  0
 23 52  1  0  0  0
 23 53  1  0  0  0
M  END
>  <Name>
lit-258

>  <Family>
A.1

>  <RBA>
13.000000

>  <RBA_avg>
13.000000

>  <Method>
MUC

>  <set>
2

$$$$
lit-259
  Cerius2 12180216413D 1   1.00000                          
 Structure written by MMmdl.
 47 50  0  0  0  0  0  0  0  0999 V2000
   -6.8059   -4.1528   16.7569 C   0  0  0  0  0  0
   -5.4233   -4.1475   16.6755 C   0  0  0  0  0  0
   -4.7883   -4.4120   15.4691 C   0  0  0  0  0  0
   -7.5650   -4.4159   15.6138 C   0  0  0  0  0  0
   -6.9543   -4.6627   14.3699 C   0  0  0  0  0  0
   -5.5447   -4.6880   14.3144 C   0  0  0  0  0  0
   -4.7968   -4.9529   13.0315 C   0  0  0  0  0  0
   -5.6529   -5.5609   11.9242 C   0  0  0  0  0  0
   -7.7903   -4.9929   13.1332 C   0  0  0  0  0  0
   -6.9801   -4.8135   11.8075 C   0  0  0  0  0  0
   -9.9609   -4.5543   11.7904 C   0  0  0  0  0  0
   -9.1505   -4.2474   13.0621 C   0  0  0  0  0  0
   -9.1227   -4.3801   10.5177 C   0  0  0  0  0  0
   -7.8652   -5.2788   10.6365 C   0  0  0  0  0  0
   -7.3140   -5.3337    9.1958 C   0  0  0  0  0  0
   -8.5661   -5.1471    8.2985 C   0  0  0  0  0  0
   -9.7570   -4.9867    9.2539 C   0  0  0  0  0  0
   -8.8266   -2.8724   10.3022 C   0  0  0  0  0  0
  -10.7772   -4.1777    8.6904 O   0  0  0  0  0  0
   -4.7132   -3.8827   17.8085 O   0  0  0  0  0  0
   -6.6176   -6.6477    8.8460 C   0  0  0  0  0  0
   -7.3034   -3.9582   17.7043 H   0  0  0  0  0  0
   -3.7010   -4.4106   15.4103 H   0  0  0  0  0  0
   -8.6473   -4.4311   15.7235 H   0  0  0  0  0  0
   -3.9513   -5.6239   13.2260 H   0  0  0  0  0  0
   -4.3836   -3.9981   12.6813 H   0  0  0  0  0  0
   -5.8331   -6.6242   12.1256 H   0  0  0  0  0  0
   -5.0821   -5.4919   10.9938 H   0  0  0  0  0  0
   -8.0257   -6.0641   13.2314 H   0  0  0  0  0  0
   -6.7310   -3.7530   11.6766 H   0  0  0  0  0  0
  -10.8512   -3.9149   11.7584 H   0  0  0  0  0  0
  -10.3272   -5.5873   11.8568 H   0  0  0  0  0  0
   -8.9841   -3.1668   13.1474 H   0  0  0  0  0  0
   -9.7811   -4.5242   13.9147 H   0  0  0  0  0  0
   -8.1958   -6.3022   10.8802 H   0  0  0  0  0  0
   -6.6167   -4.5050    9.0228 H   0  0  0  0  0  0
   -8.7382   -5.9898    7.6191 H   0  0  0  0  0  0
   -8.4473   -4.2623    7.6614 H   0  0  0  0  0  0
  -10.1896   -5.9710    9.4739 H   0  0  0  0  0  0
   -8.1941   -2.6908    9.4280 H   0  0  0  0  0  0
   -8.3239   -2.4108   11.1559 H   0  0  0  0  0  0
   -9.7578   -2.3139   10.1520 H   0  0  0  0  0  0
  -11.0483   -4.6185    7.8574 H   0  0  0  0  0  0
   -3.7574   -3.9157   17.5899 H   0  0  0  0  0  0
   -6.3120   -6.6477    7.7939 H   0  0  0  0  0  0
   -7.2840   -7.5036    8.9993 H   0  0  0  0  0  0
   -5.7206   -6.8147    9.4442 H   0  0  0  0  0  0
  1  2  2  0  0  0
  1  4  1  0  0  0
  1 22  1  0  0  0
  2  3  1  0  0  0
  2 20  1  0  0  0
  3  6  2  0  0  0
  3 23  1  0  0  0
  4  5  2  0  0  0
  4 24  1  0  0  0
  5  6  1  0  0  0
  5  9  1  0  0  0
  6  7  1  0  0  0
  7  8  1  0  0  0
  7 25  1  0  0  0
  7 26  1  0  0  0
  8 10  1  0  0  0
  8 27  1  0  0  0
  8 28  1  0  0  0
  9 10  1  0  0  0
  9 12  1  0  0  0
  9 29  1  0  0  0
 10 14  1  0  0  0
 10 30  1  0  0  0
 11 12  1  0  0  0
 11 13  1  0  0  0
 11 31  1  0  0  0
 11 32  1  0  0  0
 12 33  1  0  0  0
 12 34  1  0  0  0
 13 14  1  0  0  0
 13 17  1  0  0  0
 13 18  1  0  0  0
 14 15  1  0  0  0
 14 35  1  0  0  0
 15 16  1  0  0  0
 15 21  1  0  0  0
 15 36  1  0  0  0
 16 17  1  0  0  0
 16 37  1  0  0  0
 16 38  1  0  0  0
 17 19  1  0  0  0
 17 39  1  0  0  0
 18 40  1  0  0  0
 18 41  1  0  0  0
 18 42  1  0  0  0
 19 43  1  0  0  0
 20 44  1  0  0  0
 21 45  1  0  0  0
 21 46  1  0  0  0
 21 47  1  0  0  0
M  END
>  <Name>
lit-259

>  <Family>
A.1

>  <RBA>
26.000000

>  <RBA_avg>
26.000000

>  <Method>
RBC

>  <set>
1

$$$$
lit-260
  Cerius2 12180216413D 1   1.00000                          
 Structure written by MMmdl.
 47 50  0  0  0  0  0  0  0  0999 V2000
   -6.7911   -4.0274   16.7243 C   0  0  0  0  0  0
   -5.4098   -4.1101   16.6552 C   0  0  0  0  0  0
   -4.7837   -4.4742   15.4701 C   0  0  0  0  0  0
   -7.5597   -4.3053   15.5910 C   0  0  0  0  0  0
   -6.9575   -4.6573   14.3696 C   0  0  0  0  0  0
   -5.5486   -4.7637   14.3250 C   0  0  0  0  0  0
   -4.8088   -5.1325   13.0594 C   0  0  0  0  0  0
   -5.7063   -5.6837   11.9551 C   0  0  0  0  0  0
   -7.7952   -5.0083   13.1384 C   0  0  0  0  0  0
   -6.9657   -4.8160   11.8265 C   0  0  0  0  0  0
   -9.9616   -4.6700   11.7883 C   0  0  0  0  0  0
   -9.1773   -4.3141   13.0619 C   0  0  0  0  0  0
   -9.1379   -4.3835   10.5254 C   0  0  0  0  0  0
   -7.8237   -5.1960   10.6145 C   0  0  0  0  0  0
   -7.2531   -5.1855    9.1810 C   0  0  0  0  0  0
   -8.5093   -5.0448    8.2829 C   0  0  0  0  0  0
   -9.7196   -4.9881    9.2332 C   0  0  0  0  0  0
   -8.9732   -2.8506   10.3838 C   0  0  0  0  0  0
  -10.7808   -4.2202    8.6870 O   0  0  0  0  0  0
   -4.6920   -3.8287   17.7795 O   0  0  0  0  0  0
   -6.2065   -4.1204    8.8627 C   0  0  0  0  0  0
   -7.2806   -3.7513   17.6557 H   0  0  0  0  0  0
   -3.6981   -4.5391   15.4205 H   0  0  0  0  0  0
   -8.6412   -4.2447   15.6914 H   0  0  0  0  0  0
   -4.0352   -5.8759   13.2868 H   0  0  0  0  0  0
   -4.3027   -4.2311   12.6907 H   0  0  0  0  0  0
   -5.9873   -6.7193   12.1886 H   0  0  0  0  0  0
   -5.1350   -5.7264   11.0241 H   0  0  0  0  0  0
   -8.0071   -6.0844   13.2402 H   0  0  0  0  0  0
   -6.6555   -3.7671   11.7373 H   0  0  0  0  0  0
  -10.9071   -4.1146   11.7703 H   0  0  0  0  0  0
  -10.2326   -5.7331   11.8292 H   0  0  0  0  0  0
   -9.0556   -3.2272   13.1406 H   0  0  0  0  0  0
   -9.7981   -4.6150   13.9140 H   0  0  0  0  0  0
   -8.1113   -6.2488   10.7851 H   0  0  0  0  0  0
   -6.7883   -6.1603    8.9825 H   0  0  0  0  0  0
   -8.6034   -5.9026    7.6068 H   0  0  0  0  0  0
   -8.4633   -4.1537    7.6458 H   0  0  0  0  0  0
  -10.0959   -6.0028    9.4151 H   0  0  0  0  0  0
   -8.5925   -2.5534    9.4036 H   0  0  0  0  0  0
   -8.3035   -2.4263   11.1361 H   0  0  0  0  0  0
   -9.9421   -2.3489   10.4951 H   0  0  0  0  0  0
  -11.0181   -4.6466    7.8364 H   0  0  0  0  0  0
   -3.7386   -3.9313   17.5720 H   0  0  0  0  0  0
   -5.9522   -4.1466    7.7973 H   0  0  0  0  0  0
   -5.2796   -4.2885    9.4162 H   0  0  0  0  0  0
   -6.5445   -3.1095    9.0966 H   0  0  0  0  0  0
  1  2  2  0  0  0
  1  4  1  0  0  0
  1 22  1  0  0  0
  2  3  1  0  0  0
  2 20  1  0  0  0
  3  6  2  0  0  0
  3 23  1  0  0  0
  4  5  2  0  0  0
  4 24  1  0  0  0
  5  6  1  0  0  0
  5  9  1  0  0  0
  6  7  1  0  0  0
  7  8  1  0  0  0
  7 25  1  0  0  0
  7 26  1  0  0  0
  8 10  1  0  0  0
  8 27  1  0  0  0
  8 28  1  0  0  0
  9 10  1  0  0  0
  9 12  1  0  0  0
  9 29  1  0  0  0
 10 14  1  0  0  0
 10 30  1  0  0  0
 11 12  1  0  0  0
 11 13  1  0  0  0
 11 31  1  0  0  0
 11 32  1  0  0  0
 12 33  1  0  0  0
 12 34  1  0  0  0
 13 14  1  0  0  0
 13 17  1  0  0  0
 13 18  1  0  0  0
 14 15  1  0  0  0
 14 35  1  0  0  0
 15 16  1  0  0  0
 15 21  1  0  0  0
 15 36  1  0  0  0
 16 17  1  0  0  0
 16 37  1  0  0  0
 16 38  1  0  0  0
 17 19  1  0  0  0
 17 39  1  0  0  0
 18 40  1  0  0  0
 18 41  1  0  0  0
 18 42  1  0  0  0
 19 43  1  0  0  0
 20 44  1  0  0  0
 21 45  1  0  0  0
 21 46  1  0  0  0
 21 47  1  0  0  0
M  END
>  <Name>
lit-260

>  <Family>
A.1

>  <RBA>
29.000000

>  <RBA_avg>
29.000000

>  <Method>
RBC

>  <set>
0

$$$$
lit-261
  Cerius2 12180216413D 1   1.00000                          
 Structure written by MMmdl.
 47 50  0  0  0  0  0  0  0  0999 V2000
   -6.7888   -4.0200   16.7155 C   0  0  0  0  0  0
   -5.4074   -4.0404   16.6160 C   0  0  0  0  0  0
   -4.7908   -4.4105   15.4273 C   0  0  0  0  0  0
   -7.5668   -4.3712   15.6101 C   0  0  0  0  0  0
   -6.9751   -4.7386   14.3853 C   0  0  0  0  0  0
   -5.5631   -4.7709   14.3061 C   0  0  0  0  0  0
   -4.8195   -5.1278   13.0379 C   0  0  0  0  0  0
   -5.6844   -5.6625   11.8984 C   0  0  0  0  0  0
   -7.8390   -5.1732   13.1842 C   0  0  0  0  0  0
   -7.0212   -4.9208   11.8617 C   0  0  0  0  0  0
   -9.9924   -4.6457   11.7890 C   0  0  0  0  0  0
   -9.2003   -4.4024   13.0927 C   0  0  0  0  0  0
   -9.1357   -4.3828   10.5435 C   0  0  0  0  0  0
   -7.8670   -5.2582   10.6312 C   0  0  0  0  0  0
   -7.2569   -5.1296    9.2373 C   0  0  0  0  0  0
   -8.4813   -5.0582    8.3044 C   0  0  0  0  0  0
   -9.7155   -4.9227    9.2202 C   0  0  0  0  0  0
   -8.1617   -6.6740   13.4259 C   0  0  0  0  0  0
   -8.8691   -2.8582   10.4258 C   0  0  0  0  0  0
  -10.7017   -4.0758    8.6515 O   0  0  0  0  0  0
   -4.6789   -3.6904   17.7139 O   0  0  0  0  0  0
   -7.2705   -3.7380   17.6490 H   0  0  0  0  0  0
   -3.7043   -4.4219   15.3549 H   0  0  0  0  0  0
   -8.6481   -4.3634   15.7316 H   0  0  0  0  0  0
   -4.0396   -5.8654   13.2629 H   0  0  0  0  0  0
   -4.3145   -4.2172   12.6891 H   0  0  0  0  0  0
   -5.8369   -6.7413   12.0103 H   0  0  0  0  0  0
   -5.1354   -5.5330   10.9584 H   0  0  0  0  0  0
   -6.7699   -3.8521   11.8122 H   0  0  0  0  0  0
  -10.8846   -4.0077   11.7821 H   0  0  0  0  0  0
  -10.3614   -5.6786   11.7821 H   0  0  0  0  0  0
   -9.0182   -3.3264   13.2073 H   0  0  0  0  0  0
   -9.8570   -4.6805   13.9267 H   0  0  0  0  0  0
   -8.1668   -6.3129   10.7154 H   0  0  0  0  0  0
   -6.6178   -5.9828    8.9882 H   0  0  0  0  0  0
   -6.6502   -4.2221    9.1443 H   0  0  0  0  0  0
   -8.5630   -5.9681    7.6993 H   0  0  0  0  0  0
   -8.3908   -4.2185    7.6063 H   0  0  0  0  0  0
  -10.1692   -5.9101    9.3742 H   0  0  0  0  0  0
   -8.7220   -7.1253   12.6034 H   0  0  0  0  0  0
   -8.7723   -6.8011   14.3290 H   0  0  0  0  0  0
   -7.2596   -7.2756   13.5814 H   0  0  0  0  0  0
   -8.2922   -2.6005    9.5322 H   0  0  0  0  0  0
   -8.3239   -2.4542   11.2825 H   0  0  0  0  0  0
   -9.8147   -2.3067   10.3655 H   0  0  0  0  0  0
  -10.9411   -4.4750    7.7883 H   0  0  0  0  0  0
   -3.7266   -3.7551   17.4870 H   0  0  0  0  0  0
  1  2  2  0  0  0
  1  4  1  0  0  0
  1 22  1  0  0  0
  2  3  1  0  0  0
  2 21  1  0  0  0
  3  6  2  0  0  0
  3 23  1  0  0  0
  4  5  2  0  0  0
  4 24  1  0  0  0
  5  6  1  0  0  0
  5  9  1  0  0  0
  6  7  1  0  0  0
  7  8  1  0  0  0
  7 25  1  0  0  0
  7 26  1  0  0  0
  8 10  1  0  0  0
  8 27  1  0  0  0
  8 28  1  0  0  0
  9 10  1  0  0  0
  9 12  1  0  0  0
  9 18  1  0  0  0
 10 14  1  0  0  0
 10 29  1  0  0  0
 11 12  1  0  0  0
 11 13  1  0  0  0
 11 30  1  0  0  0
 11 31  1  0  0  0
 12 32  1  0  0  0
 12 33  1  0  0  0
 13 14  1  0  0  0
 13 17  1  0  0  0
 13 19  1  0  0  0
 14 15  1  0  0  0
 14 34  1  0  0  0
 15 16  1  0  0  0
 15 35  1  0  0  0
 15 36  1  0  0  0
 16 17  1  0  0  0
 16 37  1  0  0  0
 16 38  1  0  0  0
 17 20  1  0  0  0
 17 39  1  0  0  0
 18 40  1  0  0  0
 18 41  1  0  0  0
 18 42  1  0  0  0
 19 43  1  0  0  0
 19 44  1  0  0  0
 19 45  1  0  0  0
 20 46  1  0  0  0
 21 47  1  0  0  0
M  END
>  <Name>
lit-261

>  <Family>
A.1

>  <RBA>
35,39

>  <RBA_avg>
37.000000

>  <Method>
RBC,MUC

>  <set>
0

$$$$
lit-262
  Cerius2 12180216413D 1   1.00000                          
 Structure written by MMmdl.
 49 52  0  0  0  0  0  0  0  0999 V2000
   -6.7723   -4.0974   16.7501 C   0  0  0  0  0  0
   -5.3906   -4.1227   16.6535 C   0  0  0  0  0  0
   -4.7740   -4.4287   15.4471 C   0  0  0  0  0  0
   -7.5506   -4.3732   15.6229 C   0  0  0  0  0  0
   -6.9590   -4.6646   14.3801 C   0  0  0  0  0  0
   -5.5487   -4.7167   14.3078 C   0  0  0  0  0  0
   -4.8181   -5.0229   13.0210 C   0  0  0  0  0  0
   -5.7060   -5.6082   11.9273 C   0  0  0  0  0  0
   -7.8120   -5.0114   13.1590 C   0  0  0  0  0  0
   -7.0131   -4.8159   11.8376 C   0  0  0  0  0  0
  -10.0120   -4.6454   11.8266 C   0  0  0  0  0  0
   -9.1874   -4.2964   13.0946 C   0  0  0  0  0  0
   -9.1833   -4.4139   10.5289 C   0  0  0  0  0  0
   -7.8853   -5.2555   10.6583 C   0  0  0  0  0  0
   -7.2777   -5.2183    9.2574 C   0  0  0  0  0  0
   -8.4842   -5.1373    8.3037 C   0  0  0  0  0  0
   -9.7498   -4.9930    9.1892 C   0  0  0  0  0  0
   -8.8952   -2.8911   10.3461 C   0  0  0  0  0  0
   -4.6627   -3.8450   17.7721 O   0  0  0  0  0  0
  -11.3524   -3.9063   11.8545 C   0  0  0  0  0  0
  -10.6730   -4.1022    8.5687 O   0  0  0  0  0  0
  -10.4202   -6.3043    9.3389 C   0  0  0  0  0  0
  -10.9681   -7.3684    9.4472 C   0  0  0  0  0  0
   -7.2545   -3.8686   17.6979 H   0  0  0  0  0  0
   -3.6878   -4.4496   15.3763 H   0  0  0  0  0  0
   -8.6315   -4.3613   15.7448 H   0  0  0  0  0  0
   -3.9975   -5.7234   13.2181 H   0  0  0  0  0  0
   -4.3728   -4.0879   12.6576 H   0  0  0  0  0  0
   -5.9198   -6.6629   12.1435 H   0  0  0  0  0  0
   -5.1583   -5.5825   10.9788 H   0  0  0  0  0  0
   -8.0275   -6.0863   13.2614 H   0  0  0  0  0  0
   -6.7472   -3.7574   11.7213 H   0  0  0  0  0  0
  -10.2453   -5.7156   11.9068 H   0  0  0  0  0  0
   -9.0469   -3.2118   13.1778 H   0  0  0  0  0  0
   -9.7923   -4.5880   13.9622 H   0  0  0  0  0  0
   -8.1588   -6.3062   10.8450 H   0  0  0  0  0  0
   -6.6764   -6.1110    9.0557 H   0  0  0  0  0  0
   -6.6270   -4.3473    9.1220 H   0  0  0  0  0  0
   -8.5259   -6.0254    7.6616 H   0  0  0  0  0  0
   -8.3664   -4.2770    7.6332 H   0  0  0  0  0  0
   -8.2313   -2.6899    9.4997 H   0  0  0  0  0  0
   -8.4265   -2.4394   11.2238 H   0  0  0  0  0  0
   -9.8176   -2.3316   10.1582 H   0  0  0  0  0  0
   -3.7102   -3.9041   17.5444 H   0  0  0  0  0  0
  -11.9568   -4.1420   10.9740 H   0  0  0  0  0  0
  -11.2211   -2.8211   11.9035 H   0  0  0  0  0  0
  -11.9311   -4.2032   12.7363 H   0  0  0  0  0  0
  -10.8963   -4.5029    7.7041 H   0  0  0  0  0  0
  -11.4554   -8.3130    9.5439 H   0  0  0  0  0  0
  1  2  2  0  0  0
  1  4  1  0  0  0
  1 24  1  0  0  0
  2  3  1  0  0  0
  2 19  1  0  0  0
  3  6  2  0  0  0
  3 25  1  0  0  0
  4  5  2  0  0  0
  4 26  1  0  0  0
  5  6  1  0  0  0
  5  9  1  0  0  0
  6  7  1  0  0  0
  7  8  1  0  0  0
  7 27  1  0  0  0
  7 28  1  0  0  0
  8 10  1  0  0  0
  8 29  1  0  0  0
  8 30  1  0  0  0
  9 10  1  0  0  0
  9 12  1  0  0  0
  9 31  1  0  0  0
 10 14  1  0  0  0
 10 32  1  0  0  0
 11 12  1  0  0  0
 11 13  1  0  0  0
 11 20  1  0  0  0
 11 33  1  0  0  0
 12 34  1  0  0  0
 12 35  1  0  0  0
 13 14  1  0  0  0
 13 17  1  0  0  0
 13 18  1  0  0  0
 14 15  1  0  0  0
 14 36  1  0  0  0
 15 16  1  0  0  0
 15 37  1  0  0  0
 15 38  1  0  0  0
 16 17  1  0  0  0
 16 39  1  0  0  0
 16 40  1  0  0  0
 17 21  1  0  0  0
 17 22  1  0  0  0
 18 41  1  0  0  0
 18 42  1  0  0  0
 18 43  1  0  0  0
 19 44  1  0  0  0
 20 45  1  0  0  0
 20 46  1  0  0  0
 20 47  1  0  0  0
 21 48  1  0  0  0
 22 23  3  0  0  0
 23 49  1  0  0  0
M  END
>  <Name>
lit-262

>  <Family>
A.1

>  <RBA>
111.000000

>  <RBA_avg>
111.000000

>  <Method>
RUC*

>  <set>
1

$$$$
lit-263
  Cerius2 12180216413D 1   1.00000                          
 Structure written by MMmdl.
 45 49  0  0  0  0  0  0  0  0999 V2000
   -6.8008   -4.2379   16.7705 C   0  0  0  0  0  0
   -5.4219   -4.1416   16.6750 C   0  0  0  0  0  0
   -4.7841   -4.3318   15.4557 C   0  0  0  0  0  0
   -7.5559   -4.5165   15.6287 C   0  0  0  0  0  0
   -6.9445   -4.6887   14.3732 C   0  0  0  0  0  0
   -5.5343   -4.6246   14.3016 C   0  0  0  0  0  0
   -4.7840   -4.8155   13.0030 C   0  0  0  0  0  0
   -5.6184   -5.4923   11.9198 C   0  0  0  0  0  0
   -7.7799   -5.0259   13.1364 C   0  0  0  0  0  0
   -6.9753   -4.7966   11.8181 C   0  0  0  0  0  0
   -9.9678   -4.5939   11.7898 C   0  0  0  0  0  0
   -9.1594   -4.3030   13.0749 C   0  0  0  0  0  0
   -9.1345   -4.3651   10.5210 C   0  0  0  0  0  0
   -7.8577   -5.2161   10.6594 C   0  0  0  0  0  0
   -7.4932   -5.6785    9.2797 C   0  0  0  0  0  0
   -8.5656   -5.2418    8.3116 C   0  0  0  0  0  0
   -9.7883   -4.9034    9.2056 C   0  0  0  0  0  0
   -8.8217   -2.8570   10.3488 C   0  0  0  0  0  0
  -10.6508   -3.9664    8.5707 O   0  0  0  0  0  0
   -4.7171   -3.8633   17.8084 O   0  0  0  0  0  0
   -7.8586   -6.7073   10.3067 C   0  0  0  0  0  0
   -7.2980   -4.1015   17.7282 H   0  0  0  0  0  0
   -3.6998   -4.2603   15.3872 H   0  0  0  0  0  0
   -8.6342   -4.6029   15.7455 H   0  0  0  0  0  0
   -3.8851   -5.4188   13.1790 H   0  0  0  0  0  0
   -4.4564   -3.8295   12.6502 H   0  0  0  0  0  0
   -5.7400   -6.5521   12.1744 H   0  0  0  0  0  0
   -5.0794   -5.4488   10.9668 H   0  0  0  0  0  0
   -7.9949   -6.1027   13.2129 H   0  0  0  0  0  0
   -6.7576   -3.7269   11.7115 H   0  0  0  0  0  0
  -10.8720   -3.9741   11.7751 H   0  0  0  0  0  0
  -10.3037   -5.6383   11.8307 H   0  0  0  0  0  0
   -9.0135   -3.2216   13.1848 H   0  0  0  0  0  0
   -9.7845   -4.6106   13.9212 H   0  0  0  0  0  0
   -6.4809   -5.5983    8.9172 H   0  0  0  0  0  0
   -8.8118   -6.0321    7.5951 H   0  0  0  0  0  0
   -8.2385   -4.3659    7.7405 H   0  0  0  0  0  0
  -10.3696   -5.8110    9.4077 H   0  0  0  0  0  0
   -8.1594   -2.6797    9.4945 H   0  0  0  0  0  0
   -8.3309   -2.4159   11.2201 H   0  0  0  0  0  0
   -9.7402   -2.2806   10.1913 H   0  0  0  0  0  0
  -10.9194   -4.3776    7.7221 H   0  0  0  0  0  0
   -3.7639   -3.8271   17.5792 H   0  0  0  0  0  0
   -8.8051   -7.2328   10.2440 H   0  0  0  0  0  0
   -7.0626   -7.3625   10.6415 H   0  0  0  0  0  0
  1  2  2  0  0  0
  1  4  1  0  0  0
  1 22  1  0  0  0
  2  3  1  0  0  0
  2 20  1  0  0  0
  3  6  2  0  0  0
  3 23  1  0  0  0
  4  5  2  0  0  0
  4 24  1  0  0  0
  5  6  1  0  0  0
  5  9  1  0  0  0
  6  7  1  0  0  0
  7  8  1  0  0  0
  7 25  1  0  0  0
  7 26  1  0  0  0
  8 10  1  0  0  0
  8 27  1  0  0  0
  8 28  1  0  0  0
  9 10  1  0  0  0
  9 12  1  0  0  0
  9 29  1  0  0  0
 10 14  1  0  0  0
 10 30  1  0  0  0
 11 12  1  0  0  0
 11 13  1  0  0  0
 11 31  1  0  0  0
 11 32  1  0  0  0
 12 33  1  0  0  0
 12 34  1  0  0  0
 13 14  1  0  0  0
 13 17  1  0  0  0
 13 18  1  0  0  0
 14 15  1  0  0  0
 14 21  1  0  0  0
 15 16  1  0  0  0
 15 21  1  0  0  0
 15 35  1  0  0  0
 16 17  1  0  0  0
 16 36  1  0  0  0
 16 37  1  0  0  0
 17 19  1  0  0  0
 17 38  1  0  0  0
 18 39  1  0  0  0
 18 40  1  0  0  0
 18 41  1  0  0  0
 19 42  1  0  0  0
 20 43  1  0  0  0
 21 44  1  0  0  0
 21 45  1  0  0  0
M  END
>  <Name>
lit-263

>  <Family>
A.1

>  <RBA>
100.000000

>  <RBA_avg>
100.000000

>  <Method>
RUC

>  <set>
0

$$$$
lit-264
  Cerius2 12180216413D 1   1.00000                          
 Structure written by MMmdl.
 43 47  0  0  0  0  0  0  0  0999 V2000
   -6.7983   -4.2356   16.7737 C   0  0  0  0  0  0
   -5.4157   -4.2036   16.6911 C   0  0  0  0  0  0
   -4.7769   -4.4131   15.4756 C   0  0  0  0  0  0
   -7.5554   -4.4699   15.6231 C   0  0  0  0  0  0
   -6.9417   -4.6607   14.3717 C   0  0  0  0  0  0
   -5.5297   -4.6597   14.3122 C   0  0  0  0  0  0
   -4.7762   -4.8663   13.0182 C   0  0  0  0  0  0
   -5.6301   -5.4447   11.8949 C   0  0  0  0  0  0
   -7.7743   -4.9560   13.1243 C   0  0  0  0  0  0
   -6.9598   -4.6953   11.8216 C   0  0  0  0  0  0
   -9.9541   -4.5548   11.7899 C   0  0  0  0  0  0
   -9.1431   -4.2191   13.0598 C   0  0  0  0  0  0
   -9.1456   -4.3264   10.5035 C   0  0  0  0  0  0
   -7.8208   -5.0540   10.6455 C   0  0  0  0  0  0
   -7.4568   -5.6340    9.3198 C   0  0  0  0  0  0
   -8.5602   -5.3424    8.3431 C   0  0  0  0  0  0
   -9.7806   -4.9936    9.2365 C   0  0  0  0  0  0
   -8.9283   -2.8166   10.2605 C   0  0  0  0  0  0
  -10.6984   -4.1466    8.5544 O   0  0  0  0  0  0
   -4.7090   -3.9677   17.8327 O   0  0  0  0  0  0
   -7.8573   -6.4821   10.3972 O   0  0  0  0  0  0
   -7.2971   -4.0840   17.7282 H   0  0  0  0  0  0
   -3.6900   -4.3910   15.4167 H   0  0  0  0  0  0
   -8.6372   -4.5079   15.7322 H   0  0  0  0  0  0
   -3.9232   -5.5345   13.1884 H   0  0  0  0  0  0
   -4.3757   -3.8945   12.7027 H   0  0  0  0  0  0
   -5.8026   -6.5140   12.0729 H   0  0  0  0  0  0
   -5.0799   -5.3663   10.9503 H   0  0  0  0  0  0
   -8.0003   -6.0324   13.1723 H   0  0  0  0  0  0
   -6.7240   -3.6250   11.7527 H   0  0  0  0  0  0
  -10.8780   -3.9647   11.7741 H   0  0  0  0  0  0
  -10.2569   -5.6082   11.8555 H   0  0  0  0  0  0
   -8.9863   -3.1362   13.1320 H   0  0  0  0  0  0
   -9.7664   -4.4964   13.9170 H   0  0  0  0  0  0
   -6.4485   -5.6537    8.9459 H   0  0  0  0  0  0
   -8.7772   -6.2045    7.7045 H   0  0  0  0  0  0
   -8.2920   -4.5021    7.6934 H   0  0  0  0  0  0
  -10.3062   -5.9161    9.5141 H   0  0  0  0  0  0
   -8.3301   -2.6387    9.3600 H   0  0  0  0  0  0
   -8.4012   -2.3295   11.0859 H   0  0  0  0  0  0
   -9.8841   -2.2948   10.1400 H   0  0  0  0  0  0
  -10.9862   -4.6422    7.7586 H   0  0  0  0  0  0
   -3.7529   -3.9757   17.6124 H   0  0  0  0  0  0
  1  2  2  0  0  0
  1  4  1  0  0  0
  1 22  1  0  0  0
  2  3  1  0  0  0
  2 20  1  0  0  0
  3  6  2  0  0  0
  3 23  1  0  0  0
  4  5  2  0  0  0
  4 24  1  0  0  0
  5  6  1  0  0  0
  5  9  1  0  0  0
  6  7  1  0  0  0
  7  8  1  0  0  0
  7 25  1  0  0  0
  7 26  1  0  0  0
  8 10  1  0  0  0
  8 27  1  0  0  0
  8 28  1  0  0  0
  9 10  1  0  0  0
  9 12  1  0  0  0
  9 29  1  0  0  0
 10 14  1  0  0  0
 10 30  1  0  0  0
 11 12  1  0  0  0
 11 13  1  0  0  0
 11 31  1  0  0  0
 11 32  1  0  0  0
 12 33  1  0  0  0
 12 34  1  0  0  0
 13 14  1  0  0  0
 13 17  1  0  0  0
 13 18  1  0  0  0
 14 15  1  0  0  0
 14 21  1  0  0  0
 15 16  1  0  0  0
 15 21  1  0  0  0
 15 35  1  0  0  0
 16 17  1  0  0  0
 16 36  1  0  0  0
 16 37  1  0  0  0
 17 19  1  0  0  0
 17 38  1  0  0  0
 18 39  1  0  0  0
 18 40  1  0  0  0
 18 41  1  0  0  0
 19 42  1  0  0  0
 20 43  1  0  0  0
M  END
>  <Name>
lit-264

>  <Family>
A.1

>  <RBA>
41.000000

>  <RBA_avg>
41.000000

>  <Method>
RUC

>  <set>
0

$$$$
lit-265
  Cerius2 12180216413D 1   1.00000                          
 Structure written by MMmdl.
 45 49  0  0  0  0  0  0  0  0999 V2000
   -6.8206   -4.6347   16.7360 C   0  0  0  0  0  0
   -5.4476   -4.4577   16.6901 C   0  0  0  0  0  0
   -4.7862   -4.3956   15.4704 C   0  0  0  0  0  0
   -7.5446   -4.7341   15.5453 C   0  0  0  0  0  0
   -6.9100   -4.6398   14.2923 C   0  0  0  0  0  0
   -5.5072   -4.5086   14.2671 C   0  0  0  0  0  0
   -4.7410   -4.4479   12.9720 C   0  0  0  0  0  0
   -5.5223   -5.0033   11.7852 C   0  0  0  0  0  0
   -7.7132   -4.7793   12.9995 C   0  0  0  0  0  0
   -6.9173   -4.3699   11.7279 C   0  0  0  0  0  0
   -9.8760   -4.3467   11.7837 C   0  0  0  0  0  0
   -9.0375   -3.9910   13.0078 C   0  0  0  0  0  0
   -9.1676   -4.0947   10.4304 C   0  0  0  0  0  0
   -7.7270   -4.6645   10.4583 C   0  0  0  0  0  0
   -7.7675   -6.0072    9.7877 C   0  0  0  0  0  0
   -9.1753   -6.3131    9.3462 C   0  0  0  0  0  0
   -9.9114   -4.9540    9.3446 C   0  0  0  0  0  0
   -9.1596   -2.5973   10.0973 C   0  0  0  0  0  0
   -9.8510   -4.3620    8.0405 O   0  0  0  0  0  0
   -4.7720   -4.3588   17.8699 O   0  0  0  0  0  0
   -6.9973   -4.8910    9.1372 C   0  0  0  0  0  0
   -7.3369   -4.7017   17.6910 H   0  0  0  0  0  0
   -3.7054   -4.2682   15.4386 H   0  0  0  0  0  0
   -8.6176   -4.8995   15.6199 H   0  0  0  0  0  0
   -3.8055   -5.0127   13.0663 H   0  0  0  0  0  0
   -4.4759   -3.4007   12.7795 H   0  0  0  0  0  0
   -5.6024   -6.0949   11.8624 H   0  0  0  0  0  0
   -4.9385   -4.7872   10.8864 H   0  0  0  0  0  0
   -7.9536   -5.8501   12.9190 H   0  0  0  0  0  0
   -6.7696   -3.2800   11.7454 H   0  0  0  0  0  0
  -10.8217   -3.7908   11.8178 H   0  0  0  0  0  0
  -10.1491   -5.4069   11.8732 H   0  0  0  0  0  0
   -8.8438   -2.9125   13.0489 H   0  0  0  0  0  0
   -9.6410   -4.2275   13.8899 H   0  0  0  0  0  0
   -7.2332   -6.8514   10.1964 H   0  0  0  0  0  0
   -9.6332   -6.9902   10.0752 H   0  0  0  0  0  0
   -9.1793   -6.7927    8.3628 H   0  0  0  0  0  0
  -10.9752   -5.0785    9.5755 H   0  0  0  0  0  0
   -8.6230   -2.3922    9.1647 H   0  0  0  0  0  0
   -8.6626   -2.0122   10.8778 H   0  0  0  0  0  0
  -10.1803   -2.2141    9.9905 H   0  0  0  0  0  0
  -10.2979   -4.9923    7.4375 H   0  0  0  0  0  0
   -3.8190   -4.2367   17.6716 H   0  0  0  0  0  0
   -5.9215   -4.9952    9.0904 H   0  0  0  0  0  0
   -7.3847   -4.4249    8.2371 H   0  0  0  0  0  0
  1  2  2  0  0  0
  1  4  1  0  0  0
  1 22  1  0  0  0
  2  3  1  0  0  0
  2 20  1  0  0  0
  3  6  2  0  0  0
  3 23  1  0  0  0
  4  5  2  0  0  0
  4 24  1  0  0  0
  5  6  1  0  0  0
  5  9  1  0  0  0
  6  7  1  0  0  0
  7  8  1  0  0  0
  7 25  1  0  0  0
  7 26  1  0  0  0
  8 10  1  0  0  0
  8 27  1  0  0  0
  8 28  1  0  0  0
  9 10  1  0  0  0
  9 12  1  0  0  0
  9 29  1  0  0  0
 10 14  1  0  0  0
 10 30  1  0  0  0
 11 12  1  0  0  0
 11 13  1  0  0  0
 11 31  1  0  0  0
 11 32  1  0  0  0
 12 33  1  0  0  0
 12 34  1  0  0  0
 13 14  1  0  0  0
 13 17  1  0  0  0
 13 18  1  0  0  0
 14 15  1  0  0  0
 14 21  1  0  0  0
 15 16  1  0  0  0
 15 21  1  0  0  0
 15 35  1  0  0  0
 16 17  1  0  0  0
 16 36  1  0  0  0
 16 37  1  0  0  0
 17 19  1  0  0  0
 17 38  1  0  0  0
 18 39  1  0  0  0
 18 40  1  0  0  0
 18 41  1  0  0  0
 19 42  1  0  0  0
 20 43  1  0  0  0
 21 44  1  0  0  0
 21 45  1  0  0  0
M  END
>  <Name>
lit-265

>  <Family>
A.1

>  <RBA>
95.000000

>  <RBA_avg>
95.000000

>  <Method>
RUC

>  <set>
0

$$$$
lit-266
  Cerius2 12180216413D 1   1.00000                          
 Structure written by MMmdl.
 43 47  0  0  0  0  0  0  0  0999 V2000
   -6.7907   -4.5432   16.7465 C   0  0  0  0  0  0
   -5.4166   -4.3841   16.6704 C   0  0  0  0  0  0
   -4.7744   -4.3815   15.4389 C   0  0  0  0  0  0
   -7.5366   -4.6885   15.5741 C   0  0  0  0  0  0
   -6.9215   -4.6606   14.3090 C   0  0  0  0  0  0
   -5.5156   -4.5388   14.2530 C   0  0  0  0  0  0
   -4.7629   -4.5252   12.9437 C   0  0  0  0  0  0
   -5.5769   -5.0637   11.7723 C   0  0  0  0  0  0
   -7.7425   -4.8549   13.0347 C   0  0  0  0  0  0
   -6.9630   -4.4160   11.7664 C   0  0  0  0  0  0
   -9.9298   -4.4718   11.7774 C   0  0  0  0  0  0
   -9.1209   -4.1511   13.0428 C   0  0  0  0  0  0
   -9.1927   -4.1232   10.4613 C   0  0  0  0  0  0
   -7.7881   -4.6992   10.5399 C   0  0  0  0  0  0
   -7.7485   -5.9764    9.7702 C   0  0  0  0  0  0
   -9.1040   -6.2444    9.1862 C   0  0  0  0  0  0
   -9.8574   -4.8979    9.2699 C   0  0  0  0  0  0
   -9.1716   -2.6063   10.2338 C   0  0  0  0  0  0
   -9.7203   -4.1936    8.0279 O   0  0  0  0  0  0
   -4.7209   -4.2396   17.8338 O   0  0  0  0  0  0
   -7.0751   -4.8007    9.2959 O   0  0  0  0  0  0
   -7.2912   -4.5601   17.7120 H   0  0  0  0  0  0
   -3.6934   -4.2632   15.3845 H   0  0  0  0  0  0
   -8.6101   -4.8341   15.6753 H   0  0  0  0  0  0
   -3.8468   -5.1212   13.0355 H   0  0  0  0  0  0
   -4.4641   -3.4903   12.7341 H   0  0  0  0  0  0
   -5.6666   -6.1547   11.8518 H   0  0  0  0  0  0
   -5.0359   -4.8573   10.8417 H   0  0  0  0  0  0
   -7.9276   -5.9375   12.9644 H   0  0  0  0  0  0
   -6.8130   -3.3273   11.8037 H   0  0  0  0  0  0
  -10.8928   -3.9476   11.8177 H   0  0  0  0  0  0
  -10.1653   -5.5443   11.8005 H   0  0  0  0  0  0
   -8.9926   -3.0677   13.1527 H   0  0  0  0  0  0
   -9.7221   -4.4784   13.8975 H   0  0  0  0  0  0
   -7.1754   -6.8331   10.0805 H   0  0  0  0  0  0
   -9.6088   -6.9969    9.8013 H   0  0  0  0  0  0
   -9.0216   -6.6172    8.1610 H   0  0  0  0  0  0
  -10.9311   -5.0482    9.4261 H   0  0  0  0  0  0
   -8.5742   -2.3396    9.3549 H   0  0  0  0  0  0
   -8.7307   -2.0713   11.0808 H   0  0  0  0  0  0
  -10.1856   -2.2192   10.0870 H   0  0  0  0  0  0
  -10.1248   -4.7658    7.3425 H   0  0  0  0  0  0
   -3.7700   -4.1361   17.6153 H   0  0  0  0  0  0
  1  2  2  0  0  0
  1  4  1  0  0  0
  1 22  1  0  0  0
  2  3  1  0  0  0
  2 20  1  0  0  0
  3  6  2  0  0  0
  3 23  1  0  0  0
  4  5  2  0  0  0
  4 24  1  0  0  0
  5  6  1  0  0  0
  5  9  1  0  0  0
  6  7  1  0  0  0
  7  8  1  0  0  0
  7 25  1  0  0  0
  7 26  1  0  0  0
  8 10  1  0  0  0
  8 27  1  0  0  0
  8 28  1  0  0  0
  9 10  1  0  0  0
  9 12  1  0  0  0
  9 29  1  0  0  0
 10 14  1  0  0  0
 10 30  1  0  0  0
 11 12  1  0  0  0
 11 13  1  0  0  0
 11 31  1  0  0  0
 11 32  1  0  0  0
 12 33  1  0  0  0
 12 34  1  0  0  0
 13 14  1  0  0  0
 13 17  1  0  0  0
 13 18  1  0  0  0
 14 15  1  0  0  0
 14 21  1  0  0  0
 15 16  1  0  0  0
 15 21  1  0  0  0
 15 35  1  0  0  0
 16 17  1  0  0  0
 16 36  1  0  0  0
 16 37  1  0  0  0
 17 19  1  0  0  0
 17 38  1  0  0  0
 18 39  1  0  0  0
 18 40  1  0  0  0
 18 41  1  0  0  0
 19 42  1  0  0  0
 20 43  1  0  0  0
M  END
>  <Name>
lit-266

>  <Family>
A.1

>  <RBA>
5.000000

>  <RBA_avg>
5.000000

>  <Method>
RUC

>  <set>
0

$$$$
lit-145
  Cerius2 12180216413D 1   1.00000                          
 Structure written by MMmdl.
 44 47  0  0  0  0  0  0  0  0999 V2000
   -6.8949   -3.9709   16.7600 C   0  0  0  0  0  0
   -5.4720   -4.4529   16.7811 C   0  0  0  0  0  0
   -4.8234   -4.7122   15.4785 C   0  0  0  0  0  0
   -7.6715   -4.6740   15.6572 C   0  0  0  0  0  0
   -6.9970   -4.6094   14.2936 C   0  0  0  0  0  0
   -5.5279   -4.7230   14.3328 C   0  0  0  0  0  0
   -4.7707   -4.8484   13.0313 C   0  0  0  0  0  0
   -5.6267   -5.3953   11.9005 C   0  0  0  0  0  0
   -7.6662   -4.5193   13.1139 C   0  0  0  0  0  0
   -6.9074   -4.5641   11.7709 C   0  0  0  0  0  0
   -9.8139   -4.3528   11.8637 C   0  0  0  0  0  0
   -9.1329   -4.4401   13.0212 C   0  0  0  0  0  0
   -9.1235   -4.3319   10.5197 C   0  0  0  0  0  0
   -7.8118   -5.1369   10.6739 C   0  0  0  0  0  0
   -7.2834   -5.2410    9.2473 C   0  0  0  0  0  0
   -8.5528   -5.3416    8.3761 C   0  0  0  0  0  0
   -9.7661   -5.0924    9.3138 C   0  0  0  0  0  0
   -8.9172   -2.8357   10.1625 C   0  0  0  0  0  0
  -10.7461   -4.3032    8.6392 O   0  0  0  0  0  0
   -4.8193   -4.5522   17.8222 O   0  0  0  0  0  0
  -10.4053   -6.3726    9.6979 C   0  0  0  0  0  0
  -10.9274   -7.4115   10.0019 C   0  0  0  0  0  0
   -6.8913   -2.8848   16.6149 H   0  0  0  0  0  0
   -7.3569   -4.1892   17.7289 H   0  0  0  0  0  0
   -3.7448   -4.8228   15.4997 H   0  0  0  0  0  0
   -8.6720   -4.2348   15.6513 H   0  0  0  0  0  0
   -7.7897   -5.7338   15.9216 H   0  0  0  0  0  0
   -3.8923   -5.4945   13.1531 H   0  0  0  0  0  0
   -4.3998   -3.8541   12.7486 H   0  0  0  0  0  0
   -5.8678   -6.4495   12.0927 H   0  0  0  0  0  0
   -5.0518   -5.3636   10.9678 H   0  0  0  0  0  0
   -6.6211   -3.5370   11.5094 H   0  0  0  0  0  0
  -10.8987   -4.2665   11.8783 H   0  0  0  0  0  0
   -9.7234   -4.4464   13.9328 H   0  0  0  0  0  0
   -8.0552   -6.1687   10.9813 H   0  0  0  0  0  0
   -6.6414   -6.1178    9.1133 H   0  0  0  0  0  0
   -6.6982   -4.3576    8.9689 H   0  0  0  0  0  0
   -8.6043   -6.3226    7.8886 H   0  0  0  0  0  0
   -8.5076   -4.5957    7.5732 H   0  0  0  0  0  0
   -8.3565   -2.6996    9.2325 H   0  0  0  0  0  0
   -8.3804   -2.2896   10.9462 H   0  0  0  0  0  0
   -9.8817   -2.3282   10.0369 H   0  0  0  0  0  0
  -11.0206   -4.8262    7.8586 H   0  0  0  0  0  0
  -11.3912   -8.3336   10.2732 H   0  0  0  0  0  0
  1  2  1  0  0  0
  1  4  1  0  0  0
  1 23  1  0  0  0
  1 24  1  0  0  0
  2  3  1  0  0  0
  2 20  2  0  0  0
  3  6  2  0  0  0
  3 25  1  0  0  0
  4  5  1  0  0  0
  4 26  1  0  0  0
  4 27  1  0  0  0
  5  6  1  0  0  0
  5  9  2  0  0  0
  6  7  1  0  0  0
  7  8  1  0  0  0
  7 28  1  0  0  0
  7 29  1  0  0  0
  8 10  1  0  0  0
  8 30  1  0  0  0
  8 31  1  0  0  0
  9 10  1  0  0  0
  9 12  1  0  0  0
 10 14  1  0  0  0
 10 32  1  0  0  0
 11 12  2  0  0  0
 11 13  1  0  0  0
 11 33  1  0  0  0
 12 34  1  0  0  0
 13 14  1  0  0  0
 13 17  1  0  0  0
 13 18  1  0  0  0
 14 15  1  0  0  0
 14 35  1  0  0  0
 15 16  1  0  0  0
 15 36  1  0  0  0
 15 37  1  0  0  0
 16 17  1  0  0  0
 16 38  1  0  0  0
 16 39  1  0  0  0
 17 19  1  0  0  0
 17 21  1  0  0  0
 18 40  1  0  0  0
 18 41  1  0  0  0
 18 42  1  0  0  0
 19 43  1  0  0  0
 21 22  3  0  0  0
 22 44  1  0  0  0
M  END
>  <Name>
lit-145

>  <Family>
A.2

>  <RBA>
<1

>  <RBA_avg>
0.000000

>  <Method>
RUC

>  <set>
1

$$$$
lit-146
  Cerius2 12180216413D 1   1.00000                          
 Structure written by MMmdl.
 46 49  0  0  0  0  0  0  0  0999 V2000
   -6.8381   -4.7295   16.9222 C   0  0  0  0  0  0
   -5.5261   -4.0164   16.7452 C   0  0  0  0  0  0
   -4.7276   -4.3791   15.5075 C   0  0  0  0  0  0
   -7.6946   -4.5425   15.6785 C   0  0  0  0  0  0
   -6.9527   -4.7395   14.3725 C   0  0  0  0  0  0
   -5.6013   -4.7096   14.3183 C   0  0  0  0  0  0
   -4.8224   -5.0049   13.0536 C   0  0  0  0  0  0
   -5.6679   -5.5647   11.9084 C   0  0  0  0  0  0
   -7.8013   -5.0200   13.1316 C   0  0  0  0  0  0
   -6.9885   -4.8028   11.8193 C   0  0  0  0  0  0
   -9.9651   -4.5626   11.8040 C   0  0  0  0  0  0
   -9.1437   -4.2444   13.0706 C   0  0  0  0  0  0
   -9.1387   -4.3730   10.5233 C   0  0  0  0  0  0
   -7.8602   -5.2316   10.6401 C   0  0  0  0  0  0
   -7.2841   -5.2061    9.2282 C   0  0  0  0  0  0
   -8.5292   -5.1975    8.3210 C   0  0  0  0  0  0
   -9.7432   -5.0052    9.2532 C   0  0  0  0  0  0
   -8.8864   -2.8588   10.3021 C   0  0  0  0  0  0
  -10.7474   -4.2043    8.6499 O   0  0  0  0  0  0
   -5.0762   -3.2618   17.6151 O   0  0  0  0  0  0
   -7.3569   -4.3338   17.8014 H   0  0  0  0  0  0
   -6.6277   -5.7899   17.1026 H   0  0  0  0  0  0
   -4.0971   -5.2388   15.7583 H   0  0  0  0  0  0
   -4.0863   -3.5255   15.2610 H   0  0  0  0  0  0
   -8.1241   -3.5328   15.6822 H   0  0  0  0  0  0
   -8.5266   -5.2538   15.7425 H   0  0  0  0  0  0
   -4.0196   -5.7196   13.2709 H   0  0  0  0  0  0
   -4.3426   -4.0751   12.7224 H   0  0  0  0  0  0
   -5.8580   -6.6330   12.0737 H   0  0  0  0  0  0
   -5.1007   -5.4827   10.9746 H   0  0  0  0  0  0
   -8.0659   -6.0869   13.1959 H   0  0  0  0  0  0
   -6.7395   -3.7386   11.7178 H   0  0  0  0  0  0
  -10.8645   -3.9357   11.7811 H   0  0  0  0  0  0
  -10.3152   -5.6010   11.8715 H   0  0  0  0  0  0
   -8.9535   -3.1665   13.1349 H   0  0  0  0  0  0
   -9.7666   -4.4964   13.9368 H   0  0  0  0  0  0
   -8.1562   -6.2778   10.8264 H   0  0  0  0  0  0
   -6.6514   -6.0767    9.0273 H   0  0  0  0  0  0
   -6.6788   -4.3092    9.0561 H   0  0  0  0  0  0
   -8.6213   -6.1441    7.7768 H   0  0  0  0  0  0
   -8.4573   -4.4039    7.5689 H   0  0  0  0  0  0
  -10.1868   -5.9820    9.4842 H   0  0  0  0  0  0
   -8.3224   -2.6573    9.3860 H   0  0  0  0  0  0
   -8.3338   -2.3961   11.1238 H   0  0  0  0  0  0
   -9.8369   -2.3190   10.2184 H   0  0  0  0  0  0
  -11.0035   -4.6633    7.8222 H   0  0  0  0  0  0
  1  2  1  0  0  0
  1  4  1  0  0  0
  1 21  1  0  0  0
  1 22  1  0  0  0
  2  3  1  0  0  0
  2 20  2  0  0  0
  3  6  1  0  0  0
  3 23  1  0  0  0
  3 24  1  0  0  0
  4  5  1  0  0  0
  4 25  1  0  0  0
  4 26  1  0  0  0
  5  6  2  0  0  0
  5  9  1  0  0  0
  6  7  1  0  0  0
  7  8  1  0  0  0
  7 27  1  0  0  0
  7 28  1  0  0  0
  8 10  1  0  0  0
  8 29  1  0  0  0
  8 30  1  0  0  0
  9 10  1  0  0  0
  9 12  1  0  0  0
  9 31  1  0  0  0
 10 14  1  0  0  0
 10 32  1  0  0  0
 11 12  1  0  0  0
 11 13  1  0  0  0
 11 33  1  0  0  0
 11 34  1  0  0  0
 12 35  1  0  0  0
 12 36  1  0  0  0
 13 14  1  0  0  0
 13 17  1  0  0  0
 13 18  1  0  0  0
 14 15  1  0  0  0
 14 37  1  0  0  0
 15 16  1  0  0  0
 15 38  1  0  0  0
 15 39  1  0  0  0
 16 17  1  0  0  0
 16 40  1  0  0  0
 16 41  1  0  0  0
 17 19  1  0  0  0
 17 42  1  0  0  0
 18 43  1  0  0  0
 18 44  1  0  0  0
 18 45  1  0  0  0
 19 46  1  0  0  0
M  END
>  <Name>
lit-146

>  <Family>
A.2

>  <RBA>
<1

>  <RBA_avg>
0.000000

>  <Method>
RUC

>  <set>
0

$$$$
lit-222
  Cerius2 12180216413D 1   1.00000                          
 Structure written by MMmdl.
 48 51  0  0  0  0  0  0  0  0999 V2000
   -6.7219   -4.1191   16.8562 C   0  0  0  0  0  0
   -5.5859   -5.1387   16.8233 C   0  0  0  0  0  0
   -4.9438   -5.2195   15.4726 C   0  0  0  0  0  0
   -7.6478   -4.3001   15.6602 C   0  0  0  0  0  0
   -6.9027   -4.1279   14.3164 C   0  0  0  0  0  0
   -5.5080   -4.7455   14.3449 C   0  0  0  0  0  0
   -4.7668   -4.7720   13.0313 C   0  0  0  0  0  0
   -5.6202   -5.3499   11.9065 C   0  0  0  0  0  0
   -7.7405   -4.7053   13.1374 C   0  0  0  0  0  0
   -6.9562   -4.6033   11.7946 C   0  0  0  0  0  0
   -9.9548   -4.5319   11.8139 C   0  0  0  0  0  0
   -9.1470   -4.0613   13.0369 C   0  0  0  0  0  0
   -9.1549   -4.3816   10.5128 C   0  0  0  0  0  0
   -7.8331   -5.1605   10.6715 C   0  0  0  0  0  0
   -7.2786   -5.2156    9.2506 C   0  0  0  0  0  0
   -8.5331   -5.3311    8.3650 C   0  0  0  0  0  0
   -9.7423   -5.1317    9.3001 C   0  0  0  0  0  0
  -10.7922   -4.4253    8.6575 O   0  0  0  0  0  0
   -4.6012   -4.7329   17.7730 O   0  0  0  0  0  0
   -8.9828   -2.8761   10.1860 C   0  0  0  0  0  0
   -6.3200   -3.0970   16.8681 H   0  0  0  0  0  0
   -7.2841   -4.2271   17.7917 H   0  0  0  0  0  0
   -5.9538   -6.1287   17.1158 H   0  0  0  0  0  0
   -3.9568   -5.6763   15.4314 H   0  0  0  0  0  0
   -8.4615   -3.5689   15.7300 H   0  0  0  0  0  0
   -8.1076   -5.2956   15.7146 H   0  0  0  0  0  0
   -6.7657   -3.0500   14.1478 H   0  0  0  0  0  0
   -3.8391   -5.3516   13.1083 H   0  0  0  0  0  0
   -4.4752   -3.7452   12.7764 H   0  0  0  0  0  0
   -5.7976   -6.4182   12.0854 H   0  0  0  0  0  0
   -5.0619   -5.2718   10.9665 H   0  0  0  0  0  0
   -7.9021   -5.7757   13.3400 H   0  0  0  0  0  0
   -6.7265   -3.5497   11.5928 H   0  0  0  0  0  0
  -10.8965   -3.9730   11.7564 H   0  0  0  0  0  0
  -10.2298   -5.5840   11.9646 H   0  0  0  0  0  0
   -9.0508   -2.9695   13.0205 H   0  0  0  0  0  0
   -9.7325   -4.3032   13.9314 H   0  0  0  0  0  0
   -8.0732   -6.2021   10.9439 H   0  0  0  0  0  0
   -6.6091   -6.0693    9.1045 H   0  0  0  0  0  0
   -6.7181   -4.3077    9.0023 H   0  0  0  0  0  0
   -8.5853   -6.3170    7.8895 H   0  0  0  0  0  0
   -8.5094   -4.5899    7.5581 H   0  0  0  0  0  0
  -10.1343   -6.1099    9.6063 H   0  0  0  0  0  0
  -11.0352   -4.9540    7.8683 H   0  0  0  0  0  0
   -3.9501   -5.4647   17.8113 H   0  0  0  0  0  0
   -8.4491   -2.7110    9.2448 H   0  0  0  0  0  0
   -8.4347   -2.3343   10.9610 H   0  0  0  0  0  0
   -9.9604   -2.3892   10.0903 H   0  0  0  0  0  0
  1  2  1  0  0  0
  1  4  1  0  0  0
  1 21  1  0  0  0
  1 22  1  0  0  0
  2  3  1  0  0  0
  2 19  1  0  0  0
  2 23  1  0  0  0
  3  6  2  0  0  0
  3 24  1  0  0  0
  4  5  1  0  0  0
  4 25  1  0  0  0
  4 26  1  0  0  0
  5  6  1  0  0  0
  5  9  1  0  0  0
  5 27  1  0  0  0
  6  7  1  0  0  0
  7  8  1  0  0  0
  7 28  1  0  0  0
  7 29  1  0  0  0
  8 10  1  0  0  0
  8 30  1  0  0  0
  8 31  1  0  0  0
  9 10  1  0  0  0
  9 12  1  0  0  0
  9 32  1  0  0  0
 10 14  1  0  0  0
 10 33  1  0  0  0
 11 12  1  0  0  0
 11 13  1  0  0  0
 11 34  1  0  0  0
 11 35  1  0  0  0
 12 36  1  0  0  0
 12 37  1  0  0  0
 13 14  1  0  0  0
 13 17  1  0  0  0
 13 20  1  0  0  0
 14 15  1  0  0  0
 14 38  1  0  0  0
 15 16  1  0  0  0
 15 39  1  0  0  0
 15 40  1  0  0  0
 16 17  1  0  0  0
 16 41  1  0  0  0
 16 42  1  0  0  0
 17 18  1  0  0  0
 17 43  1  0  0  0
 18 44  1  0  0  0
 19 45  1  0  0  0
 20 46  1  0  0  0
 20 47  1  0  0  0
 20 48  1  0  0  0
M  END
>  <Name>
lit-222

>  <Family>
A.2

>  <RBA>
5.000000

>  <RBA_avg>
5.000000

>  <Method>
RBC

>  <set>
2

$$$$
lit-223
  Cerius2 12180216413D 1   1.00000                          
 Structure written by MMmdl.
 49 52  0  0  0  0  0  0  0  0999 V2000
   -6.9486   -4.5090   14.3055 C   0  0  0  0  0  0
   -5.6673   -5.3409   14.3756 C   0  0  0  0  0  0
   -4.8229   -5.1599   13.1229 C   0  0  0  0  0  0
   -5.6408   -5.5380   11.8795 C   0  0  0  0  0  0
   -7.8062   -4.9623   13.1216 C   0  0  0  0  0  0
   -6.9781   -4.7729   11.8117 C   0  0  0  0  0  0
   -9.9769   -4.5978   11.8012 C   0  0  0  0  0  0
   -9.1722   -4.2489   13.0672 C   0  0  0  0  0  0
   -9.1490   -4.3807   10.5237 C   0  0  0  0  0  0
   -7.8512   -5.2113   10.6356 C   0  0  0  0  0  0
   -7.2776   -5.1715    9.2228 C   0  0  0  0  0  0
   -8.5230   -5.1830    8.3166 C   0  0  0  0  0  0
   -9.7398   -5.0186    9.2498 C   0  0  0  0  0  0
  -10.7595   -4.2344    8.6503 O   0  0  0  0  0  0
   -8.9260   -2.8609   10.3120 C   0  0  0  0  0  0
   -7.5162   -4.6987   15.7100 C   0  0  0  0  0  0
   -6.2683   -4.6802   16.6245 C   0  0  0  0  0  0
   -5.0488   -4.8792   15.6921 C   0  0  0  0  0  0
   -6.3650   -5.7704   17.5429 O   0  0  0  0  0  0
   -6.1670   -3.4244   17.3881 C   0  0  0  0  0  0
   -6.0829   -2.4010   18.0124 C   0  0  0  0  0  0
   -6.6964   -3.4457   14.1752 H   0  0  0  0  0  0
   -5.9221   -6.4072   14.4703 H   0  0  0  0  0  0
   -3.9238   -5.7839   13.1790 H   0  0  0  0  0  0
   -4.4874   -4.1192   13.0353 H   0  0  0  0  0  0
   -5.8333   -6.6184   11.8899 H   0  0  0  0  0  0
   -5.0423   -5.3298   10.9852 H   0  0  0  0  0  0
   -8.0139   -6.0366   13.2377 H   0  0  0  0  0  0
   -6.7255   -3.7106   11.7031 H   0  0  0  0  0  0
  -10.8968   -4.0018   11.7725 H   0  0  0  0  0  0
  -10.2911   -5.6475   11.8683 H   0  0  0  0  0  0
   -9.0284   -3.1640   13.1298 H   0  0  0  0  0  0
   -9.7685   -4.5279   13.9444 H   0  0  0  0  0  0
   -8.1266   -6.2631   10.8214 H   0  0  0  0  0  0
   -6.6287   -6.0295    9.0193 H   0  0  0  0  0  0
   -6.6894   -4.2630    9.0527 H   0  0  0  0  0  0
   -8.5968   -6.1284    7.7678 H   0  0  0  0  0  0
   -8.4669   -4.3844    7.5683 H   0  0  0  0  0  0
  -10.1644   -6.0050    9.4758 H   0  0  0  0  0  0
  -11.0068   -4.6947    7.8204 H   0  0  0  0  0  0
   -8.3739   -2.6430    9.3924 H   0  0  0  0  0  0
   -8.3730   -2.3956   11.1320 H   0  0  0  0  0  0
   -9.8868   -2.3377   10.2408 H   0  0  0  0  0  0
   -8.0408   -5.6598   15.7854 H   0  0  0  0  0  0
   -8.2394   -3.9120   15.9531 H   0  0  0  0  0  0
   -4.5036   -3.9396   15.5359 H   0  0  0  0  0  0
   -4.3400   -5.6222   16.0734 H   0  0  0  0  0  0
   -5.5505   -5.7351   18.0856 H   0  0  0  0  0  0
   -6.0085   -1.4921   18.5670 H   0  0  0  0  0  0
  1  2  1  0  0  0
  1  5  1  0  0  0
  1 16  1  0  0  0
  1 22  1  0  0  0
  2  3  1  0  0  0
  2 18  1  0  0  0
  2 23  1  0  0  0
  3  4  1  0  0  0
  3 24  1  0  0  0
  3 25  1  0  0  0
  4  6  1  0  0  0
  4 26  1  0  0  0
  4 27  1  0  0  0
  5  6  1  0  0  0
  5  8  1  0  0  0
  5 28  1  0  0  0
  6 10  1  0  0  0
  6 29  1  0  0  0
  7  8  1  0  0  0
  7  9  1  0  0  0
  7 30  1  0  0  0
  7 31  1  0  0  0
  8 32  1  0  0  0
  8 33  1  0  0  0
  9 10  1  0  0  0
  9 13  1  0  0  0
  9 15  1  0  0  0
 10 11  1  0  0  0
 10 34  1  0  0  0
 11 12  1  0  0  0
 11 35  1  0  0  0
 11 36  1  0  0  0
 12 13  1  0  0  0
 12 37  1  0  0  0
 12 38  1  0  0  0
 13 14  1  0  0  0
 13 39  1  0  0  0
 14 40  1  0  0  0
 15 41  1  0  0  0
 15 42  1  0  0  0
 15 43  1  0  0  0
 16 17  1  0  0  0
 16 44  1  0  0  0
 16 45  1  0  0  0
 17 18  1  0  0  0
 17 19  1  0  0  0
 17 20  1  0  0  0
 18 46  1  0  0  0
 18 47  1  0  0  0
 19 48  1  0  0  0
 20 21  3  0  0  0
 21 49  1  0  0  0
M  END
>  <Name>
lit-223

>  <Family>
A.2

>  <RBA>
0.100000

>  <RBA_avg>
0.100000

>  <Method>
MUC

>  <set>
2

$$$$
lit-224
  Cerius2 12180216413D 1   1.00000                          
 Structure written by MMmdl.
 49 52  0  0  0  0  0  0  0  0999 V2000
   -6.9487   -4.5113   14.3062 C   0  0  0  0  0  0
   -5.6674   -5.3433   14.3750 C   0  0  0  0  0  0
   -4.8230   -5.1597   13.1228 C   0  0  0  0  0  0
   -5.6406   -5.5375   11.8792 C   0  0  0  0  0  0
   -7.8064   -4.9629   13.1215 C   0  0  0  0  0  0
   -6.9783   -4.7731   11.8118 C   0  0  0  0  0  0
   -9.9769   -4.5975   11.8013 C   0  0  0  0  0  0
   -9.1721   -4.2488   13.0673 C   0  0  0  0  0  0
   -9.1491   -4.3807   10.5237 C   0  0  0  0  0  0
   -7.8513   -5.2115   10.6356 C   0  0  0  0  0  0
   -7.2775   -5.1716    9.2229 C   0  0  0  0  0  0
   -8.5229   -5.1831    8.3167 C   0  0  0  0  0  0
   -9.7399   -5.0186    9.2498 C   0  0  0  0  0  0
  -10.7594   -4.2342    8.6503 O   0  0  0  0  0  0
   -8.9259   -2.8610   10.3119 C   0  0  0  0  0  0
   -7.5204   -4.6956   15.7118 C   0  0  0  0  0  0
   -6.2717   -4.7011   16.6263 C   0  0  0  0  0  0
   -5.0530   -4.8762   15.6896 C   0  0  0  0  0  0
   -6.1773   -3.4419   17.2947 O   0  0  0  0  0  0
   -6.3546   -5.7690   17.6375 C   0  0  0  0  0  0
   -6.4203   -6.6390   18.4638 C   0  0  0  0  0  0
   -6.6954   -3.4482   14.1762 H   0  0  0  0  0  0
   -5.9206   -6.4099   14.4693 H   0  0  0  0  0  0
   -3.9232   -5.7826   13.1784 H   0  0  0  0  0  0
   -4.4887   -4.1185   13.0365 H   0  0  0  0  0  0
   -5.8323   -6.6180   11.8889 H   0  0  0  0  0  0
   -5.0420   -5.3284   10.9851 H   0  0  0  0  0  0
   -8.0147   -6.0372   13.2368 H   0  0  0  0  0  0
   -6.7260   -3.7107   11.7035 H   0  0  0  0  0  0
  -10.8966   -4.0012   11.7725 H   0  0  0  0  0  0
  -10.2915   -5.6471   11.8683 H   0  0  0  0  0  0
   -9.0276   -3.1641   13.1297 H   0  0  0  0  0  0
   -9.7685   -4.5273   13.9445 H   0  0  0  0  0  0
   -8.1267   -6.2633   10.8213 H   0  0  0  0  0  0
   -6.6286   -6.0295    9.0194 H   0  0  0  0  0  0
   -6.6895   -4.2630    9.0528 H   0  0  0  0  0  0
   -8.5969   -6.1286    7.7679 H   0  0  0  0  0  0
   -8.4668   -4.3846    7.5683 H   0  0  0  0  0  0
  -10.1647   -6.0049    9.4759 H   0  0  0  0  0  0
  -11.0069   -4.6945    7.8205 H   0  0  0  0  0  0
   -8.3739   -2.6433    9.3922 H   0  0  0  0  0  0
   -8.3726   -2.3957   11.1317 H   0  0  0  0  0  0
   -9.8865   -2.3376   10.2409 H   0  0  0  0  0  0
   -8.0647   -5.6473   15.7660 H   0  0  0  0  0  0
   -8.2196   -3.8904   15.9622 H   0  0  0  0  0  0
   -4.5272   -3.9229   15.5520 H   0  0  0  0  0  0
   -4.3216   -5.6027   16.0613 H   0  0  0  0  0  0
   -5.3566   -3.4849   17.8278 H   0  0  0  0  0  0
   -6.4789   -7.4116   19.1978 H   0  0  0  0  0  0
  1  2  1  0  0  0
  1  5  1  0  0  0
  1 16  1  0  0  0
  1 22  1  0  0  0
  2  3  1  0  0  0
  2 18  1  0  0  0
  2 23  1  0  0  0
  3  4  1  0  0  0
  3 24  1  0  0  0
  3 25  1  0  0  0
  4  6  1  0  0  0
  4 26  1  0  0  0
  4 27  1  0  0  0
  5  6  1  0  0  0
  5  8  1  0  0  0
  5 28  1  0  0  0
  6 10  1  0  0  0
  6 29  1  0  0  0
  7  8  1  0  0  0
  7  9  1  0  0  0
  7 30  1  0  0  0
  7 31  1  0  0  0
  8 32  1  0  0  0
  8 33  1  0  0  0
  9 10  1  0  0  0
  9 13  1  0  0  0
  9 15  1  0  0  0
 10 11  1  0  0  0
 10 34  1  0  0  0
 11 12  1  0  0  0
 11 35  1  0  0  0
 11 36  1  0  0  0
 12 13  1  0  0  0
 12 37  1  0  0  0
 12 38  1  0  0  0
 13 14  1  0  0  0
 13 39  1  0  0  0
 14 40  1  0  0  0
 15 41  1  0  0  0
 15 42  1  0  0  0
 15 43  1  0  0  0
 16 17  1  0  0  0
 16 44  1  0  0  0
 16 45  1  0  0  0
 17 18  1  0  0  0
 17 19  1  0  0  0
 17 20  1  0  0  0
 18 46  1  0  0  0
 18 47  1  0  0  0
 19 48  1  0  0  0
 20 21  3  0  0  0
 21 49  1  0  0  0
M  END
>  <Name>
lit-224

>  <Family>
A.2

>  <RBA>
12.000000

>  <RBA_avg>
12.000000

>  <Method>
MUC

>  <set>
0

$$$$
lit-225
  Cerius2 12180216413D 1   1.00000                          
 Structure written by MMmdl.
 52 55  0  0  0  0  0  0  0  0999 V2000
   -6.9494   -4.5613   14.3694 C   0  0  0  0  0  0
   -5.7075   -5.4782   14.3511 C   0  0  0  0  0  0
   -4.8206   -5.2411   13.1403 C   0  0  0  0  0  0
   -5.6288   -5.5113   11.8613 C   0  0  0  0  0  0
   -7.8030   -4.9344   13.1273 C   0  0  0  0  0  0
   -6.9711   -4.7482   11.8115 C   0  0  0  0  0  0
   -9.9781   -4.6078   11.8008 C   0  0  0  0  0  0
   -9.1798   -4.2348   13.0646 C   0  0  0  0  0  0
   -9.1529   -4.3820   10.5232 C   0  0  0  0  0  0
   -7.8456   -5.1966   10.6364 C   0  0  0  0  0  0
   -7.2738   -5.1540    9.2226 C   0  0  0  0  0  0
   -8.5195   -5.1829    8.3176 C   0  0  0  0  0  0
   -9.7373   -5.0294    9.2511 C   0  0  0  0  0  0
  -10.7657   -4.2574    8.6503 O   0  0  0  0  0  0
   -8.9468   -2.8603   10.3078 C   0  0  0  0  0  0
   -6.6140   -3.0483   14.3997 C   0  0  0  0  0  0
   -7.5556   -4.9614   15.7336 C   0  0  0  0  0  0
   -6.3347   -5.2219   16.6604 C   0  0  0  0  0  0
   -5.0960   -5.3029   15.7352 C   0  0  0  0  0  0
   -6.1858   -4.1294   17.5674 O   0  0  0  0  0  0
   -6.5199   -6.4571   17.4435 C   0  0  0  0  0  0
   -6.6687   -7.4632   18.0837 C   0  0  0  0  0  0
   -6.0419   -6.5273   14.2941 H   0  0  0  0  0  0
   -3.9544   -5.9121   13.1708 H   0  0  0  0  0  0
   -4.4264   -4.2194   13.1286 H   0  0  0  0  0  0
   -5.8226   -6.5896   11.7907 H   0  0  0  0  0  0
   -5.0158   -5.2466   10.9918 H   0  0  0  0  0  0
   -8.0278   -6.0103   13.2040 H   0  0  0  0  0  0
   -6.7257   -3.6893   11.6801 H   0  0  0  0  0  0
  -10.9084   -4.0283   11.7677 H   0  0  0  0  0  0
  -10.2737   -5.6625   11.8743 H   0  0  0  0  0  0
   -9.0627   -3.1477   13.1038 H   0  0  0  0  0  0
   -9.7727   -4.5108   13.9448 H   0  0  0  0  0  0
   -8.1097   -6.2511   10.8240 H   0  0  0  0  0  0
   -6.6147   -6.0045    9.0207 H   0  0  0  0  0  0
   -6.6969   -4.2389    9.0494 H   0  0  0  0  0  0
   -8.5829   -6.1314    7.7723 H   0  0  0  0  0  0
   -8.4732   -4.3867    7.5661 H   0  0  0  0  0  0
  -10.1514   -6.0196    9.4798 H   0  0  0  0  0  0
  -11.0084   -4.7220    7.8217 H   0  0  0  0  0  0
   -8.4044   -2.6384    9.3833 H   0  0  0  0  0  0
   -8.3912   -2.3881   11.1220 H   0  0  0  0  0  0
   -9.9132   -2.3469   10.2433 H   0  0  0  0  0  0
   -7.5206   -2.4485   14.5318 H   0  0  0  0  0  0
   -6.1238   -2.7036   13.4862 H   0  0  0  0  0  0
   -5.9504   -2.7819   15.2276 H   0  0  0  0  0  0
   -8.1537   -5.8745   15.6119 H   0  0  0  0  0  0
   -8.2204   -4.1855   16.1305 H   0  0  0  0  0  0
   -4.4882   -4.3924   15.7907 H   0  0  0  0  0  0
   -4.4353   -6.1433   15.9776 H   0  0  0  0  0  0
   -5.3845   -4.3272   18.0946 H   0  0  0  0  0  0
   -6.8011   -8.3566   18.6525 H   0  0  0  0  0  0
  1  2  1  0  0  0
  1  5  1  0  0  0
  1 16  1  0  0  0
  1 17  1  0  0  0
  2  3  1  0  0  0
  2 19  1  0  0  0
  2 23  1  0  0  0
  3  4  1  0  0  0
  3 24  1  0  0  0
  3 25  1  0  0  0
  4  6  1  0  0  0
  4 26  1  0  0  0
  4 27  1  0  0  0
  5  6  1  0  0  0
  5  8  1  0  0  0
  5 28  1  0  0  0
  6 10  1  0  0  0
  6 29  1  0  0  0
  7  8  1  0  0  0
  7  9  1  0  0  0
  7 30  1  0  0  0
  7 31  1  0  0  0
  8 32  1  0  0  0
  8 33  1  0  0  0
  9 10  1  0  0  0
  9 13  1  0  0  0
  9 15  1  0  0  0
 10 11  1  0  0  0
 10 34  1  0  0  0
 11 12  1  0  0  0
 11 35  1  0  0  0
 11 36  1  0  0  0
 12 13  1  0  0  0
 12 37  1  0  0  0
 12 38  1  0  0  0
 13 14  1  0  0  0
 13 39  1  0  0  0
 14 40  1  0  0  0
 15 41  1  0  0  0
 15 42  1  0  0  0
 15 43  1  0  0  0
 16 44  1  0  0  0
 16 45  1  0  0  0
 16 46  1  0  0  0
 17 18  1  0  0  0
 17 47  1  0  0  0
 17 48  1  0  0  0
 18 19  1  0  0  0
 18 20  1  0  0  0
 18 21  1  0  0  0
 19 49  1  0  0  0
 19 50  1  0  0  0
 20 51  1  0  0  0
 21 22  3  0  0  0
 22 52  1  0  0  0
M  END
>  <Name>
lit-225

>  <Family>
A.2

>  <RBA>
6.000000

>  <RBA_avg>
6.000000

>  <Method>
MUC

>  <set>
2

$$$$
lit-226
  Cerius2 12180216413D 1   1.00000                          
 Structure written by MMmdl.
 40 43  0  0  0  0  0  0  0  0999 V2000
   -7.0535   -4.6799   14.3684 C   0  0  0  0  0  0
   -5.6698   -4.7209   14.3373 C   0  0  0  0  0  0
   -4.8303   -5.0126   13.1271 C   0  0  0  0  0  0
   -5.6869   -5.5618   11.9724 C   0  0  0  0  0  0
   -7.8762   -5.0059   13.1406 C   0  0  0  0  0  0
   -7.0172   -4.7910   11.8488 C   0  0  0  0  0  0
  -10.0081   -4.5917   11.7709 C   0  0  0  0  0  0
   -9.2275   -4.2655   13.0598 C   0  0  0  0  0  0
   -9.1495   -4.3807   10.5127 C   0  0  0  0  0  0
   -7.8614   -5.2238   10.6511 C   0  0  0  0  0  0
   -7.2553   -5.1821    9.2522 C   0  0  0  0  0  0
   -8.4798   -5.1794    8.3177 C   0  0  0  0  0  0
   -9.7165   -5.0091    9.2234 C   0  0  0  0  0  0
  -10.7161   -4.2145    8.6042 O   0  0  0  0  0  0
   -8.9096   -2.8620   10.3112 C   0  0  0  0  0  0
   -7.5263   -4.3633   15.6802 C   0  0  0  0  0  0
   -6.4966   -4.1551   16.5726 C   0  0  0  0  0  0
   -4.9638   -4.3535   15.8423 S   0  0  0  0  0  0
   -4.0375   -5.7310   13.3645 H   0  0  0  0  0  0
   -4.3472   -4.0822   12.8029 H   0  0  0  0  0  0
   -5.8945   -6.6262   12.1443 H   0  0  0  0  0  0
   -5.1090   -5.4966   11.0437 H   0  0  0  0  0  0
   -8.1070   -6.0801   13.2149 H   0  0  0  0  0  0
   -6.7611   -3.7279   11.7526 H   0  0  0  0  0  0
  -10.9176   -3.9809   11.7260 H   0  0  0  0  0  0
  -10.3408   -5.6366   11.8233 H   0  0  0  0  0  0
   -9.0676   -3.1835   13.1385 H   0  0  0  0  0  0
   -9.8552   -4.5398   13.9167 H   0  0  0  0  0  0
   -8.1480   -6.2744   10.8261 H   0  0  0  0  0  0
   -6.6093   -6.0445    9.0591 H   0  0  0  0  0  0
   -6.6558   -4.2778    9.0999 H   0  0  0  0  0  0
   -8.5487   -6.1220    7.7631 H   0  0  0  0  0  0
   -8.4001   -4.3783    7.5742 H   0  0  0  0  0  0
  -10.1538   -5.9930    9.4360 H   0  0  0  0  0  0
  -10.9474   -4.6689    7.7667 H   0  0  0  0  0  0
   -8.3283   -2.6457    9.4095 H   0  0  0  0  0  0
   -8.3796   -2.4019   11.1491 H   0  0  0  0  0  0
   -9.8641   -2.3319   10.2122 H   0  0  0  0  0  0
   -8.5703   -4.2913   15.9655 H   0  0  0  0  0  0
   -6.5742   -3.8996   17.6220 H   0  0  0  0  0  0
  1  2  2  0  0  0
  1  5  1  0  0  0
  1 16  1  0  0  0
  2  3  1  0  0  0
  2 18  1  0  0  0
  3  4  1  0  0  0
  3 19  1  0  0  0
  3 20  1  0  0  0
  4  6  1  0  0  0
  4 21  1  0  0  0
  4 22  1  0  0  0
  5  6  1  0  0  0
  5  8  1  0  0  0
  5 23  1  0  0  0
  6 10  1  0  0  0
  6 24  1  0  0  0
  7  8  1  0  0  0
  7  9  1  0  0  0
  7 25  1  0  0  0
  7 26  1  0  0  0
  8 27  1  0  0  0
  8 28  1  0  0  0
  9 10  1  0  0  0
  9 13  1  0  0  0
  9 15  1  0  0  0
 10 11  1  0  0  0
 10 29  1  0  0  0
 11 12  1  0  0  0
 11 30  1  0  0  0
 11 31  1  0  0  0
 12 13  1  0  0  0
 12 32  1  0  0  0
 12 33  1  0  0  0
 13 14  1  0  0  0
 13 34  1  0  0  0
 14 35  1  0  0  0
 15 36  1  0  0  0
 15 37  1  0  0  0
 15 38  1  0  0  0
 16 17  2  0  0  0
 16 39  1  0  0  0
 17 18  1  0  0  0
 17 40  1  0  0  0
M  END
>  <Name>
lit-226

>  <Family>
A.2

>  <RBA>
2.400000

>  <RBA_avg>
2.400000

>  <Method>
RBC

>  <set>
2

$$$$
lit-227
  Cerius2 12180216413D 1   1.00000                          
 Structure written by MMmdl.
 40 43  0  0  0  0  0  0  0  0999 V2000
   -6.8489   -4.6801   14.3107 C   0  0  0  0  0  0
   -5.4647   -4.7237   14.2534 C   0  0  0  0  0  0
   -4.7126   -5.0252   12.9875 C   0  0  0  0  0  0
   -5.6228   -5.5896   11.8829 C   0  0  0  0  0  0
   -7.7548   -4.9970   13.1395 C   0  0  0  0  0  0
   -6.9485   -4.8064   11.8103 C   0  0  0  0  0  0
   -9.9319   -4.5445   11.8582 C   0  0  0  0  0  0
   -9.0880   -4.2209   13.1083 C   0  0  0  0  0  0
   -9.1258   -4.3696   10.5606 C   0  0  0  0  0  0
   -7.8501   -5.2375   10.6547 C   0  0  0  0  0  0
   -7.3048   -5.2258    9.2306 C   0  0  0  0  0  0
   -8.5687   -5.2107    8.3501 C   0  0  0  0  0  0
   -9.7612   -5.0037    9.3064 C   0  0  0  0  0  0
  -10.7714   -4.1979    8.7203 O   0  0  0  0  0  0
   -8.8651   -2.8589   10.3261 C   0  0  0  0  0  0
   -7.4146   -4.3390   15.8826 S   0  0  0  0  0  0
   -5.8248   -4.1938   16.4919 C   0  0  0  0  0  0
   -4.8767   -4.4270   15.5207 C   0  0  0  0  0  0
   -3.9018   -5.7345   13.1897 H   0  0  0  0  0  0
   -4.2511   -4.0951   12.6326 H   0  0  0  0  0  0
   -5.8311   -6.6488   12.0825 H   0  0  0  0  0  0
   -5.0874   -5.5437   10.9280 H   0  0  0  0  0  0
   -8.0056   -6.0651   13.2320 H   0  0  0  0  0  0
   -6.6839   -3.7476   11.6922 H   0  0  0  0  0  0
  -10.8283   -3.9131   11.8452 H   0  0  0  0  0  0
  -10.2859   -5.5805   11.9393 H   0  0  0  0  0  0
   -8.8975   -3.1423   13.1632 H   0  0  0  0  0  0
   -9.6897   -4.4678   13.9916 H   0  0  0  0  0  0
   -8.1495   -6.2798   10.8558 H   0  0  0  0  0  0
   -6.6847   -6.1034    9.0216 H   0  0  0  0  0  0
   -6.6949   -4.3358    9.0401 H   0  0  0  0  0  0
   -8.6803   -6.1588    7.8121 H   0  0  0  0  0  0
   -8.5060   -4.4210    7.5930 H   0  0  0  0  0  0
  -10.2075   -5.9758    9.5519 H   0  0  0  0  0  0
  -11.0481   -4.6588    7.9001 H   0  0  0  0  0  0
   -8.3182   -2.6672    9.3976 H   0  0  0  0  0  0
   -8.2916   -2.3973   11.1341 H   0  0  0  0  0  0
   -9.8124   -2.3112   10.2591 H   0  0  0  0  0  0
   -5.6574   -3.9523   17.5340 H   0  0  0  0  0  0
   -3.8096   -4.3894   15.7135 H   0  0  0  0  0  0
  1  2  2  0  0  0
  1  5  1  0  0  0
  1 16  1  0  0  0
  2  3  1  0  0  0
  2 18  1  0  0  0
  3  4  1  0  0  0
  3 19  1  0  0  0
  3 20  1  0  0  0
  4  6  1  0  0  0
  4 21  1  0  0  0
  4 22  1  0  0  0
  5  6  1  0  0  0
  5  8  1  0  0  0
  5 23  1  0  0  0
  6 10  1  0  0  0
  6 24  1  0  0  0
  7  8  1  0  0  0
  7  9  1  0  0  0
  7 25  1  0  0  0
  7 26  1  0  0  0
  8 27  1  0  0  0
  8 28  1  0  0  0
  9 10  1  0  0  0
  9 13  1  0  0  0
  9 15  1  0  0  0
 10 11  1  0  0  0
 10 29  1  0  0  0
 11 12  1  0  0  0
 11 30  1  0  0  0
 11 31  1  0  0  0
 12 13  1  0  0  0
 12 32  1  0  0  0
 12 33  1  0  0  0
 13 14  1  0  0  0
 13 34  1  0  0  0
 14 35  1  0  0  0
 15 36  1  0  0  0
 15 37  1  0  0  0
 15 38  1  0  0  0
 16 17  1  0  0  0
 17 18  2  0  0  0
 17 39  1  0  0  0
 18 40  1  0  0  0
M  END
>  <Name>
lit-227

>  <Family>
A.2

>  <RBA>
0.800000

>  <RBA_avg>
0.800000

>  <Method>
RBC

>  <set>
0

$$$$
lit-267
  Cerius2 12180216413D 1   1.00000                          
 Structure written by MMmdl.
 42 43  0  0  0  0  0  0  0  0999 V2000
   -7.8549   -5.1782   10.9976 C   0  0  0  0  0  0
   -9.0287   -4.4684   11.2987 C   0  0  0  0  0  0
   -9.9480   -4.1748   10.2946 C   0  0  0  0  0  0
   -9.7249   -4.5746    8.9820 C   0  0  0  0  0  0
   -8.5630   -5.2792    8.6705 C   0  0  0  0  0  0
   -7.6338   -5.5794    9.6696 C   0  0  0  0  0  0
   -6.8233   -5.5181   12.0742 C   0  0  0  0  0  0
   -7.4962   -5.7963   13.4691 C   0  0  0  0  0  0
   -6.7185   -5.1539   14.6185 C   0  0  0  0  0  0
   -5.3241   -4.9945   14.5673 C   0  0  0  0  0  0
   -4.6458   -4.4057   15.6315 C   0  0  0  0  0  0
   -5.3292   -3.9665   16.7595 C   0  0  0  0  0  0
   -6.7134   -4.1199   16.8226 C   0  0  0  0  0  0
   -7.4044   -4.7092   15.7610 C   0  0  0  0  0  0
   -5.7459   -4.4021   12.1587 C   0  0  0  0  0  0
   -4.9762   -4.1994   10.8568 C   0  0  0  0  0  0
   -7.6881   -7.3153   13.7318 C   0  0  0  0  0  0
   -8.4620   -7.6186   15.0113 C   0  0  0  0  0  0
  -11.0723   -3.4832   10.6398 O   0  0  0  0  0  0
   -3.2914   -4.2742   15.5316 O   0  0  0  0  0  0
   -9.2317   -4.1407   12.3161 H   0  0  0  0  0  0
  -10.4392   -4.3482    8.1941 H   0  0  0  0  0  0
   -8.3786   -5.5966    7.6455 H   0  0  0  0  0  0
   -6.7332   -6.1309    9.4016 H   0  0  0  0  0  0
   -6.3057   -6.4373   11.7658 H   0  0  0  0  0  0
   -8.4994   -5.3477   13.4494 H   0  0  0  0  0  0
   -4.7604   -5.3290   13.6989 H   0  0  0  0  0  0
   -4.8047   -3.5061   17.5933 H   0  0  0  0  0  0
   -7.2581   -3.7796   17.7017 H   0  0  0  0  0  0
   -8.4861   -4.8182   15.8336 H   0  0  0  0  0  0
   -5.0072   -4.6531   12.9277 H   0  0  0  0  0  0
   -6.1970   -3.4493   12.4609 H   0  0  0  0  0  0
   -4.1711   -3.4730   11.0085 H   0  0  0  0  0  0
   -5.6196   -3.8153   10.0599 H   0  0  0  0  0  0
   -4.5250   -5.1375   10.5184 H   0  0  0  0  0  0
   -6.7196   -7.8284   13.7681 H   0  0  0  0  0  0
   -8.2487   -7.7695   12.9074 H   0  0  0  0  0  0
   -8.6482   -8.6947   15.0889 H   0  0  0  0  0  0
   -9.4301   -7.1076   15.0141 H   0  0  0  0  0  0
   -7.9064   -7.3161   15.9038 H   0  0  0  0  0  0
  -11.6151   -3.3542    9.8329 H   0  0  0  0  0  0
   -2.9617   -3.8471   16.3510 H   0  0  0  0  0  0
  1  2  2  0  0  0
  1  6  1  0  0  0
  1  7  1  0  0  0
  2  3  1  0  0  0
  2 21  1  0  0  0
  3  4  2  0  0  0
  3 19  1  0  0  0
  4  5  1  0  0  0
  4 22  1  0  0  0
  5  6  2  0  0  0
  5 23  1  0  0  0
  6 24  1  0  0  0
  7  8  1  0  0  0
  7 15  1  0  0  0
  7 25  1  0  0  0
  8  9  1  0  0  0
  8 17  1  0  0  0
  8 26  1  0  0  0
  9 10  2  0  0  0
  9 14  1  0  0  0
 10 11  1  0  0  0
 10 27  1  0  0  0
 11 12  2  0  0  0
 11 20  1  0  0  0
 12 13  1  0  0  0
 12 28  1  0  0  0
 13 14  2  0  0  0
 13 29  1  0  0  0
 14 30  1  0  0  0
 15 16  1  0  0  0
 15 31  1  0  0  0
 15 32  1  0  0  0
 16 33  1  0  0  0
 16 34  1  0  0  0
 16 35  1  0  0  0
 17 18  1  0  0  0
 17 36  1  0  0  0
 17 37  1  0  0  0
 18 38  1  0  0  0
 18 39  1  0  0  0
 18 40  1  0  0  0
 19 41  1  0  0  0
 20 42  1  0  0  0
M  END
>  <Name>
lit-267

>  <Family>
B.1

>  <RBA>
10.000000

>  <RBA_avg>
10.000000

>  <Method>
CUC

>  <set>
0

$$$$
lit-268
  Cerius2 12180216413D 1   1.00000                          
 Structure written by MMmdl.
 42 43  0  0  0  0  0  0  0  0999 V2000
   -7.8178   -5.2018   10.9742 C   0  0  0  0  0  0
   -8.9929   -4.4899   11.2957 C   0  0  0  0  0  0
   -9.9338   -4.1807   10.3164 C   0  0  0  0  0  0
   -9.7404   -4.5655    8.9979 C   0  0  0  0  0  0
   -8.5868   -5.2717    8.6579 C   0  0  0  0  0  0
   -7.6319   -5.5897    9.6327 C   0  0  0  0  0  0
   -6.8059   -5.5240   12.0810 C   0  0  0  0  0  0
   -7.5145   -5.8038   13.4606 C   0  0  0  0  0  0
   -6.7650   -5.1523   14.6296 C   0  0  0  0  0  0
   -5.3643   -4.9991   14.5551 C   0  0  0  0  0  0
   -4.6515   -4.4113   15.5975 C   0  0  0  0  0  0
   -5.3006   -3.9599   16.7372 C   0  0  0  0  0  0
   -6.6851   -4.0996   16.8313 C   0  0  0  0  0  0
   -7.4150   -4.6888   15.7903 C   0  0  0  0  0  0
   -5.7436   -4.3936   12.1899 C   0  0  0  0  0  0
   -4.9641   -4.1691   10.8976 C   0  0  0  0  0  0
   -7.7059   -7.3250   13.7201 C   0  0  0  0  0  0
   -8.4617   -7.6283   15.0104 C   0  0  0  0  0  0
  -11.0469   -3.4902   10.6950 O   0  0  0  0  0  0
   -3.2997   -4.2946   15.4611 O   0  0  0  0  0  0
   -6.2435   -6.4739    9.1025 Cl  0  0  0  0  0  0
   -9.1265   -4.8048   16.0089 Cl  0  0  0  0  0  0
   -9.1823   -4.1702   12.3190 H   0  0  0  0  0  0
  -10.4690   -4.3291    8.2264 H   0  0  0  0  0  0
   -8.4385   -5.5739    7.6228 H   0  0  0  0  0  0
   -6.2514   -6.4296   11.8152 H   0  0  0  0  0  0
   -8.5229   -5.3833   13.3946 H   0  0  0  0  0  0
   -4.8174   -5.3398   13.6777 H   0  0  0  0  0  0
   -4.7531   -3.4999   17.5559 H   0  0  0  0  0  0
   -7.1922   -3.7431   17.7259 H   0  0  0  0  0  0
   -5.0096   -4.6451   12.9633 H   0  0  0  0  0  0
   -6.2063   -3.4492   12.4996 H   0  0  0  0  0  0
   -4.1713   -3.4322   11.0632 H   0  0  0  0  0  0
   -5.6047   -3.7885   10.0969 H   0  0  0  0  0  0
   -4.4953   -5.0976   10.5566 H   0  0  0  0  0  0
   -6.7406   -7.8443   13.7380 H   0  0  0  0  0  0
   -8.2814   -7.7731   12.9026 H   0  0  0  0  0  0
   -8.6481   -8.7043   15.0896 H   0  0  0  0  0  0
   -9.4293   -7.1166   15.0271 H   0  0  0  0  0  0
   -7.8936   -7.3269   15.8951 H   0  0  0  0  0  0
  -11.6084   -3.3486    9.9031 H   0  0  0  0  0  0
   -2.9425   -3.8664   16.2683 H   0  0  0  0  0  0
  1  2  2  0  0  0
  1  6  1  0  0  0
  1  7  1  0  0  0
  2  3  1  0  0  0
  2 23  1  0  0  0
  3  4  2  0  0  0
  3 19  1  0  0  0
  4  5  1  0  0  0
  4 24  1  0  0  0
  5  6  2  0  0  0
  5 25  1  0  0  0
  6 21  1  0  0  0
  7  8  1  0  0  0
  7 15  1  0  0  0
  7 26  1  0  0  0
  8  9  1  0  0  0
  8 17  1  0  0  0
  8 27  1  0  0  0
  9 10  2  0  0  0
  9 14  1  0  0  0
 10 11  1  0  0  0
 10 28  1  0  0  0
 11 12  2  0  0  0
 11 20  1  0  0  0
 12 13  1  0  0  0
 12 29  1  0  0  0
 13 14  2  0  0  0
 13 30  1  0  0  0
 14 22  1  0  0  0
 15 16  1  0  0  0
 15 31  1  0  0  0
 15 32  1  0  0  0
 16 33  1  0  0  0
 16 34  1  0  0  0
 16 35  1  0  0  0
 17 18  1  0  0  0
 17 36  1  0  0  0
 17 37  1  0  0  0
 18 38  1  0  0  0
 18 39  1  0  0  0
 18 40  1  0  0  0
 19 41  1  0  0  0
 20 42  1  0  0  0
M  END
>  <Name>
lit-268

>  <Family>
B.1

>  <RBA>
4.200000

>  <RBA_avg>
4.200000

>  <Method>
CUC

>  <set>
1

$$$$
lit-269
  Cerius2 12180216413D 1   1.00000                          
 Structure written by MMmdl.
 42 43  0  0  0  0  0  0  0  0999 V2000
   -7.8514   -5.1791   11.0003 C   0  0  0  0  0  0
   -9.0264   -4.4695   11.3003 C   0  0  0  0  0  0
   -9.9462   -4.1762   10.2945 C   0  0  0  0  0  0
   -9.7244   -4.5756    8.9806 C   0  0  0  0  0  0
   -8.5623   -5.2802    8.6696 C   0  0  0  0  0  0
   -7.6412   -5.5749    9.6722 C   0  0  0  0  0  0
   -6.8218   -5.5185   12.0749 C   0  0  0  0  0  0
   -7.4975   -5.7970   13.4678 C   0  0  0  0  0  0
   -6.7211   -5.1560   14.6153 C   0  0  0  0  0  0
   -5.3262   -4.9954   14.5649 C   0  0  0  0  0  0
   -4.6479   -4.4055   15.6306 C   0  0  0  0  0  0
   -5.3305   -3.9655   16.7601 C   0  0  0  0  0  0
   -6.7147   -4.1192   16.8227 C   0  0  0  0  0  0
   -7.3955   -4.7083   15.7594 C   0  0  0  0  0  0
   -5.7454   -4.4016   12.1611 C   0  0  0  0  0  0
   -4.9762   -4.1984   10.8591 C   0  0  0  0  0  0
   -7.6899   -7.3160   13.7303 C   0  0  0  0  0  0
   -8.4621   -7.6173   15.0115 C   0  0  0  0  0  0
  -11.0701   -3.4852   10.6407 O   0  0  0  0  0  0
   -3.2941   -4.2739   15.5295 O   0  0  0  0  0  0
   -6.5338   -6.2554    9.3427 F   0  0  0  0  0  0
   -8.7269   -4.8407   15.8480 F   0  0  0  0  0  0
   -9.2310   -4.1413   12.3173 H   0  0  0  0  0  0
  -10.4389   -4.3493    8.1930 H   0  0  0  0  0  0
   -8.3704   -5.6013    7.6495 H   0  0  0  0  0  0
   -6.2996   -6.4361   11.7716 H   0  0  0  0  0  0
   -8.5016   -5.3522   13.4426 H   0  0  0  0  0  0
   -4.7610   -5.3289   13.6969 H   0  0  0  0  0  0
   -4.8057   -3.5049   17.5935 H   0  0  0  0  0  0
   -7.2664   -3.7819   17.6959 H   0  0  0  0  0  0
   -5.0065   -4.6527   12.9299 H   0  0  0  0  0  0
   -6.1967   -3.4492   12.4642 H   0  0  0  0  0  0
   -4.1711   -3.4720   11.0108 H   0  0  0  0  0  0
   -5.6196   -3.8141   10.0623 H   0  0  0  0  0  0
   -4.5249   -5.1363   10.5202 H   0  0  0  0  0  0
   -6.7220   -7.8304   13.7648 H   0  0  0  0  0  0
   -8.2525   -7.7697   12.9072 H   0  0  0  0  0  0
   -8.6499   -8.6931   15.0898 H   0  0  0  0  0  0
   -9.4294   -7.1048   15.0155 H   0  0  0  0  0  0
   -7.9047   -7.3152   15.9029 H   0  0  0  0  0  0
  -11.6151   -3.3554    9.8353 H   0  0  0  0  0  0
   -2.9620   -3.8463   16.3478 H   0  0  0  0  0  0
  1  2  2  0  0  0
  1  6  1  0  0  0
  1  7  1  0  0  0
  2  3  1  0  0  0
  2 23  1  0  0  0
  3  4  2  0  0  0
  3 19  1  0  0  0
  4  5  1  0  0  0
  4 24  1  0  0  0
  5  6  2  0  0  0
  5 25  1  0  0  0
  6 21  1  0  0  0
  7  8  1  0  0  0
  7 15  1  0  0  0
  7 26  1  0  0  0
  8  9  1  0  0  0
  8 17  1  0  0  0
  8 27  1  0  0  0
  9 10  2  0  0  0
  9 14  1  0  0  0
 10 11  1  0  0  0
 10 28  1  0  0  0
 11 12  2  0  0  0
 11 20  1  0  0  0
 12 13  1  0  0  0
 12 29  1  0  0  0
 13 14  2  0  0  0
 13 30  1  0  0  0
 14 22  1  0  0  0
 15 16  1  0  0  0
 15 31  1  0  0  0
 15 32  1  0  0  0
 16 33  1  0  0  0
 16 34  1  0  0  0
 16 35  1  0  0  0
 17 18  1  0  0  0
 17 36  1  0  0  0
 17 37  1  0  0  0
 18 38  1  0  0  0
 18 39  1  0  0  0
 18 40  1  0  0  0
 19 41  1  0  0  0
 20 42  1  0  0  0
M  END
>  <Name>
lit-269

>  <Family>
B.1

>  <RBA>
6.900000

>  <RBA_avg>
6.900000

>  <Method>
CUC

>  <set>
0

$$$$
lit-270
  Cerius2 12180216413D 1   1.00000                          
 Structure written by MMmdl.
 42 43  0  0  0  0  0  0  0  0999 V2000
   -7.8574   -5.1768   10.9981 C   0  0  0  0  0  0
   -9.0318   -4.4659   11.3040 C   0  0  0  0  0  0
   -9.9498   -4.1727   10.3004 C   0  0  0  0  0  0
   -9.7130   -4.5793    8.9907 C   0  0  0  0  0  0
   -8.5603   -5.2817    8.6668 C   0  0  0  0  0  0
   -7.6334   -5.5801    9.6681 C   0  0  0  0  0  0
   -6.8241   -5.5166   12.0742 C   0  0  0  0  0  0
   -7.4958   -5.7949   13.4692 C   0  0  0  0  0  0
   -6.7164   -5.1525   14.6185 C   0  0  0  0  0  0
   -5.3198   -4.9952   14.5630 C   0  0  0  0  0  0
   -4.6422   -4.4076   15.6268 C   0  0  0  0  0  0
   -5.3395   -3.9730   16.7501 C   0  0  0  0  0  0
   -6.7179   -4.1191   16.8259 C   0  0  0  0  0  0
   -7.4059   -4.7079   15.7624 C   0  0  0  0  0  0
   -5.7473   -4.4003   12.1577 C   0  0  0  0  0  0
   -4.9766   -4.2001   10.8561 C   0  0  0  0  0  0
   -7.6874   -7.3139   13.7321 C   0  0  0  0  0  0
   -8.4619   -7.6165   15.0112 C   0  0  0  0  0  0
  -11.0799   -3.4801   10.6356 O   0  0  0  0  0  0
   -3.2849   -4.2714   15.5369 O   0  0  0  0  0  0
  -10.6058   -4.2903    8.0327 F   0  0  0  0  0  0
   -4.6746   -3.4085   17.7685 F   0  0  0  0  0  0
   -9.2334   -4.1385   12.3215 H   0  0  0  0  0  0
   -8.3845   -5.5943    7.6415 H   0  0  0  0  0  0
   -6.7319   -6.1315    9.4026 H   0  0  0  0  0  0
   -6.3064   -6.4356   11.7652 H   0  0  0  0  0  0
   -8.4990   -5.3463   13.4506 H   0  0  0  0  0  0
   -4.7576   -5.3298   13.6941 H   0  0  0  0  0  0
   -7.2529   -3.7770   17.7070 H   0  0  0  0  0  0
   -8.4877   -4.8178   15.8327 H   0  0  0  0  0  0
   -5.0093   -4.6493   12.9280 H   0  0  0  0  0  0
   -6.1989   -3.4469   12.4575 H   0  0  0  0  0  0
   -4.1717   -3.4734   11.0069 H   0  0  0  0  0  0
   -5.6194   -3.8177   10.0577 H   0  0  0  0  0  0
   -4.5251   -5.1390   10.5200 H   0  0  0  0  0  0
   -6.7187   -7.8266   13.7692 H   0  0  0  0  0  0
   -8.2472   -7.7684   12.9075 H   0  0  0  0  0  0
   -8.6481   -8.6927   15.0890 H   0  0  0  0  0  0
   -9.4301   -7.1057   15.0132 H   0  0  0  0  0  0
   -7.9069   -7.3137   15.9039 H   0  0  0  0  0  0
  -11.6044   -3.3639    9.8130 H   0  0  0  0  0  0
   -2.9799   -3.8436   16.3671 H   0  0  0  0  0  0
  1  2  2  0  0  0
  1  6  1  0  0  0
  1  7  1  0  0  0
  2  3  1  0  0  0
  2 23  1  0  0  0
  3  4  2  0  0  0
  3 19  1  0  0  0
  4  5  1  0  0  0
  4 21  1  0  0  0
  5  6  2  0  0  0
  5 24  1  0  0  0
  6 25  1  0  0  0
  7  8  1  0  0  0
  7 15  1  0  0  0
  7 26  1  0  0  0
  8  9  1  0  0  0
  8 17  1  0  0  0
  8 27  1  0  0  0
  9 10  2  0  0  0
  9 14  1  0  0  0
 10 11  1  0  0  0
 10 28  1  0  0  0
 11 12  2  0  0  0
 11 20  1  0  0  0
 12 13  1  0  0  0
 12 22  1  0  0  0
 13 14  2  0  0  0
 13 29  1  0  0  0
 14 30  1  0  0  0
 15 16  1  0  0  0
 15 31  1  0  0  0
 15 32  1  0  0  0
 16 33  1  0  0  0
 16 34  1  0  0  0
 16 35  1  0  0  0
 17 18  1  0  0  0
 17 36  1  0  0  0
 17 37  1  0  0  0
 18 38  1  0  0  0
 18 39  1  0  0  0
 18 40  1  0  0  0
 19 41  1  0  0  0
 20 42  1  0  0  0
M  END
>  <Name>
lit-270

>  <Family>
B.1

>  <RBA>
1.100000

>  <RBA_avg>
1.100000

>  <Method>
CUC

>  <set>
1

$$$$
lit-271
  Cerius2 12180216413D 1   1.00000                          
 Structure written by MMmdl.
 48 49  0  0  0  0  0  0  0  0999 V2000
   -7.8525   -5.1801   10.9970 C   0  0  0  0  0  0
   -9.0256   -4.4710   11.2945 C   0  0  0  0  0  0
   -9.9514   -4.1729   10.2924 C   0  0  0  0  0  0
   -9.7371   -4.5702    8.9686 C   0  0  0  0  0  0
   -8.5634   -5.2782    8.6721 C   0  0  0  0  0  0
   -7.6331   -5.5794    9.6715 C   0  0  0  0  0  0
   -6.8223   -5.5200   12.0743 C   0  0  0  0  0  0
   -7.4967   -5.7980   13.4686 C   0  0  0  0  0  0
   -6.7207   -5.1553   14.6185 C   0  0  0  0  0  0
   -5.3282   -4.9943   14.5705 C   0  0  0  0  0  0
   -4.6420   -4.4040   15.6340 C   0  0  0  0  0  0
   -5.3200   -3.9584   16.7733 C   0  0  0  0  0  0
   -6.7121   -4.1207   16.8206 C   0  0  0  0  0  0
   -7.4040   -4.7110   15.7586 C   0  0  0  0  0  0
   -5.7447   -4.4042   12.1599 C   0  0  0  0  0  0
   -4.9763   -4.1991   10.8577 C   0  0  0  0  0  0
   -7.6886   -7.3171   13.7316 C   0  0  0  0  0  0
   -8.4621   -7.6202   15.0114 C   0  0  0  0  0  0
  -11.0610   -3.4788   10.6877 O   0  0  0  0  0  0
   -3.2873   -4.2942   15.4870 O   0  0  0  0  0  0
  -10.7114   -4.2668    7.8660 C   0  0  0  0  0  0
   -4.6141   -3.3191   17.9353 C   0  0  0  0  0  0
   -9.2273   -4.1442   12.3129 H   0  0  0  0  0  0
   -8.3598   -5.6050    7.6525 H   0  0  0  0  0  0
   -6.7330   -6.1312    9.4019 H   0  0  0  0  0  0
   -6.3044   -6.4394   11.7666 H   0  0  0  0  0  0
   -8.5001   -5.3497   13.4475 H   0  0  0  0  0  0
   -4.7654   -5.3294   13.7011 H   0  0  0  0  0  0
   -7.2765   -3.7868   17.6911 H   0  0  0  0  0  0
   -8.4858   -4.8197   15.8325 H   0  0  0  0  0  0
   -5.0051   -4.6567   12.9277 H   0  0  0  0  0  0
   -6.1953   -3.4520   12.4644 H   0  0  0  0  0  0
   -4.1708   -3.4733   11.0100 H   0  0  0  0  0  0
   -5.6203   -3.8133   10.0622 H   0  0  0  0  0  0
   -4.5256   -5.1366   10.5170 H   0  0  0  0  0  0
   -6.7201   -7.8302   13.7675 H   0  0  0  0  0  0
   -8.2495   -7.7713   12.9075 H   0  0  0  0  0  0
   -8.6485   -8.6964   15.0890 H   0  0  0  0  0  0
   -9.4301   -7.1091   15.0145 H   0  0  0  0  0  0
   -7.9061   -7.3178   15.9036 H   0  0  0  0  0  0
  -11.6390   -3.3224    9.9145 H   0  0  0  0  0  0
   -2.9072   -3.8719   16.2830 H   0  0  0  0  0  0
  -10.3678   -4.6597    6.9032 H   0  0  0  0  0  0
  -10.8338   -3.1844    7.7568 H   0  0  0  0  0  0
  -11.6820   -4.7245    8.0825 H   0  0  0  0  0  0
   -4.0990   -2.4093   17.6109 H   0  0  0  0  0  0
   -3.8882   -4.0161   18.3666 H   0  0  0  0  0  0
   -5.3144   -3.0378   18.7289 H   0  0  0  0  0  0
  1  2  2  0  0  0
  1  6  1  0  0  0
  1  7  1  0  0  0
  2  3  1  0  0  0
  2 23  1  0  0  0
  3  4  2  0  0  0
  3 19  1  0  0  0
  4  5  1  0  0  0
  4 21  1  0  0  0
  5  6  2  0  0  0
  5 24  1  0  0  0
  6 25  1  0  0  0
  7  8  1  0  0  0
  7 15  1  0  0  0
  7 26  1  0  0  0
  8  9  1  0  0  0
  8 17  1  0  0  0
  8 27  1  0  0  0
  9 10  2  0  0  0
  9 14  1  0  0  0
 10 11  1  0  0  0
 10 28  1  0  0  0
 11 12  2  0  0  0
 11 20  1  0  0  0
 12 13  1  0  0  0
 12 22  1  0  0  0
 13 14  2  0  0  0
 13 29  1  0  0  0
 14 30  1  0  0  0
 15 16  1  0  0  0
 15 31  1  0  0  0
 15 32  1  0  0  0
 16 33  1  0  0  0
 16 34  1  0  0  0
 16 35  1  0  0  0
 17 18  1  0  0  0
 17 36  1  0  0  0
 17 37  1  0  0  0
 18 38  1  0  0  0
 18 39  1  0  0  0
 18 40  1  0  0  0
 19 41  1  0  0  0
 20 42  1  0  0  0
 21 43  1  0  0  0
 21 44  1  0  0  0
 21 45  1  0  0  0
 22 46  1  0  0  0
 22 47  1  0  0  0
 22 48  1  0  0  0
M  END
>  <Name>
lit-271

>  <Family>
B.1

>  <RBA>
0.720000

>  <RBA_avg>
0.720000

>  <Method>
CUC

>  <set>
0

$$$$
lit-272
  Cerius2 12180216413D 1   1.00000                          
 Structure written by MMmdl.
 46 47  0  0  0  0  0  0  0  0999 V2000
   -7.8541   -5.1776   10.9983 C   0  0  0  0  0  0
   -9.0227   -4.4625   11.2966 C   0  0  0  0  0  0
   -9.9382   -4.1647   10.2871 C   0  0  0  0  0  0
   -9.7524   -4.5997    8.9684 C   0  0  0  0  0  0
   -8.5635   -5.2670    8.6672 C   0  0  0  0  0  0
   -7.6310   -5.5666    9.6686 C   0  0  0  0  0  0
   -6.8233   -5.5204   12.0740 C   0  0  0  0  0  0
   -7.4971   -5.7978   13.4688 C   0  0  0  0  0  0
   -6.7182   -5.1569   14.6178 C   0  0  0  0  0  0
   -5.3254   -5.0034   14.5705 C   0  0  0  0  0  0
   -4.6488   -4.4177   15.6406 C   0  0  0  0  0  0
   -5.3262   -3.9270   16.7643 C   0  0  0  0  0  0
   -6.7066   -4.1279   16.8283 C   0  0  0  0  0  0
   -7.3989   -4.7214   15.7651 C   0  0  0  0  0  0
   -5.7432   -4.4071   12.1599 C   0  0  0  0  0  0
   -4.9770   -4.2003   10.8566 C   0  0  0  0  0  0
   -7.6914   -7.3167   13.7309 C   0  0  0  0  0  0
   -8.4626   -7.6194   15.0123 C   0  0  0  0  0  0
  -11.0221   -3.4005   10.6303 O   0  0  0  0  0  0
   -3.2821   -4.3646   15.5635 O   0  0  0  0  0  0
  -10.6469   -4.2767    7.9542 N   0  0  0  0  0  0
   -4.6515   -3.3722   17.8460 N   0  0  0  0  0  0
   -9.2187   -4.1168   12.3091 H   0  0  0  0  0  0
   -8.3542   -5.5801    7.6455 H   0  0  0  0  0  0
   -6.7252   -6.1070    9.3955 H   0  0  0  0  0  0
   -6.3083   -6.4412   11.7654 H   0  0  0  0  0  0
   -8.4992   -5.3470   13.4485 H   0  0  0  0  0  0
   -4.7571   -5.3549   13.7123 H   0  0  0  0  0  0
   -7.2671   -3.8071   17.7048 H   0  0  0  0  0  0
   -8.4788   -4.8415   15.8459 H   0  0  0  0  0  0
   -5.0028   -4.6626   12.9257 H   0  0  0  0  0  0
   -6.1914   -3.4546   12.4675 H   0  0  0  0  0  0
   -4.1700   -3.4763   11.0090 H   0  0  0  0  0  0
   -5.6220   -3.8113   10.0634 H   0  0  0  0  0  0
   -4.5289   -5.1379   10.5128 H   0  0  0  0  0  0
   -6.7238   -7.8316   13.7645 H   0  0  0  0  0  0
   -8.2548   -7.7693   12.9077 H   0  0  0  0  0  0
   -8.6507   -8.6953   15.0893 H   0  0  0  0  0  0
   -9.4297   -7.1067   15.0178 H   0  0  0  0  0  0
   -7.9041   -7.3187   15.9035 H   0  0  0  0  0  0
  -11.4007   -3.0815    9.7841 H   0  0  0  0  0  0
   -2.9720   -4.1730   16.4736 H   0  0  0  0  0  0
  -10.4812   -4.6635    7.0264 H   0  0  0  0  0  0
  -11.6343   -4.1563    8.1618 H   0  0  0  0  0  0
   -5.2039   -2.9899   18.6119 H   0  0  0  0  0  0
   -3.7763   -2.8760   17.7035 H   0  0  0  0  0  0
  1  2  2  0  0  0
  1  6  1  0  0  0
  1  7  1  0  0  0
  2  3  1  0  0  0
  2 23  1  0  0  0
  3  4  2  0  0  0
  3 19  1  0  0  0
  4  5  1  0  0  0
  4 21  1  0  0  0
  5  6  2  0  0  0
  5 24  1  0  0  0
  6 25  1  0  0  0
  7  8  1  0  0  0
  7 15  1  0  0  0
  7 26  1  0  0  0
  8  9  1  0  0  0
  8 17  1  0  0  0
  8 27  1  0  0  0
  9 10  2  0  0  0
  9 14  1  0  0  0
 10 11  1  0  0  0
 10 28  1  0  0  0
 11 12  2  0  0  0
 11 20  1  0  0  0
 12 13  1  0  0  0
 12 22  1  0  0  0
 13 14  2  0  0  0
 13 29  1  0  0  0
 14 30  1  0  0  0
 15 16  1  0  0  0
 15 31  1  0  0  0
 15 32  1  0  0  0
 16 33  1  0  0  0
 16 34  1  0  0  0
 16 35  1  0  0  0
 17 18  1  0  0  0
 17 36  1  0  0  0
 17 37  1  0  0  0
 18 38  1  0  0  0
 18 39  1  0  0  0
 18 40  1  0  0  0
 19 41  1  0  0  0
 20 42  1  0  0  0
 21 43  1  0  0  0
 21 44  1  0  0  0
 22 45  1  0  0  0
 22 46  1  0  0  0
M  END
>  <Name>
lit-272

>  <Family>
B.1

>  <RBA>
0.520000

>  <RBA_avg>
0.520000

>  <Method>
CUC

>  <set>
1

$$$$
lit-273
  Cerius2 12180216413D 1   1.00000                          
 Structure written by MMmdl.
 42 43  0  0  0  0  0  0  0  0999 V2000
   -7.8563   -5.1777   10.9979 C   0  0  0  0  0  0
   -9.0298   -4.4674   11.3019 C   0  0  0  0  0  0
   -9.9508   -4.1723   10.2988 C   0  0  0  0  0  0
   -9.7202   -4.5768    8.9827 C   0  0  0  0  0  0
   -8.5611   -5.2810    8.6667 C   0  0  0  0  0  0
   -7.6336   -5.5797    9.6693 C   0  0  0  0  0  0
   -6.8237   -5.5177   12.0742 C   0  0  0  0  0  0
   -7.4959   -5.7959   13.4690 C   0  0  0  0  0  0
   -6.7172   -5.1534   14.6184 C   0  0  0  0  0  0
   -5.3221   -4.9952   14.5647 C   0  0  0  0  0  0
   -4.6413   -4.4067   15.6285 C   0  0  0  0  0  0
   -5.3342   -3.9683   16.7584 C   0  0  0  0  0  0
   -6.7170   -4.1191   16.8257 C   0  0  0  0  0  0
   -7.4049   -4.7089   15.7612 C   0  0  0  0  0  0
   -5.7466   -4.4016   12.1582 C   0  0  0  0  0  0
   -4.9767   -4.2001   10.8564 C   0  0  0  0  0  0
   -7.6874   -7.3148   13.7320 C   0  0  0  0  0  0
   -8.4620   -7.6176   15.0113 C   0  0  0  0  0  0
  -11.0743   -3.4777   10.6601 O   0  0  0  0  0  0
   -3.2825   -4.2815   15.5144 O   0  0  0  0  0  0
  -10.8591   -4.2123    7.7402 Cl  0  0  0  0  0  0
   -4.4931   -3.2399   18.0758 Cl  0  0  0  0  0  0
   -9.2313   -4.1403   12.3197 H   0  0  0  0  0  0
   -8.3684   -5.6021    7.6457 H   0  0  0  0  0  0
   -6.7323   -6.1312    9.4028 H   0  0  0  0  0  0
   -6.3060   -6.4369   11.7654 H   0  0  0  0  0  0
   -8.4991   -5.3473   13.4499 H   0  0  0  0  0  0
   -4.7597   -5.3301   13.6956 H   0  0  0  0  0  0
   -7.2693   -3.7824   17.6998 H   0  0  0  0  0  0
   -8.4868   -4.8187   15.8322 H   0  0  0  0  0  0
   -5.0081   -4.6518   12.9278 H   0  0  0  0  0  0
   -6.1978   -3.4486   12.4593 H   0  0  0  0  0  0
   -4.1718   -3.4735   11.0075 H   0  0  0  0  0  0
   -5.6198   -3.8169   10.0588 H   0  0  0  0  0  0
   -4.5252   -5.1384   10.5190 H   0  0  0  0  0  0
   -6.7188   -7.8276   13.7692 H   0  0  0  0  0  0
   -8.2472   -7.7694   12.9074 H   0  0  0  0  0  0
   -8.6478   -8.6938   15.0891 H   0  0  0  0  0  0
   -9.4303   -7.1070   15.0131 H   0  0  0  0  0  0
   -7.9071   -7.3145   15.9039 H   0  0  0  0  0  0
  -11.6082   -3.3552    9.8446 H   0  0  0  0  0  0
   -2.9653   -3.8537   16.3398 H   0  0  0  0  0  0
  1  2  2  0  0  0
  1  6  1  0  0  0
  1  7  1  0  0  0
  2  3  1  0  0  0
  2 23  1  0  0  0
  3  4  2  0  0  0
  3 19  1  0  0  0
  4  5  1  0  0  0
  4 21  1  0  0  0
  5  6  2  0  0  0
  5 24  1  0  0  0
  6 25  1  0  0  0
  7  8  1  0  0  0
  7 15  1  0  0  0
  7 26  1  0  0  0
  8  9  1  0  0  0
  8 17  1  0  0  0
  8 27  1  0  0  0
  9 10  2  0  0  0
  9 14  1  0  0  0
 10 11  1  0  0  0
 10 28  1  0  0  0
 11 12  2  0  0  0
 11 20  1  0  0  0
 12 13  1  0  0  0
 12 22  1  0  0  0
 13 14  2  0  0  0
 13 29  1  0  0  0
 14 30  1  0  0  0
 15 16  1  0  0  0
 15 31  1  0  0  0
 15 32  1  0  0  0
 16 33  1  0  0  0
 16 34  1  0  0  0
 16 35  1  0  0  0
 17 18  1  0  0  0
 17 36  1  0  0  0
 17 37  1  0  0  0
 18 38  1  0  0  0
 18 39  1  0  0  0
 18 40  1  0  0  0
 19 41  1  0  0  0
 20 42  1  0  0  0
M  END
>  <Name>
lit-273

>  <Family>
B.1

>  <RBA>
0.070000

>  <RBA_avg>
0.070000

>  <Method>
CUC

>  <set>
0

$$$$
lit-274
  Cerius2 12180216413D 1   1.00000                          
 Structure written by MMmdl.
 54 55  0  0  0  0  0  0  0  0999 V2000
   -7.8522   -5.1806   10.9977 C   0  0  0  0  0  0
   -9.0239   -4.4726   11.2928 C   0  0  0  0  0  0
   -9.9498   -4.1739   10.2890 C   0  0  0  0  0  0
   -9.7441   -4.5678    8.9572 C   0  0  0  0  0  0
   -8.5662   -5.2762    8.6714 C   0  0  0  0  0  0
   -7.6355   -5.5780    9.6731 C   0  0  0  0  0  0
   -6.8222   -5.5212   12.0743 C   0  0  0  0  0  0
   -7.4964   -5.7992   13.4688 C   0  0  0  0  0  0
   -6.7204   -5.1567   14.6181 C   0  0  0  0  0  0
   -5.3300   -4.9948   14.5722 C   0  0  0  0  0  0
   -4.6443   -4.4033   15.6370 C   0  0  0  0  0  0
   -5.3154   -3.9521   16.7847 C   0  0  0  0  0  0
   -6.7088   -4.1200   16.8217 C   0  0  0  0  0  0
   -7.4006   -4.7120   15.7579 C   0  0  0  0  0  0
   -5.7441   -4.4059   12.1598 C   0  0  0  0  0  0
   -4.9769   -4.2000   10.8570 C   0  0  0  0  0  0
   -7.6881   -7.3183   13.7316 C   0  0  0  0  0  0
   -8.4619   -7.6216   15.0111 C   0  0  0  0  0  0
  -11.0551   -3.4785   10.6994 O   0  0  0  0  0  0
   -3.2890   -4.2998   15.4758 O   0  0  0  0  0  0
  -10.7597   -4.2345    7.8831 C   0  0  0  0  0  0
   -4.5543   -3.3128   17.9285 C   0  0  0  0  0  0
  -10.4603   -4.6998    6.4624 C   0  0  0  0  0  0
   -5.3593   -2.8476   19.1368 C   0  0  0  0  0  0
   -9.2266   -4.1452   12.3109 H   0  0  0  0  0  0
   -8.3413   -5.6125    7.6608 H   0  0  0  0  0  0
   -6.7357   -6.1301    9.4025 H   0  0  0  0  0  0
   -6.3048   -6.4408   11.7664 H   0  0  0  0  0  0
   -8.4998   -5.3509   13.4479 H   0  0  0  0  0  0
   -4.7660   -5.3300   13.7034 H   0  0  0  0  0  0
   -7.2936   -3.7942   17.6801 H   0  0  0  0  0  0
   -8.4824   -4.8205   15.8327 H   0  0  0  0  0  0
   -5.0039   -4.6592   12.9266 H   0  0  0  0  0  0
   -6.1941   -3.4537   12.4656 H   0  0  0  0  0  0
   -4.1709   -3.4747   11.0091 H   0  0  0  0  0  0
   -5.6215   -3.8130   10.0625 H   0  0  0  0  0  0
   -4.5271   -5.1374   10.5150 H   0  0  0  0  0  0
   -6.7194   -7.8311   13.7679 H   0  0  0  0  0  0
   -8.2485   -7.7727   12.9072 H   0  0  0  0  0  0
   -8.6478   -8.6978   15.0887 H   0  0  0  0  0  0
   -9.4301   -7.1109   15.0137 H   0  0  0  0  0  0
   -7.9064   -7.3188   15.9035 H   0  0  0  0  0  0
  -11.6440   -3.3128    9.9373 H   0  0  0  0  0  0
   -2.8928   -3.8790   16.2639 H   0  0  0  0  0  0
  -10.8807   -3.1444    7.8561 H   0  0  0  0  0  0
  -11.7223   -4.6703    8.1785 H   0  0  0  0  0  0
   -4.0161   -2.4418   17.5339 H   0  0  0  0  0  0
   -3.8078   -4.0335   18.2850 H   0  0  0  0  0  0
  -11.2699   -4.3955    5.7908 H   0  0  0  0  0  0
  -10.3757   -5.7902    6.4088 H   0  0  0  0  0  0
   -9.5316   -4.2594    6.0852 H   0  0  0  0  0  0
   -4.6911   -2.4069   19.8841 H   0  0  0  0  0  0
   -5.8854   -3.6825   19.6117 H   0  0  0  0  0  0
   -6.0949   -2.0861   18.8575 H   0  0  0  0  0  0
  1  2  2  0  0  0
  1  6  1  0  0  0
  1  7  1  0  0  0
  2  3  1  0  0  0
  2 25  1  0  0  0
  3  4  2  0  0  0
  3 19  1  0  0  0
  4  5  1  0  0  0
  4 21  1  0  0  0
  5  6  2  0  0  0
  5 26  1  0  0  0
  6 27  1  0  0  0
  7  8  1  0  0  0
  7 15  1  0  0  0
  7 28  1  0  0  0
  8  9  1  0  0  0
  8 17  1  0  0  0
  8 29  1  0  0  0
  9 10  2  0  0  0
  9 14  1  0  0  0
 10 11  1  0  0  0
 10 30  1  0  0  0
 11 12  2  0  0  0
 11 20  1  0  0  0
 12 13  1  0  0  0
 12 22  1  0  0  0
 13 14  2  0  0  0
 13 31  1  0  0  0
 14 32  1  0  0  0
 15 16  1  0  0  0
 15 33  1  0  0  0
 15 34  1  0  0  0
 16 35  1  0  0  0
 16 36  1  0  0  0
 16 37  1  0  0  0
 17 18  1  0  0  0
 17 38  1  0  0  0
 17 39  1  0  0  0
 18 40  1  0  0  0
 18 41  1  0  0  0
 18 42  1  0  0  0
 19 43  1  0  0  0
 20 44  1  0  0  0
 21 23  1  0  0  0
 21 45  1  0  0  0
 21 46  1  0  0  0
 22 24  1  0  0  0
 22 47  1  0  0  0
 22 48  1  0  0  0
 23 49  1  0  0  0
 23 50  1  0  0  0
 23 51  1  0  0  0
 24 52  1  0  0  0
 24 53  1  0  0  0
 24 54  1  0  0  0
M  END
>  <Name>
lit-274

>  <Family>
B.1

>  <RBA>
0.040000

>  <RBA_avg>
0.040000

>  <Method>
CUC

>  <set>
1

$$$$
lit-275
  Cerius2 12180216413D 1   1.00000                          
 Structure written by MMmdl.
 42 43  0  0  0  0  0  0  0  0999 V2000
   -7.8555   -5.1778   10.9979 C   0  0  0  0  0  0
   -9.0292   -4.4678   11.3009 C   0  0  0  0  0  0
   -9.9514   -4.1722   10.2986 C   0  0  0  0  0  0
   -9.7210   -4.5765    8.9832 C   0  0  0  0  0  0
   -8.5609   -5.2810    8.6675 C   0  0  0  0  0  0
   -7.6335   -5.5797    9.6698 C   0  0  0  0  0  0
   -6.8234   -5.5178   12.0743 C   0  0  0  0  0  0
   -7.4962   -5.7960   13.4689 C   0  0  0  0  0  0
   -6.7179   -5.1536   14.6183 C   0  0  0  0  0  0
   -5.3230   -4.9950   14.5653 C   0  0  0  0  0  0
   -4.6409   -4.4063   15.6285 C   0  0  0  0  0  0
   -5.3332   -3.9681   16.7578 C   0  0  0  0  0  0
   -6.7168   -4.1192   16.8249 C   0  0  0  0  0  0
   -7.4050   -4.7090   15.7607 C   0  0  0  0  0  0
   -5.7463   -4.4016   12.1587 C   0  0  0  0  0  0
   -4.9765   -4.1996   10.8569 C   0  0  0  0  0  0
   -7.6881   -7.3150   13.7316 C   0  0  0  0  0  0
   -8.4620   -7.6178   15.0113 C   0  0  0  0  0  0
  -11.0720   -3.4784   10.6660 O   0  0  0  0  0  0
   -3.2834   -4.2838   15.5081 O   0  0  0  0  0  0
  -10.9650   -4.1818    7.6103 Br  0  0  0  0  0  0
   -4.4196   -3.1664   18.2108 Br  0  0  0  0  0  0
   -9.2305   -4.1409   12.3190 H   0  0  0  0  0  0
   -8.3646   -5.6040    7.6475 H   0  0  0  0  0  0
   -6.7322   -6.1314    9.4032 H   0  0  0  0  0  0
   -6.3057   -6.4367   11.7656 H   0  0  0  0  0  0
   -8.4993   -5.3474   13.4494 H   0  0  0  0  0  0
   -4.7610   -5.3300   13.6959 H   0  0  0  0  0  0
   -7.2730   -3.7835   17.6975 H   0  0  0  0  0  0
   -8.4868   -4.8186   15.8317 H   0  0  0  0  0  0
   -5.0078   -4.6521   12.9281 H   0  0  0  0  0  0
   -6.1975   -3.4487   12.4602 H   0  0  0  0  0  0
   -4.1713   -3.4733   11.0083 H   0  0  0  0  0  0
   -5.6197   -3.8158   10.0596 H   0  0  0  0  0  0
   -4.5253   -5.1379   10.5189 H   0  0  0  0  0  0
   -6.7196   -7.8280   13.7681 H   0  0  0  0  0  0
   -8.2486   -7.7692   12.9073 H   0  0  0  0  0  0
   -8.6485   -8.6939   15.0889 H   0  0  0  0  0  0
   -9.4299   -7.1066   15.0140 H   0  0  0  0  0  0
   -7.9063   -7.3154   15.9036 H   0  0  0  0  0  0
  -11.6117   -3.3523    9.8559 H   0  0  0  0  0  0
   -2.9584   -3.8560   16.3296 H   0  0  0  0  0  0
  1  2  2  0  0  0
  1  6  1  0  0  0
  1  7  1  0  0  0
  2  3  1  0  0  0
  2 23  1  0  0  0
  3  4  2  0  0  0
  3 19  1  0  0  0
  4  5  1  0  0  0
  4 21  1  0  0  0
  5  6  2  0  0  0
  5 24  1  0  0  0
  6 25  1  0  0  0
  7  8  1  0  0  0
  7 15  1  0  0  0
  7 26  1  0  0  0
  8  9  1  0  0  0
  8 17  1  0  0  0
  8 27  1  0  0  0
  9 10  2  0  0  0
  9 14  1  0  0  0
 10 11  1  0  0  0
 10 28  1  0  0  0
 11 12  2  0  0  0
 11 20  1  0  0  0
 12 13  1  0  0  0
 12 22  1  0  0  0
 13 14  2  0  0  0
 13 29  1  0  0  0
 14 30  1  0  0  0
 15 16  1  0  0  0
 15 31  1  0  0  0
 15 32  1  0  0  0
 16 33  1  0  0  0
 16 34  1  0  0  0
 16 35  1  0  0  0
 17 18  1  0  0  0
 17 36  1  0  0  0
 17 37  1  0  0  0
 18 38  1  0  0  0
 18 39  1  0  0  0
 18 40  1  0  0  0
 19 41  1  0  0  0
 20 42  1  0  0  0
M  END
>  <Name>
lit-275

>  <Family>
B.1

>  <RBA>
0.030000

>  <RBA_avg>
0.030000

>  <Method>
CUC

>  <set>
0

$$$$
lit-276
  Cerius2 12180216413D 1   1.00000                          
 Structure written by MMmdl.
 56 57  0  0  0  0  0  0  0  0999 V2000
   -7.8520   -5.1818   10.9969 C   0  0  0  0  0  0
   -9.0247   -4.4733   11.2921 C   0  0  0  0  0  0
   -9.9528   -4.1733   10.2899 C   0  0  0  0  0  0
   -9.7421   -4.5650    8.9599 C   0  0  0  0  0  0
   -8.5648   -5.2772    8.6729 C   0  0  0  0  0  0
   -7.6341   -5.5806    9.6728 C   0  0  0  0  0  0
   -6.8220   -5.5211   12.0743 C   0  0  0  0  0  0
   -7.4964   -5.7989   13.4687 C   0  0  0  0  0  0
   -6.7212   -5.1558   14.6187 C   0  0  0  0  0  0
   -5.3298   -4.9936   14.5728 C   0  0  0  0  0  0
   -4.6413   -4.4021   15.6369 C   0  0  0  0  0  0
   -5.3149   -3.9555   16.7830 C   0  0  0  0  0  0
   -6.7102   -4.1205   16.8201 C   0  0  0  0  0  0
   -7.4031   -4.7111   15.7574 C   0  0  0  0  0  0
   -5.7446   -4.4050   12.1593 C   0  0  0  0  0  0
   -4.9767   -4.1999   10.8568 C   0  0  0  0  0  0
   -7.6879   -7.3180   13.7315 C   0  0  0  0  0  0
   -8.4619   -7.6214   15.0110 C   0  0  0  0  0  0
  -11.0571   -3.4817   10.7076 O   0  0  0  0  0  0
   -3.2874   -4.2986   15.4682 O   0  0  0  0  0  0
  -10.7440   -4.2413    7.8719 C   0  0  0  0  0  0
   -4.5733   -3.3141   17.9366 C   0  0  0  0  0  0
  -10.3053   -4.6859    6.5811 O   0  0  0  0  0  0
  -11.2677   -4.3687    5.5769 C   0  0  0  0  0  0
   -5.4477   -2.9729   19.0207 O   0  0  0  0  0  0
   -4.7231   -2.3698   20.0915 C   0  0  0  0  0  0
   -9.2266   -4.1474   12.3111 H   0  0  0  0  0  0
   -8.3524   -5.6090    7.6569 H   0  0  0  0  0  0
   -6.7351   -6.1336    9.4023 H   0  0  0  0  0  0
   -6.3039   -6.4405   11.7670 H   0  0  0  0  0  0
   -8.4998   -5.3509   13.4474 H   0  0  0  0  0  0
   -4.7671   -5.3281   13.7029 H   0  0  0  0  0  0
   -7.2840   -3.7891   17.6852 H   0  0  0  0  0  0
   -8.4849   -4.8187   15.8318 H   0  0  0  0  0  0
   -5.0048   -4.6570   12.9268 H   0  0  0  0  0  0
   -6.1955   -3.4528   12.4638 H   0  0  0  0  0  0
   -4.1714   -3.4738   11.0086 H   0  0  0  0  0  0
   -5.6211   -3.8145   10.0614 H   0  0  0  0  0  0
   -4.5259   -5.1374   10.5162 H   0  0  0  0  0  0
   -6.7192   -7.8307   13.7681 H   0  0  0  0  0  0
   -8.2481   -7.7724   12.9070 H   0  0  0  0  0  0
   -8.6473   -8.6977   15.0887 H   0  0  0  0  0  0
   -9.4304   -7.1112   15.0133 H   0  0  0  0  0  0
   -7.9067   -7.3182   15.9035 H   0  0  0  0  0  0
  -11.6709   -3.3294    9.9633 H   0  0  0  0  0  0
   -2.8760   -3.8611   16.2386 H   0  0  0  0  0  0
  -10.8875   -3.1550    7.8355 H   0  0  0  0  0  0
  -11.6938   -4.7346    8.1101 H   0  0  0  0  0  0
   -4.0857   -2.4003   17.5771 H   0  0  0  0  0  0
   -3.8185   -4.0182   18.3064 H   0  0  0  0  0  0
  -10.8893   -4.7265    4.6156 H   0  0  0  0  0  0
  -11.4132   -3.2860    5.5154 H   0  0  0  0  0  0
  -12.2182   -4.8682    5.7873 H   0  0  0  0  0  0
   -5.4300   -2.1295   20.8901 H   0  0  0  0  0  0
   -4.2454   -1.4443   19.7560 H   0  0  0  0  0  0
   -3.9733   -3.0633   20.4839 H   0  0  0  0  0  0
  1  2  2  0  0  0
  1  6  1  0  0  0
  1  7  1  0  0  0
  2  3  1  0  0  0
  2 27  1  0  0  0
  3  4  2  0  0  0
  3 19  1  0  0  0
  4  5  1  0  0  0
  4 21  1  0  0  0
  5  6  2  0  0  0
  5 28  1  0  0  0
  6 29  1  0  0  0
  7  8  1  0  0  0
  7 15  1  0  0  0
  7 30  1  0  0  0
  8  9  1  0  0  0
  8 17  1  0  0  0
  8 31  1  0  0  0
  9 10  2  0  0  0
  9 14  1  0  0  0
 10 11  1  0  0  0
 10 32  1  0  0  0
 11 12  2  0  0  0
 11 20  1  0  0  0
 12 13  1  0  0  0
 12 22  1  0  0  0
 13 14  2  0  0  0
 13 33  1  0  0  0
 14 34  1  0  0  0
 15 16  1  0  0  0
 15 35  1  0  0  0
 15 36  1  0  0  0
 16 37  1  0  0  0
 16 38  1  0  0  0
 16 39  1  0  0  0
 17 18  1  0  0  0
 17 40  1  0  0  0
 17 41  1  0  0  0
 18 42  1  0  0  0
 18 43  1  0  0  0
 18 44  1  0  0  0
 19 45  1  0  0  0
 20 46  1  0  0  0
 21 23  1  0  0  0
 21 47  1  0  0  0
 21 48  1  0  0  0
 22 25  1  0  0  0
 22 49  1  0  0  0
 22 50  1  0  0  0
 23 24  1  0  0  0
 24 51  1  0  0  0
 24 52  1  0  0  0
 24 53  1  0  0  0
 25 26  1  0  0  0
 26 54  1  0  0  0
 26 55  1  0  0  0
 26 56  1  0  0  0
M  END
>  <Name>
lit-276

>  <Family>
B.1

>  <RBA>
0.030000

>  <RBA_avg>
0.030000

>  <Method>
CUC

>  <set>
1

$$$$
lit-277
  Cerius2 12180216413D 1   1.00000                          
 Structure written by MMmdl.
 50 51  0  0  0  0  0  0  0  0999 V2000
   -7.8514   -5.1812   10.9967 C   0  0  0  0  0  0
   -9.0240   -4.4728   11.2922 C   0  0  0  0  0  0
   -9.9525   -4.1727   10.2901 C   0  0  0  0  0  0
   -9.7441   -4.5676    8.9608 C   0  0  0  0  0  0
   -8.5653   -5.2769    8.6730 C   0  0  0  0  0  0
   -7.6335   -5.5794    9.6723 C   0  0  0  0  0  0
   -6.8215   -5.5212   12.0740 C   0  0  0  0  0  0
   -7.4964   -5.7985   13.4684 C   0  0  0  0  0  0
   -6.7214   -5.1556   14.6185 C   0  0  0  0  0  0
   -5.3299   -4.9937   14.5730 C   0  0  0  0  0  0
   -4.6415   -4.4031   15.6378 C   0  0  0  0  0  0
   -5.3154   -3.9542   16.7827 C   0  0  0  0  0  0
   -6.7104   -4.1213   16.8203 C   0  0  0  0  0  0
   -7.4034   -4.7118   15.7576 C   0  0  0  0  0  0
   -5.7434   -4.4058   12.1593 C   0  0  0  0  0  0
   -4.9765   -4.1999   10.8563 C   0  0  0  0  0  0
   -7.6883   -7.3176   13.7313 C   0  0  0  0  0  0
   -8.4619   -7.6208   15.0110 C   0  0  0  0  0  0
  -11.0553   -3.4778   10.7064 O   0  0  0  0  0  0
   -3.2869   -4.3026   15.4719 O   0  0  0  0  0  0
  -10.7443   -4.2458    7.8750 C   0  0  0  0  0  0
   -4.5762   -3.3158   17.9354 C   0  0  0  0  0  0
  -10.3438   -4.7355    6.5953 O   0  0  0  0  0  0
   -5.4460   -2.9241   18.9973 O   0  0  0  0  0  0
   -9.2252   -4.1459   12.3111 H   0  0  0  0  0  0
   -8.3549   -5.6068    7.6560 H   0  0  0  0  0  0
   -6.7339   -6.1312    9.4010 H   0  0  0  0  0  0
   -6.3040   -6.4410   11.7668 H   0  0  0  0  0  0
   -8.4997   -5.3502   13.4466 H   0  0  0  0  0  0
   -4.7668   -5.3290   13.7036 H   0  0  0  0  0  0
   -7.2820   -3.7905   17.6871 H   0  0  0  0  0  0
   -8.4850   -4.8202   15.8324 H   0  0  0  0  0  0
   -5.0031   -4.6591   12.9259 H   0  0  0  0  0  0
   -6.1934   -3.4537   12.4651 H   0  0  0  0  0  0
   -4.1710   -3.4738   11.0081 H   0  0  0  0  0  0
   -5.6214   -3.8139   10.0615 H   0  0  0  0  0  0
   -4.5258   -5.1371   10.5148 H   0  0  0  0  0  0
   -6.7197   -7.8305   13.7675 H   0  0  0  0  0  0
   -8.2489   -7.7719   12.9071 H   0  0  0  0  0  0
   -8.6473   -8.6972   15.0889 H   0  0  0  0  0  0
   -9.4303   -7.1106   15.0135 H   0  0  0  0  0  0
   -7.9064   -7.3177   15.9034 H   0  0  0  0  0  0
  -11.6557   -3.3048    9.9555 H   0  0  0  0  0  0
   -2.8754   -3.8857   16.2538 H   0  0  0  0  0  0
  -10.8596   -3.1599    7.7943 H   0  0  0  0  0  0
  -11.7087   -4.7032    8.1191 H   0  0  0  0  0  0
   -4.0555   -2.4188   17.5842 H   0  0  0  0  0  0
   -3.8518   -4.0279   18.3443 H   0  0  0  0  0  0
  -11.0626   -4.4676    5.9846 H   0  0  0  0  0  0
   -4.8574   -2.5303   19.6756 H   0  0  0  0  0  0
  1  2  2  0  0  0
  1  6  1  0  0  0
  1  7  1  0  0  0
  2  3  1  0  0  0
  2 25  1  0  0  0
  3  4  2  0  0  0
  3 19  1  0  0  0
  4  5  1  0  0  0
  4 21  1  0  0  0
  5  6  2  0  0  0
  5 26  1  0  0  0
  6 27  1  0  0  0
  7  8  1  0  0  0
  7 15  1  0  0  0
  7 28  1  0  0  0
  8  9  1  0  0  0
  8 17  1  0  0  0
  8 29  1  0  0  0
  9 10  2  0  0  0
  9 14  1  0  0  0
 10 11  1  0  0  0
 10 30  1  0  0  0
 11 12  2  0  0  0
 11 20  1  0  0  0
 12 13  1  0  0  0
 12 22  1  0  0  0
 13 14  2  0  0  0
 13 31  1  0  0  0
 14 32  1  0  0  0
 15 16  1  0  0  0
 15 33  1  0  0  0
 15 34  1  0  0  0
 16 35  1  0  0  0
 16 36  1  0  0  0
 16 37  1  0  0  0
 17 18  1  0  0  0
 17 38  1  0  0  0
 17 39  1  0  0  0
 18 40  1  0  0  0
 18 41  1  0  0  0
 18 42  1  0  0  0
 19 43  1  0  0  0
 20 44  1  0  0  0
 21 23  1  0  0  0
 21 45  1  0  0  0
 21 46  1  0  0  0
 22 24  1  0  0  0
 22 47  1  0  0  0
 22 48  1  0  0  0
 23 49  1  0  0  0
 24 50  1  0  0  0
M  END
>  <Name>
lit-277

>  <Family>
B.1

>  <RBA>
0.030000

>  <RBA_avg>
0.030000

>  <Method>
CUC

>  <set>
0

$$$$
lit-278
  Cerius2 12180216413D 1   1.00000                          
 Structure written by MMmdl.
 42 43  0  0  0  0  0  0  0  0999 V2000
   -7.8536   -5.1792   10.9977 C   0  0  0  0  0  0
   -9.0276   -4.4695   11.2974 C   0  0  0  0  0  0
   -9.9478   -4.1751   10.2930 C   0  0  0  0  0  0
   -9.7275   -4.5735    8.9798 C   0  0  0  0  0  0
   -8.5647   -5.2773    8.6746 C   0  0  0  0  0  0
   -7.6322   -5.5805    9.6693 C   0  0  0  0  0  0
   -6.8228   -5.5185   12.0746 C   0  0  0  0  0  0
   -7.4967   -5.7967   13.4686 C   0  0  0  0  0  0
   -6.7199   -5.1541   14.6180 C   0  0  0  0  0  0
   -5.3257   -4.9941   14.5681 C   0  0  0  0  0  0
   -4.6463   -4.4051   15.6327 C   0  0  0  0  0  0
   -5.3270   -3.9650   16.7619 C   0  0  0  0  0  0
   -6.7100   -4.1210   16.8189 C   0  0  0  0  0  0
   -7.4063   -4.7094   15.7606 C   0  0  0  0  0  0
   -5.7461   -4.4020   12.1596 C   0  0  0  0  0  0
   -4.9765   -4.1992   10.8578 C   0  0  0  0  0  0
   -7.6881   -7.3156   13.7315 C   0  0  0  0  0  0
   -8.4619   -7.6182   15.0112 C   0  0  0  0  0  0
  -11.0711   -3.4830   10.6433 O   0  0  0  0  0  0
   -3.2915   -4.2757   15.5283 O   0  0  0  0  0  0
   -8.2722   -5.7801    7.0530 Cl  0  0  0  0  0  0
   -7.5728   -3.5827   18.2096 Cl  0  0  0  0  0  0
   -9.2312   -4.1413   12.3149 H   0  0  0  0  0  0
  -10.4459   -4.3430    8.1985 H   0  0  0  0  0  0
   -6.7301   -6.1313    9.4087 H   0  0  0  0  0  0
   -6.3042   -6.4374   11.7667 H   0  0  0  0  0  0
   -8.5000   -5.3485   13.4480 H   0  0  0  0  0  0
   -4.7612   -5.3287   13.6998 H   0  0  0  0  0  0
   -4.7955   -3.5062   17.5906 H   0  0  0  0  0  0
   -8.4870   -4.8216   15.8263 H   0  0  0  0  0  0
   -5.0076   -4.6524   12.9289 H   0  0  0  0  0  0
   -6.1979   -3.4495   12.4615 H   0  0  0  0  0  0
   -4.1719   -3.4723   11.0093 H   0  0  0  0  0  0
   -5.6199   -3.8159   10.0606 H   0  0  0  0  0  0
   -4.5245   -5.1372   10.5198 H   0  0  0  0  0  0
   -6.7195   -7.8283   13.7681 H   0  0  0  0  0  0
   -8.2485   -7.7701   12.9072 H   0  0  0  0  0  0
   -8.6478   -8.6944   15.0893 H   0  0  0  0  0  0
   -9.4302   -7.1076   15.0136 H   0  0  0  0  0  0
   -7.9065   -7.3149   15.9035 H   0  0  0  0  0  0
  -11.6190   -3.3498    9.8404 H   0  0  0  0  0  0
   -2.9544   -3.8491   16.3449 H   0  0  0  0  0  0
  1  2  2  0  0  0
  1  6  1  0  0  0
  1  7  1  0  0  0
  2  3  1  0  0  0
  2 23  1  0  0  0
  3  4  2  0  0  0
  3 19  1  0  0  0
  4  5  1  0  0  0
  4 24  1  0  0  0
  5  6  2  0  0  0
  5 21  1  0  0  0
  6 25  1  0  0  0
  7  8  1  0  0  0
  7 15  1  0  0  0
  7 26  1  0  0  0
  8  9  1  0  0  0
  8 17  1  0  0  0
  8 27  1  0  0  0
  9 10  2  0  0  0
  9 14  1  0  0  0
 10 11  1  0  0  0
 10 28  1  0  0  0
 11 12  2  0  0  0
 11 20  1  0  0  0
 12 13  1  0  0  0
 12 29  1  0  0  0
 13 14  2  0  0  0
 13 22  1  0  0  0
 14 30  1  0  0  0
 15 16  1  0  0  0
 15 31  1  0  0  0
 15 32  1  0  0  0
 16 33  1  0  0  0
 16 34  1  0  0  0
 16 35  1  0  0  0
 17 18  1  0  0  0
 17 36  1  0  0  0
 17 37  1  0  0  0
 18 38  1  0  0  0
 18 39  1  0  0  0
 18 40  1  0  0  0
 19 41  1  0  0  0
 20 42  1  0  0  0
M  END
>  <Name>
lit-278

>  <Family>
B.1

>  <RBA>
0.030000

>  <RBA_avg>
0.030000

>  <Method>
CUC

>  <set>
0

$$$$
lit-279
  Cerius2 12180216413D 1   1.00000                          
 Structure written by MMmdl.
 44 45  0  0  0  0  0  0  0  0999 V2000
   -7.8533   -5.1797   10.9961 C   0  0  0  0  0  0
   -9.0277   -4.4694   11.2974 C   0  0  0  0  0  0
   -9.9479   -4.1750   10.2936 C   0  0  0  0  0  0
   -9.7263   -4.5739    8.9808 C   0  0  0  0  0  0
   -8.5649   -5.2763    8.6786 C   0  0  0  0  0  0
   -7.6306   -5.5818    9.6674 C   0  0  0  0  0  0
   -6.8227   -5.5185   12.0745 C   0  0  0  0  0  0
   -7.4972   -5.7964   13.4688 C   0  0  0  0  0  0
   -6.7210   -5.1533   14.6193 C   0  0  0  0  0  0
   -5.3258   -4.9941   14.5676 C   0  0  0  0  0  0
   -4.6459   -4.4052   15.6317 C   0  0  0  0  0  0
   -5.3275   -3.9655   16.7603 C   0  0  0  0  0  0
   -6.7081   -4.1221   16.8153 C   0  0  0  0  0  0
   -7.4086   -4.7087   15.7621 C   0  0  0  0  0  0
   -5.7463   -4.4016   12.1600 C   0  0  0  0  0  0
   -4.9759   -4.1982   10.8588 C   0  0  0  0  0  0
   -7.6887   -7.3155   13.7316 C   0  0  0  0  0  0
   -8.4621   -7.6188   15.0114 C   0  0  0  0  0  0
  -11.0718   -3.4831   10.6418 O   0  0  0  0  0  0
   -3.2912   -4.2750   15.5288 O   0  0  0  0  0  0
   -8.3688   -5.6573    7.3825 O   0  0  0  0  0  0
   -7.3557   -3.6830   17.9339 O   0  0  0  0  0  0
   -9.2305   -4.1417   12.3151 H   0  0  0  0  0  0
  -10.4411   -4.3466    8.1950 H   0  0  0  0  0  0
   -6.7268   -6.1323    9.4127 H   0  0  0  0  0  0
   -6.3039   -6.4374   11.7673 H   0  0  0  0  0  0
   -8.5006   -5.3484   13.4476 H   0  0  0  0  0  0
   -4.7624   -5.3287   13.6988 H   0  0  0  0  0  0
   -4.8015   -3.5057   17.5921 H   0  0  0  0  0  0
   -8.4893   -4.8235   15.8227 H   0  0  0  0  0  0
   -5.0081   -4.6520   12.9297 H   0  0  0  0  0  0
   -6.1984   -3.4492   12.4620 H   0  0  0  0  0  0
   -4.1711   -3.4716   11.0111 H   0  0  0  0  0  0
   -5.6189   -3.8141   10.0615 H   0  0  0  0  0  0
   -4.5240   -5.1360   10.5202 H   0  0  0  0  0  0
   -6.7201   -7.8283   13.7676 H   0  0  0  0  0  0
   -8.2493   -7.7698   12.9073 H   0  0  0  0  0  0
   -8.6483   -8.6950   15.0888 H   0  0  0  0  0  0
   -9.4301   -7.1078   15.0146 H   0  0  0  0  0  0
   -7.9061   -7.3165   15.9036 H   0  0  0  0  0  0
  -11.6168   -3.3517    9.8367 H   0  0  0  0  0  0
   -2.9576   -3.8484   16.3469 H   0  0  0  0  0  0
   -7.5156   -6.1381    7.3259 H   0  0  0  0  0  0
   -8.3146   -3.8602   17.8272 H   0  0  0  0  0  0
  1  2  2  0  0  0
  1  6  1  0  0  0
  1  7  1  0  0  0
  2  3  1  0  0  0
  2 23  1  0  0  0
  3  4  2  0  0  0
  3 19  1  0  0  0
  4  5  1  0  0  0
  4 24  1  0  0  0
  5  6  2  0  0  0
  5 21  1  0  0  0
  6 25  1  0  0  0
  7  8  1  0  0  0
  7 15  1  0  0  0
  7 26  1  0  0  0
  8  9  1  0  0  0
  8 17  1  0  0  0
  8 27  1  0  0  0
  9 10  2  0  0  0
  9 14  1  0  0  0
 10 11  1  0  0  0
 10 28  1  0  0  0
 11 12  2  0  0  0
 11 20  1  0  0  0
 12 13  1  0  0  0
 12 29  1  0  0  0
 13 14  2  0  0  0
 13 22  1  0  0  0
 14 30  1  0  0  0
 15 16  1  0  0  0
 15 31  1  0  0  0
 15 32  1  0  0  0
 16 33  1  0  0  0
 16 34  1  0  0  0
 16 35  1  0  0  0
 17 18  1  0  0  0
 17 36  1  0  0  0
 17 37  1  0  0  0
 18 38  1  0  0  0
 18 39  1  0  0  0
 18 40  1  0  0  0
 19 41  1  0  0  0
 20 42  1  0  0  0
 21 43  1  0  0  0
 22 44  1  0  0  0
M  END
>  <Name>
lit-279

>  <Family>
B.1

>  <RBA>
0.010000

>  <RBA_avg>
0.010000

>  <Method>
CUC

>  <set>
0

$$$$
lit-280
  Cerius2 12180216413D 1   1.00000                          
 Structure written by MMmdl.
 46 47  0  0  0  0  0  0  0  0999 V2000
   -7.8537   -5.1800   10.9961 C   0  0  0  0  0  0
   -9.0283   -4.4695   11.2970 C   0  0  0  0  0  0
   -9.9620   -4.1655   10.3005 C   0  0  0  0  0  0
   -9.7261   -4.5738    8.9798 C   0  0  0  0  0  0
   -8.5565   -5.2831    8.6674 C   0  0  0  0  0  0
   -7.6296   -5.5820    9.6705 C   0  0  0  0  0  0
   -6.8227   -5.5190   12.0745 C   0  0  0  0  0  0
   -7.4969   -5.7970   13.4685 C   0  0  0  0  0  0
   -6.7207   -5.1533   14.6192 C   0  0  0  0  0  0
   -5.3252   -4.9937   14.5682 C   0  0  0  0  0  0
   -4.6279   -4.4047   15.6283 C   0  0  0  0  0  0
   -5.3282   -3.9657   16.7614 C   0  0  0  0  0  0
   -6.7213   -4.1203   16.8237 C   0  0  0  0  0  0
   -7.4089   -4.7103   15.7589 C   0  0  0  0  0  0
   -5.7460   -4.4027   12.1600 C   0  0  0  0  0  0
   -4.9765   -4.1991   10.8582 C   0  0  0  0  0  0
   -7.6882   -7.3159   13.7316 C   0  0  0  0  0  0
   -8.4620   -7.6184   15.0114 C   0  0  0  0  0  0
  -11.0602   -3.4693   10.7356 O   0  0  0  0  0  0
   -3.2725   -4.3127   15.4437 O   0  0  0  0  0  0
  -10.6770   -4.2769    7.9032 N   0  3  0  0  0  0
  -11.7112   -3.6454    8.1952 O   0  0  0  0  0  0
  -10.4155   -4.6647    6.7488 O   0  5  0  0  0  0
   -4.6384   -3.3430   17.8962 N   0  3  0  0  0  0
   -5.3114   -2.9722   18.8764 O   0  0  0  0  0  0
   -3.4007   -3.2124   17.8271 O   0  5  0  0  0  0
   -9.2242   -4.1448   12.3179 H   0  0  0  0  0  0
   -8.3471   -5.6121    7.6516 H   0  0  0  0  0  0
   -6.7280   -6.1337    9.4051 H   0  0  0  0  0  0
   -6.3041   -6.4380   11.7669 H   0  0  0  0  0  0
   -8.5004   -5.3491   13.4476 H   0  0  0  0  0  0
   -4.7682   -5.3312   13.6954 H   0  0  0  0  0  0
   -7.2903   -3.7894   17.6901 H   0  0  0  0  0  0
   -8.4908   -4.8205   15.8290 H   0  0  0  0  0  0
   -5.0073   -4.6537   12.9289 H   0  0  0  0  0  0
   -6.1975   -3.4502   12.4626 H   0  0  0  0  0  0
   -4.1713   -3.4729   11.0104 H   0  0  0  0  0  0
   -5.6199   -3.8142   10.0616 H   0  0  0  0  0  0
   -4.5253   -5.1369   10.5191 H   0  0  0  0  0  0
   -6.7195   -7.8286   13.7683 H   0  0  0  0  0  0
   -8.2485   -7.7705   12.9074 H   0  0  0  0  0  0
   -8.6480   -8.6945   15.0895 H   0  0  0  0  0  0
   -9.4303   -7.1077   15.0138 H   0  0  0  0  0  0
   -7.9065   -7.3153   15.9037 H   0  0  0  0  0  0
  -11.6579   -3.3008    9.9724 H   0  0  0  0  0  0
   -2.8678   -3.8892   16.2343 H   0  0  0  0  0  0
  1  2  2  0  0  0
  1  6  1  0  0  0
  1  7  1  0  0  0
  2  3  1  0  0  0
  2 27  1  0  0  0
  3  4  2  0  0  0
  3 19  1  0  0  0
  4  5  1  0  0  0
  4 21  1  0  0  0
  5  6  2  0  0  0
  5 28  1  0  0  0
  6 29  1  0  0  0
  7  8  1  0  0  0
  7 15  1  0  0  0
  7 30  1  0  0  0
  8  9  1  0  0  0
  8 17  1  0  0  0
  8 31  1  0  0  0
  9 10  2  0  0  0
  9 14  1  0  0  0
 10 11  1  0  0  0
 10 32  1  0  0  0
 11 12  2  0  0  0
 11 20  1  0  0  0
 12 13  1  0  0  0
 12 24  1  0  0  0
 13 14  2  0  0  0
 13 33  1  0  0  0
 14 34  1  0  0  0
 15 16  1  0  0  0
 15 35  1  0  0  0
 15 36  1  0  0  0
 16 37  1  0  0  0
 16 38  1  0  0  0
 16 39  1  0  0  0
 17 18  1  0  0  0
 17 40  1  0  0  0
 17 41  1  0  0  0
 18 42  1  0  0  0
 18 43  1  0  0  0
 18 44  1  0  0  0
 19 45  1  0  0  0
 20 46  1  0  0  0
 21 22  2  0  0  0
 21 23  1  0  0  0
 24 25  2  0  0  0
 24 26  1  0  0  0
M  CHG  4  21   1  23  -1  24   1  26  -1
M  END
>  <Name>
lit-280

>  <Family>
B.1

>  <RBA>
0.020000

>  <RBA_avg>
0.020000

>  <Method>
CUC

>  <set>
2

$$$$
lit-281
  Cerius2 12180216413D 1   1.00000                          
 Structure written by MMmdl.
 44 45  0  0  0  0  0  0  0  0999 V2000
   -7.8339   -5.1910   10.9840 C   0  0  0  0  0  0
   -9.0090   -4.4808   11.2936 C   0  0  0  0  0  0
   -9.9449   -4.1757   10.3029 C   0  0  0  0  0  0
   -9.7163   -4.5775    8.9933 C   0  0  0  0  0  0
   -8.5659   -5.2818    8.6547 C   0  0  0  0  0  0
   -7.6336   -5.5841    9.6502 C   0  0  0  0  0  0
   -6.8137   -5.5209   12.0790 C   0  0  0  0  0  0
   -7.5084   -5.8005   13.4644 C   0  0  0  0  0  0
   -6.7465   -5.1531   14.6259 C   0  0  0  0  0  0
   -5.3490   -4.9962   14.5632 C   0  0  0  0  0  0
   -4.6453   -4.4073   15.6161 C   0  0  0  0  0  0
   -5.3308   -3.9691   16.7417 C   0  0  0  0  0  0
   -6.7114   -4.1083   16.8340 C   0  0  0  0  0  0
   -7.4098   -4.6980   15.7775 C   0  0  0  0  0  0
   -5.7460   -4.3954   12.1799 C   0  0  0  0  0  0
   -4.9678   -4.1783   10.8854 C   0  0  0  0  0  0
   -7.6996   -7.3212   13.7246 C   0  0  0  0  0  0
   -8.4618   -7.6265   15.0107 C   0  0  0  0  0  0
   -4.6066   -3.3995   17.7481 O   0  0  0  0  0  0
  -10.6549   -4.2596    8.0553 O   0  0  0  0  0  0
   -6.5026   -6.2800    9.3212 O   0  0  0  0  0  0
   -8.7685   -4.8329   15.8637 O   0  0  0  0  0  0
   -9.2084   -4.1564   12.3141 H   0  0  0  0  0  0
  -10.8471   -3.6257   10.5609 H   0  0  0  0  0  0
   -8.3960   -5.5931    7.6277 H   0  0  0  0  0  0
   -6.2740   -6.4326   11.7942 H   0  0  0  0  0  0
   -8.5155   -5.3670   13.4183 H   0  0  0  0  0  0
   -4.7916   -5.3325   13.6900 H   0  0  0  0  0  0
   -3.5655   -4.2948   15.5500 H   0  0  0  0  0  0
   -7.2394   -3.7615   17.7180 H   0  0  0  0  0  0
   -5.0116   -4.6463   12.9530 H   0  0  0  0  0  0
   -6.2057   -3.4482   12.4860 H   0  0  0  0  0  0
   -4.1708   -3.4454   11.0475 H   0  0  0  0  0  0
   -5.6083   -3.7964   10.0852 H   0  0  0  0  0  0
   -4.5052   -5.1104   10.5459 H   0  0  0  0  0  0
   -6.7325   -7.8374   13.7487 H   0  0  0  0  0  0
   -8.2693   -7.7712   12.9042 H   0  0  0  0  0  0
   -8.6483   -8.7026   15.0877 H   0  0  0  0  0  0
   -9.4293   -7.1146   15.0233 H   0  0  0  0  0  0
   -7.8979   -7.3259   15.8986 H   0  0  0  0  0  0
   -5.2214   -3.1430   18.4683 H   0  0  0  0  0  0
  -10.3578   -4.6061    7.1868 H   0  0  0  0  0  0
   -6.5171   -6.4734    8.3604 H   0  0  0  0  0  0
   -9.0695   -4.4695   16.7227 H   0  0  0  0  0  0
  1  2  2  0  0  0
  1  6  1  0  0  0
  1  7  1  0  0  0
  2  3  1  0  0  0
  2 23  1  0  0  0
  3  4  2  0  0  0
  3 24  1  0  0  0
  4  5  1  0  0  0
  4 20  1  0  0  0
  5  6  2  0  0  0
  5 25  1  0  0  0
  6 21  1  0  0  0
  7  8  1  0  0  0
  7 15  1  0  0  0
  7 26  1  0  0  0
  8  9  1  0  0  0
  8 17  1  0  0  0
  8 27  1  0  0  0
  9 10  2  0  0  0
  9 14  1  0  0  0
 10 11  1  0  0  0
 10 28  1  0  0  0
 11 12  2  0  0  0
 11 29  1  0  0  0
 12 13  1  0  0  0
 12 19  1  0  0  0
 13 14  2  0  0  0
 13 30  1  0  0  0
 14 22  1  0  0  0
 15 16  1  0  0  0
 15 31  1  0  0  0
 15 32  1  0  0  0
 16 33  1  0  0  0
 16 34  1  0  0  0
 16 35  1  0  0  0
 17 18  1  0  0  0
 17 36  1  0  0  0
 17 37  1  0  0  0
 18 38  1  0  0  0
 18 39  1  0  0  0
 18 40  1  0  0  0
 19 41  1  0  0  0
 20 42  1  0  0  0
 21 43  1  0  0  0
 22 44  1  0  0  0
M  END
>  <Name>
lit-281

>  <Family>
B.2

>  <RBA>
32.000000

>  <RBA_avg>
32.000000

>  <Method>
CUC

>  <set>
1

$$$$
lit-282
  Cerius2 12180216413D 1   1.00000                          
 Structure written by MMmdl.
 42 43  0  0  0  0  0  0  0  0999 V2000
   -7.8551   -5.1780   10.9972 C   0  0  0  0  0  0
   -9.0291   -4.4683   11.2985 C   0  0  0  0  0  0
   -9.9563   -4.1700   10.2974 C   0  0  0  0  0  0
   -9.7156   -4.5782    8.9912 C   0  0  0  0  0  0
   -8.5611   -5.2812    8.6677 C   0  0  0  0  0  0
   -7.6333   -5.5798    9.6690 C   0  0  0  0  0  0
   -6.8233   -5.5177   12.0741 C   0  0  0  0  0  0
   -7.4964   -5.7956   13.4688 C   0  0  0  0  0  0
   -6.7186   -5.1532   14.6189 C   0  0  0  0  0  0
   -5.3240   -4.9940   14.5675 C   0  0  0  0  0  0
   -4.6361   -4.4047   15.6308 C   0  0  0  0  0  0
   -5.3369   -3.9723   16.7500 C   0  0  0  0  0  0
   -6.7170   -4.1193   16.8248 C   0  0  0  0  0  0
   -7.4054   -4.7086   15.7613 C   0  0  0  0  0  0
   -5.7460   -4.4016   12.1584 C   0  0  0  0  0  0
   -4.9761   -4.1993   10.8567 C   0  0  0  0  0  0
   -7.6885   -7.3146   13.7316 C   0  0  0  0  0  0
   -8.4620   -7.6177   15.0114 C   0  0  0  0  0  0
   -4.6306   -3.4023   17.7680 O   0  0  0  0  0  0
  -10.6440   -4.2684    8.0413 O   0  0  0  0  0  0
   -9.2336   -4.1394   12.3162 H   0  0  0  0  0  0
  -10.8614   -3.6198   10.5441 H   0  0  0  0  0  0
   -8.3651   -5.6040    7.6479 H   0  0  0  0  0  0
   -6.7322   -6.1312    9.4025 H   0  0  0  0  0  0
   -6.3055   -6.4370   11.7659 H   0  0  0  0  0  0
   -8.4995   -5.3467   13.4490 H   0  0  0  0  0  0
   -4.7584   -5.3281   13.6991 H   0  0  0  0  0  0
   -3.5563   -4.2874   15.5784 H   0  0  0  0  0  0
   -7.2728   -3.7839   17.6973 H   0  0  0  0  0  0
   -8.4872   -4.8183   15.8323 H   0  0  0  0  0  0
   -5.0075   -4.6520   12.9277 H   0  0  0  0  0  0
   -6.1973   -3.4488   12.4600 H   0  0  0  0  0  0
   -4.1711   -3.4728   11.0082 H   0  0  0  0  0  0
   -5.6192   -3.8157   10.0593 H   0  0  0  0  0  0
   -4.5245   -5.1375   10.5188 H   0  0  0  0  0  0
   -6.7200   -7.8276   13.7677 H   0  0  0  0  0  0
   -8.2492   -7.7687   12.9074 H   0  0  0  0  0  0
   -8.6485   -8.6939   15.0888 H   0  0  0  0  0  0
   -9.4300   -7.1066   15.0144 H   0  0  0  0  0  0
   -7.9062   -7.3154   15.9037 H   0  0  0  0  0  0
   -5.2599   -3.1531   18.4783 H   0  0  0  0  0  0
  -10.3333   -4.6207    7.1800 H   0  0  0  0  0  0
  1  2  2  0  0  0
  1  6  1  0  0  0
  1  7  1  0  0  0
  2  3  1  0  0  0
  2 21  1  0  0  0
  3  4  2  0  0  0
  3 22  1  0  0  0
  4  5  1  0  0  0
  4 20  1  0  0  0
  5  6  2  0  0  0
  5 23  1  0  0  0
  6 24  1  0  0  0
  7  8  1  0  0  0
  7 15  1  0  0  0
  7 25  1  0  0  0
  8  9  1  0  0  0
  8 17  1  0  0  0
  8 26  1  0  0  0
  9 10  2  0  0  0
  9 14  1  0  0  0
 10 11  1  0  0  0
 10 27  1  0  0  0
 11 12  2  0  0  0
 11 28  1  0  0  0
 12 13  1  0  0  0
 12 19  1  0  0  0
 13 14  2  0  0  0
 13 29  1  0  0  0
 14 30  1  0  0  0
 15 16  1  0  0  0
 15 31  1  0  0  0
 15 32  1  0  0  0
 16 33  1  0  0  0
 16 34  1  0  0  0
 16 35  1  0  0  0
 17 18  1  0  0  0
 17 36  1  0  0  0
 17 37  1  0  0  0
 18 38  1  0  0  0
 18 39  1  0  0  0
 18 40  1  0  0  0
 19 41  1  0  0  0
 20 42  1  0  0  0
M  END
>  <Name>
lit-282

>  <Family>
B.2

>  <RBA>
27,302

>  <RBA_avg>
165.000000

>  <Method>
CUC,LUC

>  <set>
0

$$$$
lit-283
  Cerius2 12180216413D 1   1.00000                          
 Structure written by MMmdl.
 44 45  0  0  0  0  0  0  0  0999 V2000
   -7.8572   -5.1762   10.9986 C   0  0  0  0  0  0
   -9.0305   -4.4659   11.3042 C   0  0  0  0  0  0
   -9.9452   -4.1757   10.2984 C   0  0  0  0  0  0
   -9.7143   -4.5801    8.9861 C   0  0  0  0  0  0
   -8.5611   -5.2822    8.6622 C   0  0  0  0  0  0
   -7.6351   -5.5787    9.6676 C   0  0  0  0  0  0
   -6.8237   -5.5170   12.0738 C   0  0  0  0  0  0
   -7.4952   -5.7953   13.4692 C   0  0  0  0  0  0
   -6.7154   -5.1534   14.6183 C   0  0  0  0  0  0
   -5.3201   -4.9960   14.5634 C   0  0  0  0  0  0
   -4.6480   -4.4079   15.6286 C   0  0  0  0  0  0
   -5.3403   -3.9709   16.7550 C   0  0  0  0  0  0
   -6.7190   -4.1176   16.8302 C   0  0  0  0  0  0
   -7.4037   -4.7081   15.7631 C   0  0  0  0  0  0
   -5.7460   -4.4013   12.1571 C   0  0  0  0  0  0
   -4.9766   -4.2007   10.8549 C   0  0  0  0  0  0
   -7.6873   -7.3143   13.7317 C   0  0  0  0  0  0
   -8.4618   -7.6173   15.0110 C   0  0  0  0  0  0
   -4.6245   -3.4006   17.7702 O   0  0  0  0  0  0
  -10.6503   -4.2656    8.0410 O   0  0  0  0  0  0
  -11.0805   -3.4841   10.6171 O   0  0  0  0  0  0
   -3.2905   -4.2638   15.5548 O   0  0  0  0  0  0
   -9.2341   -4.1377   12.3208 H   0  0  0  0  0  0
   -8.3643   -5.6055    7.6431 H   0  0  0  0  0  0
   -6.7331   -6.1301    9.4027 H   0  0  0  0  0  0
   -6.3068   -6.4363   11.7645 H   0  0  0  0  0  0
   -8.4982   -5.3461   13.4510 H   0  0  0  0  0  0
   -4.7557   -5.3297   13.6959 H   0  0  0  0  0  0
   -7.2759   -3.7826   17.7017 H   0  0  0  0  0  0
   -8.4858   -4.8186   15.8323 H   0  0  0  0  0  0
   -5.0072   -4.6515   12.9263 H   0  0  0  0  0  0
   -6.1966   -3.4480   12.4582 H   0  0  0  0  0  0
   -4.1713   -3.4742   11.0052 H   0  0  0  0  0  0
   -5.6200   -3.8177   10.0574 H   0  0  0  0  0  0
   -4.5255   -5.1393   10.5178 H   0  0  0  0  0  0
   -6.7189   -7.8273   13.7684 H   0  0  0  0  0  0
   -8.2475   -7.7683   12.9071 H   0  0  0  0  0  0
   -8.6473   -8.6935   15.0888 H   0  0  0  0  0  0
   -9.4301   -7.1070   15.0129 H   0  0  0  0  0  0
   -7.9068   -7.3141   15.9036 H   0  0  0  0  0  0
   -5.2517   -3.1497   18.4817 H   0  0  0  0  0  0
  -10.3423   -4.6170    7.1783 H   0  0  0  0  0  0
  -11.5736   -3.3919    9.7700 H   0  0  0  0  0  0
   -3.0298   -3.8330   16.4008 H   0  0  0  0  0  0
  1  2  2  0  0  0
  1  6  1  0  0  0
  1  7  1  0  0  0
  2  3  1  0  0  0
  2 23  1  0  0  0
  3  4  2  0  0  0
  3 21  1  0  0  0
  4  5  1  0  0  0
  4 20  1  0  0  0
  5  6  2  0  0  0
  5 24  1  0  0  0
  6 25  1  0  0  0
  7  8  1  0  0  0
  7 15  1  0  0  0
  7 26  1  0  0  0
  8  9  1  0  0  0
  8 17  1  0  0  0
  8 27  1  0  0  0
  9 10  2  0  0  0
  9 14  1  0  0  0
 10 11  1  0  0  0
 10 28  1  0  0  0
 11 12  2  0  0  0
 11 22  1  0  0  0
 12 13  1  0  0  0
 12 19  1  0  0  0
 13 14  2  0  0  0
 13 29  1  0  0  0
 14 30  1  0  0  0
 15 16  1  0  0  0
 15 31  1  0  0  0
 15 32  1  0  0  0
 16 33  1  0  0  0
 16 34  1  0  0  0
 16 35  1  0  0  0
 17 18  1  0  0  0
 17 36  1  0  0  0
 17 37  1  0  0  0
 18 38  1  0  0  0
 18 39  1  0  0  0
 18 40  1  0  0  0
 19 41  1  0  0  0
 20 42  1  0  0  0
 21 43  1  0  0  0
 22 44  1  0  0  0
M  END
>  <Name>
lit-283

>  <Family>
B.2

>  <RBA>
20.000000

>  <RBA_avg>
20.000000

>  <Method>
CUC

>  <set>
0

$$$$
lit-284
  Cerius2 12180216413D 1   1.00000                          
 Structure written by MMmdl.
 42 43  0  0  0  0  0  0  0  0999 V2000
   -7.8576   -5.1774   10.9996 C   0  0  0  0  0  0
   -9.0302   -4.4675   11.3036 C   0  0  0  0  0  0
   -9.9490   -4.1732   10.2994 C   0  0  0  0  0  0
   -9.7216   -4.5753    8.9860 C   0  0  0  0  0  0
   -8.5659   -5.2789    8.6650 C   0  0  0  0  0  0
   -7.6383   -5.5778    9.6689 C   0  0  0  0  0  0
   -6.8241   -5.5187   12.0736 C   0  0  0  0  0  0
   -7.4947   -5.7964   13.4693 C   0  0  0  0  0  0
   -6.7148   -5.1541   14.6172 C   0  0  0  0  0  0
   -5.3207   -4.9961   14.5638 C   0  0  0  0  0  0
   -4.6429   -4.4078   15.6286 C   0  0  0  0  0  0
   -5.3318   -3.9698   16.7565 C   0  0  0  0  0  0
   -6.7127   -4.1182   16.8282 C   0  0  0  0  0  0
   -7.4000   -4.7084   15.7620 C   0  0  0  0  0  0
   -5.7461   -4.4035   12.1565 C   0  0  0  0  0  0
   -4.9778   -4.2024   10.8537 C   0  0  0  0  0  0
   -7.6857   -7.3153   13.7327 C   0  0  0  0  0  0
   -8.4618   -7.6179   15.0110 C   0  0  0  0  0  0
   -4.6348   -3.3968   17.7832 O   0  0  0  0  0  0
  -10.6448   -4.2695    8.0254 O   0  0  0  0  0  0
  -11.0625   -3.4938   10.6132 F   0  0  0  0  0  0
   -3.3107   -4.2671   15.5556 F   0  0  0  0  0  0
   -9.2412   -4.1364   12.3168 H   0  0  0  0  0  0
   -8.3675   -5.6025    7.6460 H   0  0  0  0  0  0
   -6.7372   -6.1297    9.4014 H   0  0  0  0  0  0
   -6.3077   -6.4382   11.7640 H   0  0  0  0  0  0
   -8.4979   -5.3478   13.4512 H   0  0  0  0  0  0
   -4.7491   -5.3269   13.7009 H   0  0  0  0  0  0
   -7.2710   -3.7837   17.6994 H   0  0  0  0  0  0
   -8.4821   -4.8179   15.8336 H   0  0  0  0  0  0
   -5.0068   -4.6542   12.9251 H   0  0  0  0  0  0
   -6.1964   -3.4502   12.4583 H   0  0  0  0  0  0
   -4.1716   -3.4770   11.0040 H   0  0  0  0  0  0
   -5.6215   -3.8178   10.0572 H   0  0  0  0  0  0
   -4.5281   -5.1411   10.5151 H   0  0  0  0  0  0
   -6.7167   -7.8273   13.7715 H   0  0  0  0  0  0
   -8.2441   -7.7706   12.9076 H   0  0  0  0  0  0
   -8.6482   -8.6941   15.0885 H   0  0  0  0  0  0
   -9.4298   -7.1070   15.0120 H   0  0  0  0  0  0
   -7.9077   -7.3153   15.9044 H   0  0  0  0  0  0
   -5.2704   -3.1507   18.4885 H   0  0  0  0  0  0
  -10.3274   -4.6243    7.1680 H   0  0  0  0  0  0
  1  2  2  0  0  0
  1  6  1  0  0  0
  1  7  1  0  0  0
  2  3  1  0  0  0
  2 23  1  0  0  0
  3  4  2  0  0  0
  3 21  1  0  0  0
  4  5  1  0  0  0
  4 20  1  0  0  0
  5  6  2  0  0  0
  5 24  1  0  0  0
  6 25  1  0  0  0
  7  8  1  0  0  0
  7 15  1  0  0  0
  7 26  1  0  0  0
  8  9  1  0  0  0
  8 17  1  0  0  0
  8 27  1  0  0  0
  9 10  2  0  0  0
  9 14  1  0  0  0
 10 11  1  0  0  0
 10 28  1  0  0  0
 11 12  2  0  0  0
 11 22  1  0  0  0
 12 13  1  0  0  0
 12 19  1  0  0  0
 13 14  2  0  0  0
 13 29  1  0  0  0
 14 30  1  0  0  0
 15 16  1  0  0  0
 15 31  1  0  0  0
 15 32  1  0  0  0
 16 33  1  0  0  0
 16 34  1  0  0  0
 16 35  1  0  0  0
 17 18  1  0  0  0
 17 36  1  0  0  0
 17 37  1  0  0  0
 18 38  1  0  0  0
 18 39  1  0  0  0
 18 40  1  0  0  0
 19 41  1  0  0  0
 20 42  1  0  0  0
M  END
>  <Name>
lit-284

>  <Family>
B.2

>  <RBA>
16.000000

>  <RBA_avg>
16.000000

>  <Method>
CUC

>  <set>
0

$$$$
lit-285
  Cerius2 12180216413D 1   1.00000                          
 Structure written by MMmdl.
 48 49  0  0  0  0  0  0  0  0999 V2000
   -7.8176   -5.2015   10.9696 C   0  0  0  0  0  0
   -8.9930   -4.4897   11.2881 C   0  0  0  0  0  0
   -9.9382   -4.1783   10.3105 C   0  0  0  0  0  0
   -9.7216   -4.5744    9.0007 C   0  0  0  0  0  0
   -8.5738   -5.2784    8.6526 C   0  0  0  0  0  0
   -7.6110   -5.6010    9.6274 C   0  0  0  0  0  0
   -6.8061   -5.5213   12.0818 C   0  0  0  0  0  0
   -7.5161   -5.8023   13.4612 C   0  0  0  0  0  0
   -6.7685   -5.1499   14.6350 C   0  0  0  0  0  0
   -5.3681   -4.9972   14.5633 C   0  0  0  0  0  0
   -4.6494   -4.4103   15.6050 C   0  0  0  0  0  0
   -5.3208   -3.9676   16.7331 C   0  0  0  0  0  0
   -6.7012   -4.1021   16.8359 C   0  0  0  0  0  0
   -7.4409   -4.6912   15.7932 C   0  0  0  0  0  0
   -5.7467   -4.3884   12.1921 C   0  0  0  0  0  0
   -4.9614   -4.1635   10.9035 C   0  0  0  0  0  0
   -7.7065   -7.3239   13.7194 C   0  0  0  0  0  0
   -8.4612   -7.6312   15.0093 C   0  0  0  0  0  0
   -4.5883   -3.3991   17.7333 O   0  0  0  0  0  0
  -10.6651   -4.2534    8.0696 O   0  0  0  0  0  0
   -6.3878   -6.3667    9.1955 C   0  0  0  0  0  0
   -8.9335   -4.8100   15.9567 C   0  0  0  0  0  0
   -9.1854   -4.1669   12.3107 H   0  0  0  0  0  0
  -10.8367   -3.6282   10.5798 H   0  0  0  0  0  0
   -8.4178   -5.5833    7.6191 H   0  0  0  0  0  0
   -6.2536   -6.4276   11.8121 H   0  0  0  0  0  0
   -8.5235   -5.3772   13.3987 H   0  0  0  0  0  0
   -4.8178   -5.3378   13.6870 H   0  0  0  0  0  0
   -3.5701   -4.3037   15.5271 H   0  0  0  0  0  0
   -7.2149   -3.7490   17.7286 H   0  0  0  0  0  0
   -5.0158   -4.6357   12.9698 H   0  0  0  0  0  0
   -6.2137   -3.4447   12.4971 H   0  0  0  0  0  0
   -4.1760   -3.4191   11.0703 H   0  0  0  0  0  0
   -5.6006   -3.7925   10.0971 H   0  0  0  0  0  0
   -4.4825   -5.0895   10.5701 H   0  0  0  0  0  0
   -6.7403   -7.8414   13.7370 H   0  0  0  0  0  0
   -8.2811   -7.7721   12.9014 H   0  0  0  0  0  0
   -8.6394   -8.7085   15.0897 H   0  0  0  0  0  0
   -9.4326   -7.1271   15.0241 H   0  0  0  0  0  0
   -7.8963   -7.3241   15.8942 H   0  0  0  0  0  0
   -5.1991   -3.1398   18.4557 H   0  0  0  0  0  0
  -10.3714   -4.5979    7.1993 H   0  0  0  0  0  0
   -6.3253   -7.3189    9.7316 H   0  0  0  0  0  0
   -5.4848   -5.7762    9.3793 H   0  0  0  0  0  0
   -6.4135   -6.5980    8.1252 H   0  0  0  0  0  0
   -9.4486   -4.2641   15.1601 H   0  0  0  0  0  0
   -9.2700   -4.3874   16.9096 H   0  0  0  0  0  0
   -9.2353   -5.8619   15.9423 H   0  0  0  0  0  0
  1  2  2  0  0  0
  1  6  1  0  0  0
  1  7  1  0  0  0
  2  3  1  0  0  0
  2 23  1  0  0  0
  3  4  2  0  0  0
  3 24  1  0  0  0
  4  5  1  0  0  0
  4 20  1  0  0  0
  5  6  2  0  0  0
  5 25  1  0  0  0
  6 21  1  0  0  0
  7  8  1  0  0  0
  7 15  1  0  0  0
  7 26  1  0  0  0
  8  9  1  0  0  0
  8 17  1  0  0  0
  8 27  1  0  0  0
  9 10  2  0  0  0
  9 14  1  0  0  0
 10 11  1  0  0  0
 10 28  1  0  0  0
 11 12  2  0  0  0
 11 29  1  0  0  0
 12 13  1  0  0  0
 12 19  1  0  0  0
 13 14  2  0  0  0
 13 30  1  0  0  0
 14 22  1  0  0  0
 15 16  1  0  0  0
 15 31  1  0  0  0
 15 32  1  0  0  0
 16 33  1  0  0  0
 16 34  1  0  0  0
 16 35  1  0  0  0
 17 18  1  0  0  0
 17 36  1  0  0  0
 17 37  1  0  0  0
 18 38  1  0  0  0
 18 39  1  0  0  0
 18 40  1  0  0  0
 19 41  1  0  0  0
 20 42  1  0  0  0
 21 43  1  0  0  0
 21 44  1  0  0  0
 21 45  1  0  0  0
 22 46  1  0  0  0
 22 47  1  0  0  0
 22 48  1  0  0  0
M  END
>  <Name>
lit-285

>  <Family>
B.2

>  <RBA>
8.500000

>  <RBA_avg>
8.500000

>  <Method>
CUC

>  <set>
0

$$$$
lit-286
  Cerius2 12180216413D 1   1.00000                          
 Structure written by MMmdl.
 42 43  0  0  0  0  0  0  0  0999 V2000
   -7.8526   -5.1783   11.0002 C   0  0  0  0  0  0
   -9.0270   -4.4691   11.3010 C   0  0  0  0  0  0
   -9.9533   -4.1720   10.2975 C   0  0  0  0  0  0
   -9.7134   -4.5800    8.9897 C   0  0  0  0  0  0
   -8.5602   -5.2824    8.6656 C   0  0  0  0  0  0
   -7.6423   -5.5745    9.6716 C   0  0  0  0  0  0
   -6.8220   -5.5178   12.0747 C   0  0  0  0  0  0
   -7.4973   -5.7960   13.4678 C   0  0  0  0  0  0
   -6.7201   -5.1552   14.6154 C   0  0  0  0  0  0
   -5.3256   -4.9951   14.5645 C   0  0  0  0  0  0
   -4.6396   -4.4051   15.6298 C   0  0  0  0  0  0
   -5.3401   -3.9721   16.7506 C   0  0  0  0  0  0
   -6.7188   -4.1185   16.8261 C   0  0  0  0  0  0
   -7.3948   -4.7074   15.7603 C   0  0  0  0  0  0
   -5.7458   -4.4008   12.1603 C   0  0  0  0  0  0
   -4.9761   -4.1986   10.8584 C   0  0  0  0  0  0
   -7.6897   -7.3151   13.7305 C   0  0  0  0  0  0
   -8.4621   -7.6162   15.0116 C   0  0  0  0  0  0
   -4.6307   -3.4022   17.7669 O   0  0  0  0  0  0
  -10.6438   -4.2685    8.0420 O   0  0  0  0  0  0
   -6.5336   -6.2552    9.3447 F   0  0  0  0  0  0
   -8.7268   -4.8409   15.8460 F   0  0  0  0  0  0
   -9.2336   -4.1397   12.3181 H   0  0  0  0  0  0
  -10.8591   -3.6217   10.5437 H   0  0  0  0  0  0
   -8.3571   -5.6088    7.6508 H   0  0  0  0  0  0
   -6.3000   -6.4354   11.7713 H   0  0  0  0  0  0
   -8.5012   -5.3511   13.4431 H   0  0  0  0  0  0
   -4.7582   -5.3281   13.6969 H   0  0  0  0  0  0
   -3.5591   -4.2873   15.5778 H   0  0  0  0  0  0
   -7.2813   -3.7860   17.6926 H   0  0  0  0  0  0
   -5.0072   -4.6512   12.9296 H   0  0  0  0  0  0
   -6.1972   -3.4482   12.4626 H   0  0  0  0  0  0
   -4.1710   -3.4721   11.0098 H   0  0  0  0  0  0
   -5.6194   -3.8148   10.0611 H   0  0  0  0  0  0
   -4.5248   -5.1368   10.5204 H   0  0  0  0  0  0
   -6.7218   -7.8293   13.7652 H   0  0  0  0  0  0
   -8.2521   -7.7689   12.9072 H   0  0  0  0  0  0
   -8.6503   -8.6920   15.0898 H   0  0  0  0  0  0
   -9.4292   -7.1034   15.0157 H   0  0  0  0  0  0
   -7.9046   -7.3145   15.9030 H   0  0  0  0  0  0
   -5.2550   -3.1506   18.4808 H   0  0  0  0  0  0
  -10.3384   -4.6182    7.1776 H   0  0  0  0  0  0
  1  2  2  0  0  0
  1  6  1  0  0  0
  1  7  1  0  0  0
  2  3  1  0  0  0
  2 23  1  0  0  0
  3  4  2  0  0  0
  3 24  1  0  0  0
  4  5  1  0  0  0
  4 20  1  0  0  0
  5  6  2  0  0  0
  5 25  1  0  0  0
  6 21  1  0  0  0
  7  8  1  0  0  0
  7 15  1  0  0  0
  7 26  1  0  0  0
  8  9  1  0  0  0
  8 17  1  0  0  0
  8 27  1  0  0  0
  9 10  2  0  0  0
  9 14  1  0  0  0
 10 11  1  0  0  0
 10 28  1  0  0  0
 11 12  2  0  0  0
 11 29  1  0  0  0
 12 13  1  0  0  0
 12 19  1  0  0  0
 13 14  2  0  0  0
 13 30  1  0  0  0
 14 22  1  0  0  0
 15 16  1  0  0  0
 15 31  1  0  0  0
 15 32  1  0  0  0
 16 33  1  0  0  0
 16 34  1  0  0  0
 16 35  1  0  0  0
 17 18  1  0  0  0
 17 36  1  0  0  0
 17 37  1  0  0  0
 18 38  1  0  0  0
 18 39  1  0  0  0
 18 40  1  0  0  0
 19 41  1  0  0  0
 20 42  1  0  0  0
M  END
>  <Name>
lit-286

>  <Family>
B.2

>  <RBA>
6.500000

>  <RBA_avg>
6.500000

>  <Method>
CUC

>  <set>
0

$$$$
lit-287
  Cerius2 12180216413D 1   1.00000                          
 Structure written by MMmdl.
 48 49  0  0  0  0  0  0  0  0999 V2000
   -7.8555   -5.1775   10.9973 C   0  0  0  0  0  0
   -9.0301   -4.4668   11.3006 C   0  0  0  0  0  0
   -9.9711   -4.1599   10.3053 C   0  0  0  0  0  0
   -9.7209   -4.5748    8.9942 C   0  0  0  0  0  0
   -8.5633   -5.2786    8.6728 C   0  0  0  0  0  0
   -7.6346   -5.5783    9.6710 C   0  0  0  0  0  0
   -6.8233   -5.5190   12.0738 C   0  0  0  0  0  0
   -7.4962   -5.7963   13.4688 C   0  0  0  0  0  0
   -6.7175   -5.1542   14.6187 C   0  0  0  0  0  0
   -5.3215   -4.9953   14.5662 C   0  0  0  0  0  0
   -4.6171   -4.4048   15.6270 C   0  0  0  0  0  0
   -5.3307   -3.9726   16.7485 C   0  0  0  0  0  0
   -6.7133   -4.1215   16.8206 C   0  0  0  0  0  0
   -7.4032   -4.7103   15.7595 C   0  0  0  0  0  0
   -5.7436   -4.4050   12.1575 C   0  0  0  0  0  0
   -4.9772   -4.2016   10.8540 C   0  0  0  0  0  0
   -7.6902   -7.3151   13.7313 C   0  0  0  0  0  0
   -8.4624   -7.6177   15.0121 C   0  0  0  0  0  0
   -4.6489   -3.3967   17.7838 O   0  0  0  0  0  0
  -10.6347   -4.2785    8.0217 O   0  0  0  0  0  0
  -11.2191   -3.4002   10.6545 C   0  0  0  0  0  0
   -3.1255   -4.2455   15.5473 C   0  0  0  0  0  0
   -9.2165   -4.1464   12.3254 H   0  0  0  0  0  0
   -8.3666   -5.6018    7.6530 H   0  0  0  0  0  0
   -6.7342   -6.1298    9.4028 H   0  0  0  0  0  0
   -6.3073   -6.4390   11.7650 H   0  0  0  0  0  0
   -8.4989   -5.3466   13.4494 H   0  0  0  0  0  0
   -4.7731   -5.3360   13.6882 H   0  0  0  0  0  0
   -7.2703   -3.7861   17.6925 H   0  0  0  0  0  0
   -8.4847   -4.8194   15.8317 H   0  0  0  0  0  0
   -5.0033   -4.6589   12.9241 H   0  0  0  0  0  0
   -6.1919   -3.4520   12.4628 H   0  0  0  0  0  0
   -4.1710   -3.4761   11.0044 H   0  0  0  0  0  0
   -5.6222   -3.8160   10.0591 H   0  0  0  0  0  0
   -4.5275   -5.1397   10.5135 H   0  0  0  0  0  0
   -6.7225   -7.8298   13.7657 H   0  0  0  0  0  0
   -8.2528   -7.7680   12.9077 H   0  0  0  0  0  0
   -8.6499   -8.6937   15.0894 H   0  0  0  0  0  0
   -9.4297   -7.1054   15.0165 H   0  0  0  0  0  0
   -7.9049   -7.3162   15.9037 H   0  0  0  0  0  0
   -5.2921   -3.1537   18.4827 H   0  0  0  0  0  0
  -10.3093   -4.6378    7.1695 H   0  0  0  0  0  0
  -12.1047   -4.0007   10.4227 H   0  0  0  0  0  0
  -11.2600   -2.4612   10.0931 H   0  0  0  0  0  0
  -11.2547   -3.1524   11.7205 H   0  0  0  0  0  0
   -2.6425   -4.7889   16.3657 H   0  0  0  0  0  0
   -2.8547   -3.1863   15.6053 H   0  0  0  0  0  0
   -2.7282   -4.6396   14.6061 H   0  0  0  0  0  0
  1  2  2  0  0  0
  1  6  1  0  0  0
  1  7  1  0  0  0
  2  3  1  0  0  0
  2 23  1  0  0  0
  3  4  2  0  0  0
  3 21  1  0  0  0
  4  5  1  0  0  0
  4 20  1  0  0  0
  5  6  2  0  0  0
  5 24  1  0  0  0
  6 25  1  0  0  0
  7  8  1  0  0  0
  7 15  1  0  0  0
  7 26  1  0  0  0
  8  9  1  0  0  0
  8 17  1  0  0  0
  8 27  1  0  0  0
  9 10  2  0  0  0
  9 14  1  0  0  0
 10 11  1  0  0  0
 10 28  1  0  0  0
 11 12  2  0  0  0
 11 22  1  0  0  0
 12 13  1  0  0  0
 12 19  1  0  0  0
 13 14  2  0  0  0
 13 29  1  0  0  0
 14 30  1  0  0  0
 15 16  1  0  0  0
 15 31  1  0  0  0
 15 32  1  0  0  0
 16 33  1  0  0  0
 16 34  1  0  0  0
 16 35  1  0  0  0
 17 18  1  0  0  0
 17 36  1  0  0  0
 17 37  1  0  0  0
 18 38  1  0  0  0
 18 39  1  0  0  0
 18 40  1  0  0  0
 19 41  1  0  0  0
 20 42  1  0  0  0
 21 43  1  0  0  0
 21 44  1  0  0  0
 21 45  1  0  0  0
 22 46  1  0  0  0
 22 47  1  0  0  0
 22 48  1  0  0  0
M  END
>  <Name>
lit-287

>  <Family>
B.2

>  <RBA>
8.100000

>  <RBA_avg>
8.100000

>  <Method>
CUC

>  <set>
0

$$$$
lit-288
  Cerius2 12180216413D 1   1.00000                          
 Structure written by MMmdl.
 46 47  0  0  0  0  0  0  0  0999 V2000
   -7.8516   -5.1726   10.9959 C   0  0  0  0  0  0
   -9.0317   -4.4675   11.3009 C   0  0  0  0  0  0
   -9.9619   -4.1415   10.3083 C   0  0  0  0  0  0
   -9.7189   -4.5786    8.9983 C   0  0  0  0  0  0
   -8.5580   -5.2765    8.6715 C   0  0  0  0  0  0
   -7.6255   -5.5680    9.6681 C   0  0  0  0  0  0
   -6.8228   -5.5179   12.0745 C   0  0  0  0  0  0
   -7.4988   -5.7955   13.4680 C   0  0  0  0  0  0
   -6.7199   -5.1589   14.6206 C   0  0  0  0  0  0
   -5.3228   -4.9934   14.5640 C   0  0  0  0  0  0
   -4.6135   -4.4250   15.6274 C   0  0  0  0  0  0
   -5.3337   -3.9720   16.7419 C   0  0  0  0  0  0
   -6.7163   -4.1255   16.8218 C   0  0  0  0  0  0
   -7.4056   -4.7218   15.7649 C   0  0  0  0  0  0
   -5.7405   -4.4069   12.1614 C   0  0  0  0  0  0
   -4.9761   -4.1991   10.8574 C   0  0  0  0  0  0
   -7.6992   -7.3140   13.7274 C   0  0  0  0  0  0
   -8.4631   -7.6160   15.0134 C   0  0  0  0  0  0
   -4.6484   -3.3770   17.7711 O   0  0  0  0  0  0
  -10.6469   -4.2971    8.0276 O   0  0  0  0  0  0
  -11.1508   -3.5087   10.6463 N   0  0  0  0  0  0
   -3.2463   -4.2081   15.5181 N   0  0  0  0  0  0
   -9.2286   -4.1647   12.3281 H   0  0  0  0  0  0
   -8.3658   -5.6033    7.6524 H   0  0  0  0  0  0
   -6.7224   -6.1151    9.4001 H   0  0  0  0  0  0
   -6.3084   -6.4387   11.7655 H   0  0  0  0  0  0
   -8.4999   -5.3420   13.4479 H   0  0  0  0  0  0
   -4.7771   -5.3153   13.6785 H   0  0  0  0  0  0
   -7.2710   -3.7848   17.6927 H   0  0  0  0  0  0
   -8.4867   -4.8354   15.8390 H   0  0  0  0  0  0
   -4.9993   -4.6661   12.9253 H   0  0  0  0  0  0
   -6.1861   -3.4544   12.4722 H   0  0  0  0  0  0
   -4.1678   -3.4763   11.0097 H   0  0  0  0  0  0
   -5.6218   -3.8081   10.0656 H   0  0  0  0  0  0
   -4.5297   -5.1367   10.5114 H   0  0  0  0  0  0
   -6.7342   -7.8342   13.7528 H   0  0  0  0  0  0
   -8.2709   -7.7613   12.9070 H   0  0  0  0  0  0
   -8.6555   -8.6912   15.0895 H   0  0  0  0  0  0
   -9.4278   -7.0988   15.0265 H   0  0  0  0  0  0
   -7.8973   -7.3196   15.9014 H   0  0  0  0  0  0
   -5.2945   -3.1186   18.4611 H   0  0  0  0  0  0
  -10.3285   -4.6726    7.1804 H   0  0  0  0  0  0
  -11.7476   -3.1832    9.8883 H   0  0  0  0  0  0
  -11.2519   -3.0358   11.5394 H   0  0  0  0  0  0
   -2.7458   -3.9034   16.3508 H   0  0  0  0  0  0
   -2.6992   -4.6875   14.8091 H   0  0  0  0  0  0
  1  2  2  0  0  0
  1  6  1  0  0  0
  1  7  1  0  0  0
  2  3  1  0  0  0
  2 23  1  0  0  0
  3  4  2  0  0  0
  3 21  1  0  0  0
  4  5  1  0  0  0
  4 20  1  0  0  0
  5  6  2  0  0  0
  5 24  1  0  0  0
  6 25  1  0  0  0
  7  8  1  0  0  0
  7 15  1  0  0  0
  7 26  1  0  0  0
  8  9  1  0  0  0
  8 17  1  0  0  0
  8 27  1  0  0  0
  9 10  2  0  0  0
  9 14  1  0  0  0
 10 11  1  0  0  0
 10 28  1  0  0  0
 11 12  2  0  0  0
 11 22  1  0  0  0
 12 13  1  0  0  0
 12 19  1  0  0  0
 13 14  2  0  0  0
 13 29  1  0  0  0
 14 30  1  0  0  0
 15 16  1  0  0  0
 15 31  1  0  0  0
 15 32  1  0  0  0
 16 33  1  0  0  0
 16 34  1  0  0  0
 16 35  1  0  0  0
 17 18  1  0  0  0
 17 36  1  0  0  0
 17 37  1  0  0  0
 18 38  1  0  0  0
 18 39  1  0  0  0
 18 40  1  0  0  0
 19 41  1  0  0  0
 20 42  1  0  0  0
 21 43  1  0  0  0
 21 44  1  0  0  0
 22 45  1  0  0  0
 22 46  1  0  0  0
M  END
>  <Name>
lit-288

>  <Family>
B.2

>  <RBA>
5.600000

>  <RBA_avg>
5.600000

>  <Method>
CUC

>  <set>
0

$$$$
lit-289
  Cerius2 12180216413D 1   1.00000                          
 Structure written by MMmdl.
 54 55  0  0  0  0  0  0  0  0999 V2000
   -7.8097   -5.2060   10.9526 C   0  0  0  0  0  0
   -8.9808   -4.4828   11.2711 C   0  0  0  0  0  0
   -9.9336   -4.1716   10.3009 C   0  0  0  0  0  0
   -9.7294   -4.5730    8.9923 C   0  0  0  0  0  0
   -8.5806   -5.2712    8.6385 C   0  0  0  0  0  0
   -7.6004   -5.5869    9.6037 C   0  0  0  0  0  0
   -6.8093   -5.5287   12.0770 C   0  0  0  0  0  0
   -7.5186   -5.8032   13.4674 C   0  0  0  0  0  0
   -6.7800   -5.1523   14.6507 C   0  0  0  0  0  0
   -5.3763   -5.0099   14.5808 C   0  0  0  0  0  0
   -4.6499   -4.4169   15.6137 C   0  0  0  0  0  0
   -5.3142   -3.9607   16.7387 C   0  0  0  0  0  0
   -6.6929   -4.0992   16.8500 C   0  0  0  0  0  0
   -7.4440   -4.7052   15.8202 C   0  0  0  0  0  0
   -5.7580   -4.3883   12.1820 C   0  0  0  0  0  0
   -4.9636   -4.1667   10.8989 C   0  0  0  0  0  0
   -7.6921   -7.3246   13.7355 C   0  0  0  0  0  0
   -8.4634   -7.6378   15.0135 C   0  0  0  0  0  0
   -4.5773   -3.3815   17.7290 O   0  0  0  0  0  0
  -10.6812   -4.2584    8.0680 O   0  0  0  0  0  0
   -6.5259   -7.8383    9.2177 C   0  0  0  0  0  0
   -6.3723   -6.3289    9.1171 C   0  0  0  0  0  0
   -9.7109   -3.6429   15.4976 C   0  0  0  0  0  0
   -8.9371   -4.8323   16.0438 C   0  0  0  0  0  0
   -9.1658   -4.1481   12.2911 H   0  0  0  0  0  0
  -10.8282   -3.6182   10.5763 H   0  0  0  0  0  0
   -8.4302   -5.5748    7.6034 H   0  0  0  0  0  0
   -6.2681   -6.4420   11.8161 H   0  0  0  0  0  0
   -8.5209   -5.3724   13.3973 H   0  0  0  0  0  0
   -4.8253   -5.3653   13.7108 H   0  0  0  0  0  0
   -3.5705   -4.3162   15.5300 H   0  0  0  0  0  0
   -7.2013   -3.7413   17.7443 H   0  0  0  0  0  0
   -5.0322   -4.6133   12.9706 H   0  0  0  0  0  0
   -6.2389   -3.4445   12.4629 H   0  0  0  0  0  0
   -4.2041   -3.3944   11.0595 H   0  0  0  0  0  0
   -5.6030   -3.8334   10.0765 H   0  0  0  0  0  0
   -4.4496   -5.0832   10.5935 H   0  0  0  0  0  0
   -6.7168   -7.8219   13.7849 H   0  0  0  0  0  0
   -8.2386   -7.7951   12.9113 H   0  0  0  0  0  0
   -8.6005   -8.7199   15.1102 H   0  0  0  0  0  0
   -9.4550   -7.1753   14.9955 H   0  0  0  0  0  0
   -7.9321   -7.2924   15.9049 H   0  0  0  0  0  0
   -5.1848   -3.1144   18.4513 H   0  0  0  0  0  0
  -10.3942   -4.6068    7.1971 H   0  0  0  0  0  0
   -5.6358   -8.3353    8.8191 H   0  0  0  0  0  0
   -7.3932   -8.1888    8.6481 H   0  0  0  0  0  0
   -6.6531   -8.1603   10.2543 H   0  0  0  0  0  0
   -5.4779   -5.9974    9.6529 H   0  0  0  0  0  0
   -6.1807   -6.0616    8.0696 H   0  0  0  0  0  0
  -10.7778   -3.7549   15.7156 H   0  0  0  0  0  0
   -9.5981   -3.5544   14.4141 H   0  0  0  0  0  0
   -9.3695   -2.7051   15.9486 H   0  0  0  0  0  0
   -9.1347   -4.9190   17.1203 H   0  0  0  0  0  0
   -9.3176   -5.7660   15.6190 H   0  0  0  0  0  0
  1  2  2  0  0  0
  1  6  1  0  0  0
  1  7  1  0  0  0
  2  3  1  0  0  0
  2 25  1  0  0  0
  3  4  2  0  0  0
  3 26  1  0  0  0
  4  5  1  0  0  0
  4 20  1  0  0  0
  5  6  2  0  0  0
  5 27  1  0  0  0
  6 22  1  0  0  0
  7  8  1  0  0  0
  7 15  1  0  0  0
  7 28  1  0  0  0
  8  9  1  0  0  0
  8 17  1  0  0  0
  8 29  1  0  0  0
  9 10  2  0  0  0
  9 14  1  0  0  0
 10 11  1  0  0  0
 10 30  1  0  0  0
 11 12  2  0  0  0
 11 31  1  0  0  0
 12 13  1  0  0  0
 12 19  1  0  0  0
 13 14  2  0  0  0
 13 32  1  0  0  0
 14 24  1  0  0  0
 15 16  1  0  0  0
 15 33  1  0  0  0
 15 34  1  0  0  0
 16 35  1  0  0  0
 16 36  1  0  0  0
 16 37  1  0  0  0
 17 18  1  0  0  0
 17 38  1  0  0  0
 17 39  1  0  0  0
 18 40  1  0  0  0
 18 41  1  0  0  0
 18 42  1  0  0  0
 19 43  1  0  0  0
 20 44  1  0  0  0
 21 22  1  0  0  0
 21 45  1  0  0  0
 21 46  1  0  0  0
 21 47  1  0  0  0
 22 48  1  0  0  0
 22 49  1  0  0  0
 23 24  1  0  0  0
 23 50  1  0  0  0
 23 51  1  0  0  0
 23 52  1  0  0  0
 24 53  1  0  0  0
 24 54  1  0  0  0
M  END
>  <Name>
lit-289

>  <Family>
B.2

>  <RBA>
3.700000

>  <RBA_avg>
3.700000

>  <Method>
CUC

>  <set>
0

$$$$
lit-290
  Cerius2 12180216413D 1   1.00000                          
 Structure written by MMmdl.
 42 43  0  0  0  0  0  0  0  0999 V2000
   -7.8141   -5.2026   10.9722 C   0  0  0  0  0  0
   -8.9901   -4.4913   11.2896 C   0  0  0  0  0  0
   -9.9349   -4.1804   10.3098 C   0  0  0  0  0  0
   -9.7196   -4.5762    8.9981 C   0  0  0  0  0  0
   -8.5735   -5.2798    8.6495 C   0  0  0  0  0  0
   -7.6243   -5.5930    9.6309 C   0  0  0  0  0  0
   -6.8044   -5.5219   12.0824 C   0  0  0  0  0  0
   -7.5169   -5.8030   13.4598 C   0  0  0  0  0  0
   -6.7709   -5.1519   14.6318 C   0  0  0  0  0  0
   -5.3706   -4.9981   14.5612 C   0  0  0  0  0  0
   -4.6532   -4.4105   15.6051 C   0  0  0  0  0  0
   -5.3242   -3.9672   16.7350 C   0  0  0  0  0  0
   -6.7031   -4.1007   16.8383 C   0  0  0  0  0  0
   -7.4250   -4.6896   15.7920 C   0  0  0  0  0  0
   -5.7456   -4.3885   12.1944 C   0  0  0  0  0  0
   -4.9617   -4.1633   10.9048 C   0  0  0  0  0  0
   -7.7078   -7.3246   13.7177 C   0  0  0  0  0  0
   -8.4610   -7.6296   15.0091 C   0  0  0  0  0  0
   -4.5888   -3.3988   17.7334 O   0  0  0  0  0  0
  -10.6653   -4.2539    8.0695 O   0  0  0  0  0  0
   -6.2313   -6.4778    9.1100 Cl  0  0  0  0  0  0
   -9.1386   -4.8090   16.0014 Cl  0  0  0  0  0  0
   -9.1846   -4.1687   12.3119 H   0  0  0  0  0  0
  -10.8339   -3.6302   10.5792 H   0  0  0  0  0  0
   -8.4102   -5.5891    7.6202 H   0  0  0  0  0  0
   -6.2466   -6.4259   11.8189 H   0  0  0  0  0  0
   -8.5254   -5.3834   13.3912 H   0  0  0  0  0  0
   -4.8185   -5.3372   13.6853 H   0  0  0  0  0  0
   -3.5735   -4.3036   15.5275 H   0  0  0  0  0  0
   -7.2245   -3.7500   17.7253 H   0  0  0  0  0  0
   -5.0140   -4.6373   12.9709 H   0  0  0  0  0  0
   -6.2120   -3.4450   12.5014 H   0  0  0  0  0  0
   -4.1718   -3.4240   11.0726 H   0  0  0  0  0  0
   -5.6005   -3.7855   10.1011 H   0  0  0  0  0  0
   -4.4890   -5.0908   10.5667 H   0  0  0  0  0  0
   -6.7424   -7.8439   13.7330 H   0  0  0  0  0  0
   -8.2849   -7.7716   12.9008 H   0  0  0  0  0  0
   -8.6469   -8.7058   15.0872 H   0  0  0  0  0  0
   -9.4285   -7.1181   15.0284 H   0  0  0  0  0  0
   -7.8912   -7.3292   15.8931 H   0  0  0  0  0  0
   -5.1951   -3.1380   18.4595 H   0  0  0  0  0  0
  -10.3769   -4.5966    7.1966 H   0  0  0  0  0  0
  1  2  2  0  0  0
  1  6  1  0  0  0
  1  7  1  0  0  0
  2  3  1  0  0  0
  2 23  1  0  0  0
  3  4  2  0  0  0
  3 24  1  0  0  0
  4  5  1  0  0  0
  4 20  1  0  0  0
  5  6  2  0  0  0
  5 25  1  0  0  0
  6 21  1  0  0  0
  7  8  1  0  0  0
  7 15  1  0  0  0
  7 26  1  0  0  0
  8  9  1  0  0  0
  8 17  1  0  0  0
  8 27  1  0  0  0
  9 10  2  0  0  0
  9 14  1  0  0  0
 10 11  1  0  0  0
 10 28  1  0  0  0
 11 12  2  0  0  0
 11 29  1  0  0  0
 12 13  1  0  0  0
 12 19  1  0  0  0
 13 14  2  0  0  0
 13 30  1  0  0  0
 14 22  1  0  0  0
 15 16  1  0  0  0
 15 31  1  0  0  0
 15 32  1  0  0  0
 16 33  1  0  0  0
 16 34  1  0  0  0
 16 35  1  0  0  0
 17 18  1  0  0  0
 17 36  1  0  0  0
 17 37  1  0  0  0
 18 38  1  0  0  0
 18 39  1  0  0  0
 18 40  1  0  0  0
 19 41  1  0  0  0
 20 42  1  0  0  0
M  END
>  <Name>
lit-290

>  <Family>
B.2

>  <RBA>
2.200000

>  <RBA_avg>
2.200000

>  <Method>
CUC

>  <set>
0

$$$$
lit-291
  Cerius2 12180216413D 1   1.00000                          
 Structure written by MMmdl.
 42 43  0  0  0  0  0  0  0  0999 V2000
   -7.8067   -5.2072   10.9672 C   0  0  0  0  0  0
   -8.9829   -4.4956   11.2873 C   0  0  0  0  0  0
   -9.9314   -4.1821   10.3119 C   0  0  0  0  0  0
   -9.7207   -4.5756    8.9997 C   0  0  0  0  0  0
   -8.5761   -5.2794    8.6466 C   0  0  0  0  0  0
   -7.6218   -5.5958    9.6244 C   0  0  0  0  0  0
   -6.8016   -5.5224   12.0835 C   0  0  0  0  0  0
   -7.5202   -5.8039   13.4588 C   0  0  0  0  0  0
   -6.7806   -5.1510   14.6346 C   0  0  0  0  0  0
   -5.3793   -4.9986   14.5611 C   0  0  0  0  0  0
   -4.6559   -4.4118   15.6010 C   0  0  0  0  0  0
   -5.3213   -3.9663   16.7324 C   0  0  0  0  0  0
   -6.7003   -4.0972   16.8403 C   0  0  0  0  0  0
   -7.4294   -4.6861   15.7971 C   0  0  0  0  0  0
   -5.7457   -4.3862   12.1998 C   0  0  0  0  0  0
   -4.9590   -4.1568   10.9126 C   0  0  0  0  0  0
   -7.7108   -7.3260   13.7156 C   0  0  0  0  0  0
   -8.4608   -7.6326   15.0086 C   0  0  0  0  0  0
   -4.5815   -3.3988   17.7278 O   0  0  0  0  0  0
  -10.6691   -4.2513    8.0745 O   0  0  0  0  0  0
   -6.1002   -6.5693    9.0249 Br  0  0  0  0  0  0
   -9.3116   -4.8036   16.0534 Br  0  0  0  0  0  0
   -9.1753   -4.1738   12.3101 H   0  0  0  0  0  0
  -10.8290   -3.6320   10.5858 H   0  0  0  0  0  0
   -8.4210   -5.5851    7.6146 H   0  0  0  0  0  0
   -6.2388   -6.4238   11.8264 H   0  0  0  0  0  0
   -8.5286   -5.3883   13.3834 H   0  0  0  0  0  0
   -4.8298   -5.3391   13.6840 H   0  0  0  0  0  0
   -3.5764   -4.3074   15.5187 H   0  0  0  0  0  0
   -7.2131   -3.7429   17.7313 H   0  0  0  0  0  0
   -5.0154   -4.6344   12.9777 H   0  0  0  0  0  0
   -6.2148   -3.4443   12.5070 H   0  0  0  0  0  0
   -4.1737   -3.4131   11.0831 H   0  0  0  0  0  0
   -5.5971   -3.7828   10.1068 H   0  0  0  0  0  0
   -4.4797   -5.0816   10.5764 H   0  0  0  0  0  0
   -6.7459   -7.8460   13.7280 H   0  0  0  0  0  0
   -8.2903   -7.7719   12.8997 H   0  0  0  0  0  0
   -8.6442   -8.7091   15.0871 H   0  0  0  0  0  0
   -9.4297   -7.1235   15.0295 H   0  0  0  0  0  0
   -7.8900   -7.3307   15.8915 H   0  0  0  0  0  0
   -5.1850   -3.1364   18.4554 H   0  0  0  0  0  0
  -10.3827   -4.5923    7.2004 H   0  0  0  0  0  0
  1  2  2  0  0  0
  1  6  1  0  0  0
  1  7  1  0  0  0
  2  3  1  0  0  0
  2 23  1  0  0  0
  3  4  2  0  0  0
  3 24  1  0  0  0
  4  5  1  0  0  0
  4 20  1  0  0  0
  5  6  2  0  0  0
  5 25  1  0  0  0
  6 21  1  0  0  0
  7  8  1  0  0  0
  7 15  1  0  0  0
  7 26  1  0  0  0
  8  9  1  0  0  0
  8 17  1  0  0  0
  8 27  1  0  0  0
  9 10  2  0  0  0
  9 14  1  0  0  0
 10 11  1  0  0  0
 10 28  1  0  0  0
 11 12  2  0  0  0
 11 29  1  0  0  0
 12 13  1  0  0  0
 12 19  1  0  0  0
 13 14  2  0  0  0
 13 30  1  0  0  0
 14 22  1  0  0  0
 15 16  1  0  0  0
 15 31  1  0  0  0
 15 32  1  0  0  0
 16 33  1  0  0  0
 16 34  1  0  0  0
 16 35  1  0  0  0
 17 18  1  0  0  0
 17 36  1  0  0  0
 17 37  1  0  0  0
 18 38  1  0  0  0
 18 39  1  0  0  0
 18 40  1  0  0  0
 19 41  1  0  0  0
 20 42  1  0  0  0
M  END
>  <Name>
lit-291

>  <Family>
B.2

>  <RBA>
1.800000

>  <RBA_avg>
1.800000

>  <Method>
CUC

>  <set>
0

$$$$
lit-292
  Cerius2 12180216413D 1   1.00000                          
 Structure written by MMmdl.
 42 43  0  0  0  0  0  0  0  0999 V2000
   -7.8583   -5.1773   10.9998 C   0  0  0  0  0  0
   -9.0313   -4.4665   11.3056 C   0  0  0  0  0  0
   -9.9606   -4.1655   10.3059 C   0  0  0  0  0  0
   -9.7276   -4.5712    8.9893 C   0  0  0  0  0  0
   -8.5688   -5.2761    8.6705 C   0  0  0  0  0  0
   -7.6401   -5.5767    9.6710 C   0  0  0  0  0  0
   -6.8243   -5.5198   12.0732 C   0  0  0  0  0  0
   -7.4944   -5.7971   13.4693 C   0  0  0  0  0  0
   -6.7136   -5.1549   14.6170 C   0  0  0  0  0  0
   -5.3184   -4.9972   14.5625 C   0  0  0  0  0  0
   -4.6281   -4.4077   15.6254 C   0  0  0  0  0  0
   -5.3246   -3.9700   16.7547 C   0  0  0  0  0  0
   -6.7080   -4.1201   16.8235 C   0  0  0  0  0  0
   -7.3974   -4.7096   15.7601 C   0  0  0  0  0  0
   -5.7445   -4.4063   12.1555 C   0  0  0  0  0  0
   -4.9787   -4.2043   10.8513 C   0  0  0  0  0  0
   -7.6869   -7.3159   13.7328 C   0  0  0  0  0  0
   -8.4622   -7.6178   15.0117 C   0  0  0  0  0  0
   -4.6524   -3.3922   17.7985 O   0  0  0  0  0  0
  -10.6351   -4.2784    8.0067 O   0  0  0  0  0  0
  -11.3859   -3.2900   10.7368 Cl  0  0  0  0  0  0
   -2.9133   -4.2377   15.5062 Cl  0  0  0  0  0  0
   -9.2238   -4.1440   12.3269 H   0  0  0  0  0  0
   -8.3700   -5.5999    7.6514 H   0  0  0  0  0  0
   -6.7399   -6.1285    9.4015 H   0  0  0  0  0  0
   -6.3092   -6.4399   11.7629 H   0  0  0  0  0  0
   -8.4972   -5.3479   13.4518 H   0  0  0  0  0  0
   -4.7642   -5.3353   13.6893 H   0  0  0  0  0  0
   -7.2674   -3.7857   17.6945 H   0  0  0  0  0  0
   -8.4794   -4.8183   15.8331 H   0  0  0  0  0  0
   -5.0040   -4.6594   12.9221 H   0  0  0  0  0  0
   -6.1925   -3.4528   12.4599 H   0  0  0  0  0  0
   -4.1713   -3.4800   11.0010 H   0  0  0  0  0  0
   -5.6237   -3.8178   10.0569 H   0  0  0  0  0  0
   -4.5309   -5.1432   10.5106 H   0  0  0  0  0  0
   -6.7186   -7.8291   13.7706 H   0  0  0  0  0  0
   -8.2466   -7.7703   12.9080 H   0  0  0  0  0  0
   -8.6500   -8.6937   15.0890 H   0  0  0  0  0  0
   -9.4295   -7.1055   15.0137 H   0  0  0  0  0  0
   -7.9068   -7.3162   15.9046 H   0  0  0  0  0  0
   -5.3012   -3.1532   18.4932 H   0  0  0  0  0  0
  -10.3030   -4.6388    7.1579 H   0  0  0  0  0  0
  1  2  2  0  0  0
  1  6  1  0  0  0
  1  7  1  0  0  0
  2  3  1  0  0  0
  2 23  1  0  0  0
  3  4  2  0  0  0
  3 21  1  0  0  0
  4  5  1  0  0  0
  4 20  1  0  0  0
  5  6  2  0  0  0
  5 24  1  0  0  0
  6 25  1  0  0  0
  7  8  1  0  0  0
  7 15  1  0  0  0
  7 26  1  0  0  0
  8  9  1  0  0  0
  8 17  1  0  0  0
  8 27  1  0  0  0
  9 10  2  0  0  0
  9 14  1  0  0  0
 10 11  1  0  0  0
 10 28  1  0  0  0
 11 12  2  0  0  0
 11 22  1  0  0  0
 12 13  1  0  0  0
 12 19  1  0  0  0
 13 14  2  0  0  0
 13 29  1  0  0  0
 14 30  1  0  0  0
 15 16  1  0  0  0
 15 31  1  0  0  0
 15 32  1  0  0  0
 16 33  1  0  0  0
 16 34  1  0  0  0
 16 35  1  0  0  0
 17 18  1  0  0  0
 17 36  1  0  0  0
 17 37  1  0  0  0
 18 38  1  0  0  0
 18 39  1  0  0  0
 18 40  1  0  0  0
 19 41  1  0  0  0
 20 42  1  0  0  0
M  END
>  <Name>
lit-292

>  <Family>
B.2

>  <RBA>
1.600000

>  <RBA_avg>
1.600000

>  <Method>
CUC

>  <set>
0

$$$$
lit-293
  Cerius2 12180216413D 1   1.00000                          
 Structure written by MMmdl.
 54 55  0  0  0  0  0  0  0  0999 V2000
   -7.8582   -5.1804   10.9992 C   0  0  0  0  0  0
   -9.0321   -4.4686   11.3001 C   0  0  0  0  0  0
   -9.9761   -4.1626   10.3048 C   0  0  0  0  0  0
   -9.7208   -4.5724    8.9923 C   0  0  0  0  0  0
   -8.5636   -5.2798    8.6744 C   0  0  0  0  0  0
   -7.6374   -5.5827    9.6738 C   0  0  0  0  0  0
   -6.8252   -5.5169   12.0760 C   0  0  0  0  0  0
   -7.4981   -5.7972   13.4706 C   0  0  0  0  0  0
   -6.7175   -5.1599   14.6214 C   0  0  0  0  0  0
   -5.3223   -5.0003   14.5665 C   0  0  0  0  0  0
   -4.6126   -4.4096   15.6260 C   0  0  0  0  0  0
   -5.3257   -3.9701   16.7458 C   0  0  0  0  0  0
   -6.7084   -4.1232   16.8207 C   0  0  0  0  0  0
   -7.4004   -4.7162   15.7634 C   0  0  0  0  0  0
   -5.7507   -4.3980   12.1601 C   0  0  0  0  0  0
   -4.9770   -4.1986   10.8603 C   0  0  0  0  0  0
   -7.6939   -7.3164   13.7286 C   0  0  0  0  0  0
   -8.4620   -7.6217   15.0111 C   0  0  0  0  0  0
   -4.6498   -3.3809   17.7774 O   0  0  0  0  0  0
  -10.6236   -4.2691    8.0119 O   0  0  0  0  0  0
  -10.9991   -1.8795   10.5187 C   0  0  0  0  0  0
  -11.2129   -3.3780   10.6715 C   0  0  0  0  0  0
   -2.7485   -2.8971   14.8918 C   0  0  0  0  0  0
   -3.1170   -4.2368   15.5115 C   0  0  0  0  0  0
   -9.2177   -4.1421   12.3233 H   0  0  0  0  0  0
   -8.3641   -5.6014    7.6545 H   0  0  0  0  0  0
   -6.7374   -6.1352    9.4064 H   0  0  0  0  0  0
   -6.3048   -6.4346   11.7676 H   0  0  0  0  0  0
   -8.5001   -5.3457   13.4531 H   0  0  0  0  0  0
   -4.7751   -5.3364   13.6859 H   0  0  0  0  0  0
   -7.2647   -3.7846   17.6919 H   0  0  0  0  0  0
   -8.4817   -4.8257   15.8384 H   0  0  0  0  0  0
   -5.0140   -4.6442   12.9326 H   0  0  0  0  0  0
   -6.2049   -3.4451   12.4571 H   0  0  0  0  0  0
   -4.1740   -3.4698   11.0120 H   0  0  0  0  0  0
   -5.6184   -3.8188   10.0596 H   0  0  0  0  0  0
   -4.5224   -5.1368   10.5270 H   0  0  0  0  0  0
   -6.7269   -7.8328   13.7580 H   0  0  0  0  0  0
   -8.2602   -7.7654   12.9053 H   0  0  0  0  0  0
   -8.6512   -8.6976   15.0858 H   0  0  0  0  0  0
   -9.4283   -7.1077   15.0207 H   0  0  0  0  0  0
   -7.9006   -7.3241   15.9016 H   0  0  0  0  0  0
   -5.2952   -3.1359   18.4734 H   0  0  0  0  0  0
  -10.2922   -4.6267    7.1615 H   0  0  0  0  0  0
  -11.9083   -1.3375   10.7969 H   0  0  0  0  0  0
  -10.7501   -1.6164    9.4851 H   0  0  0  0  0  0
  -10.1843   -1.5274   11.1604 H   0  0  0  0  0  0
  -11.4975   -3.6037   11.7068 H   0  0  0  0  0  0
  -12.0607   -3.7003   10.0554 H   0  0  0  0  0  0
   -1.6607   -2.8019   14.8158 H   0  0  0  0  0  0
   -3.1205   -2.0631   15.4963 H   0  0  0  0  0  0
   -3.1691   -2.7960   13.8854 H   0  0  0  0  0  0
   -2.6988   -5.0490   14.9038 H   0  0  0  0  0  0
   -2.6486   -4.3349   16.4980 H   0  0  0  0  0  0
  1  2  2  0  0  0
  1  6  1  0  0  0
  1  7  1  0  0  0
  2  3  1  0  0  0
  2 25  1  0  0  0
  3  4  2  0  0  0
  3 22  1  0  0  0
  4  5  1  0  0  0
  4 20  1  0  0  0
  5  6  2  0  0  0
  5 26  1  0  0  0
  6 27  1  0  0  0
  7  8  1  0  0  0
  7 15  1  0  0  0
  7 28  1  0  0  0
  8  9  1  0  0  0
  8 17  1  0  0  0
  8 29  1  0  0  0
  9 10  2  0  0  0
  9 14  1  0  0  0
 10 11  1  0  0  0
 10 30  1  0  0  0
 11 12  2  0  0  0
 11 24  1  0  0  0
 12 13  1  0  0  0
 12 19  1  0  0  0
 13 14  2  0  0  0
 13 31  1  0  0  0
 14 32  1  0  0  0
 15 16  1  0  0  0
 15 33  1  0  0  0
 15 34  1  0  0  0
 16 35  1  0  0  0
 16 36  1  0  0  0
 16 37  1  0  0  0
 17 18  1  0  0  0
 17 38  1  0  0  0
 17 39  1  0  0  0
 18 40  1  0  0  0
 18 41  1  0  0  0
 18 42  1  0  0  0
 19 43  1  0  0  0
 20 44  1  0  0  0
 21 22  1  0  0  0
 21 45  1  0  0  0
 21 46  1  0  0  0
 21 47  1  0  0  0
 22 48  1  0  0  0
 22 49  1  0  0  0
 23 24  1  0  0  0
 23 50  1  0  0  0
 23 51  1  0  0  0
 23 52  1  0  0  0
 24 53  1  0  0  0
 24 54  1  0  0  0
M  END
>  <Name>
lit-293

>  <Family>
B.2

>  <RBA>
1.200000

>  <RBA_avg>
1.200000

>  <Method>
CUC

>  <set>
0

$$$$
lit-294
  Cerius2 12180216413D 1   1.00000                          
 Structure written by MMmdl.
 50 51  0  0  0  0  0  0  0  0999 V2000
   -7.8526   -5.1769   10.9959 C   0  0  0  0  0  0
   -9.0293   -4.4685   11.3007 C   0  0  0  0  0  0
   -9.9714   -4.1454   10.3080 C   0  0  0  0  0  0
   -9.7215   -4.5733    8.9983 C   0  0  0  0  0  0
   -8.5619   -5.2749    8.6744 C   0  0  0  0  0  0
   -7.6304   -5.5723    9.6694 C   0  0  0  0  0  0
   -6.8220   -5.5223   12.0728 C   0  0  0  0  0  0
   -7.4958   -5.7975   13.4678 C   0  0  0  0  0  0
   -6.7193   -5.1510   14.6167 C   0  0  0  0  0  0
   -5.3222   -4.9946   14.5673 C   0  0  0  0  0  0
   -4.6116   -4.3919   15.6206 C   0  0  0  0  0  0
   -5.3314   -3.9733   16.7463 C   0  0  0  0  0  0
   -6.7157   -4.1190   16.8161 C   0  0  0  0  0  0
   -7.4062   -4.7031   15.7539 C   0  0  0  0  0  0
   -5.7385   -4.4122   12.1571 C   0  0  0  0  0  0
   -4.9780   -4.2037   10.8509 C   0  0  0  0  0  0
   -7.6879   -7.3158   13.7343 C   0  0  0  0  0  0
   -8.4633   -7.6160   15.0136 C   0  0  0  0  0  0
   -4.6544   -3.4161   17.7960 O   0  0  0  0  0  0
  -10.6416   -4.2970    8.0246 O   0  0  0  0  0  0
  -11.1609   -2.7233   11.8841 O   0  0  0  0  0  0
  -11.2501   -3.4134   10.6362 C   0  0  0  0  0  0
   -2.6060   -4.3161   14.2474 O   0  0  0  0  0  0
   -3.1092   -4.2529   15.5833 C   0  0  0  0  0  0
   -9.2168   -4.1611   12.3292 H   0  0  0  0  0  0
   -8.3684   -5.6010    7.6548 H   0  0  0  0  0  0
   -6.7295   -6.1222    9.3994 H   0  0  0  0  0  0
   -6.3091   -6.4440   11.7637 H   0  0  0  0  0  0
   -8.4991   -5.3492   13.4461 H   0  0  0  0  0  0
   -4.7752   -5.3483   13.6936 H   0  0  0  0  0  0
   -7.2724   -3.7879   17.6899 H   0  0  0  0  0  0
   -8.4879   -4.8103   15.8250 H   0  0  0  0  0  0
   -4.9951   -4.6726   12.9185 H   0  0  0  0  0  0
   -6.1823   -3.4595   12.4700 H   0  0  0  0  0  0
   -4.1683   -3.4823   11.0015 H   0  0  0  0  0  0
   -5.6257   -3.8108   10.0619 H   0  0  0  0  0  0
   -4.5339   -5.1414   10.5021 H   0  0  0  0  0  0
   -6.7195   -7.8288   13.7731 H   0  0  0  0  0  0
   -8.2474   -7.7721   12.9103 H   0  0  0  0  0  0
   -8.6500   -8.6920   15.0933 H   0  0  0  0  0  0
   -9.4312   -7.1047   15.0142 H   0  0  0  0  0  0
   -7.9085   -7.3118   15.9060 H   0  0  0  0  0  0
   -5.3008   -3.1816   18.4954 H   0  0  0  0  0  0
  -10.3164   -4.6632    7.1747 H   0  0  0  0  0  0
  -12.0343   -2.2925   11.9970 H   0  0  0  0  0  0
  -12.0757   -4.1299   10.6968 H   0  0  0  0  0  0
  -11.4688   -2.6646    9.8679 H   0  0  0  0  0  0
   -1.6345   -4.2212   14.3392 H   0  0  0  0  0  0
   -2.6531   -5.0619   16.1631 H   0  0  0  0  0  0
   -2.8036   -3.2867   15.9976 H   0  0  0  0  0  0
  1  2  2  0  0  0
  1  6  1  0  0  0
  1  7  1  0  0  0
  2  3  1  0  0  0
  2 25  1  0  0  0
  3  4  2  0  0  0
  3 22  1  0  0  0
  4  5  1  0  0  0
  4 20  1  0  0  0
  5  6  2  0  0  0
  5 26  1  0  0  0
  6 27  1  0  0  0
  7  8  1  0  0  0
  7 15  1  0  0  0
  7 28  1  0  0  0
  8  9  1  0  0  0
  8 17  1  0  0  0
  8 29  1  0  0  0
  9 10  2  0  0  0
  9 14  1  0  0  0
 10 11  1  0  0  0
 10 30  1  0  0  0
 11 12  2  0  0  0
 11 24  1  0  0  0
 12 13  1  0  0  0
 12 19  1  0  0  0
 13 14  2  0  0  0
 13 31  1  0  0  0
 14 32  1  0  0  0
 15 16  1  0  0  0
 15 33  1  0  0  0
 15 34  1  0  0  0
 16 35  1  0  0  0
 16 36  1  0  0  0
 16 37  1  0  0  0
 17 18  1  0  0  0
 17 38  1  0  0  0
 17 39  1  0  0  0
 18 40  1  0  0  0
 18 41  1  0  0  0
 18 42  1  0  0  0
 19 43  1  0  0  0
 20 44  1  0  0  0
 21 22  1  0  0  0
 21 45  1  0  0  0
 22 46  1  0  0  0
 22 47  1  0  0  0
 23 24  1  0  0  0
 23 48  1  0  0  0
 24 49  1  0  0  0
 24 50  1  0  0  0
M  END
>  <Name>
lit-294

>  <Family>
B.2

>  <RBA>
0.710000

>  <RBA_avg>
0.710000

>  <Method>
CUC

>  <set>
0

$$$$
lit-295
  Cerius2 12180216413D 1   1.00000                          
 Structure written by MMmdl.
 56 57  0  0  0  0  0  0  0  0999 V2000
   -7.8530   -5.1681   11.0001 C   0  0  0  0  0  0
   -9.0310   -4.4609   11.3028 C   0  0  0  0  0  0
   -9.9732   -4.1456   10.3075 C   0  0  0  0  0  0
   -9.7189   -4.5749    8.9986 C   0  0  0  0  0  0
   -8.5577   -5.2750    8.6782 C   0  0  0  0  0  0
   -7.6283   -5.5686    9.6755 C   0  0  0  0  0  0
   -6.8238   -5.5170   12.0763 C   0  0  0  0  0  0
   -7.5014   -5.7976   13.4675 C   0  0  0  0  0  0
   -6.7206   -5.1594   14.6188 C   0  0  0  0  0  0
   -5.3240   -4.9957   14.5619 C   0  0  0  0  0  0
   -4.6093   -4.4129   15.6228 C   0  0  0  0  0  0
   -5.3303   -3.9745   16.7406 C   0  0  0  0  0  0
   -6.7132   -4.1232   16.8159 C   0  0  0  0  0  0
   -7.4048   -4.7167   15.7597 C   0  0  0  0  0  0
   -5.7350   -4.4120   12.1668 C   0  0  0  0  0  0
   -4.9762   -4.1976   10.8612 C   0  0  0  0  0  0
   -7.7022   -7.3170   13.7246 C   0  0  0  0  0  0
   -8.4625   -7.6205   15.0120 C   0  0  0  0  0  0
   -4.6526   -3.3841   17.7715 O   0  0  0  0  0  0
  -10.6372   -4.3030    8.0222 O   0  0  0  0  0  0
  -11.2189   -2.8087   11.9228 O   0  0  0  0  0  0
  -11.2557   -3.4070   10.6194 C   0  0  0  0  0  0
   -2.5173   -4.9252   14.4749 O   0  0  0  0  0  0
   -3.1110   -4.2095   15.5677 C   0  0  0  0  0  0
  -12.4462   -2.1411   12.2100 C   0  0  0  0  0  0
   -1.1133   -4.6809   14.4102 C   0  0  0  0  0  0
   -9.2177   -4.1525   12.3310 H   0  0  0  0  0  0
   -8.3612   -5.6019    7.6595 H   0  0  0  0  0  0
   -6.7276   -6.1210    9.4090 H   0  0  0  0  0  0
   -6.3122   -6.4386   11.7666 H   0  0  0  0  0  0
   -8.5031   -5.3452   13.4482 H   0  0  0  0  0  0
   -4.7855   -5.3279   13.6753 H   0  0  0  0  0  0
   -7.2692   -3.7812   17.6864 H   0  0  0  0  0  0
   -8.4867   -4.8241   15.8328 H   0  0  0  0  0  0
   -4.9907   -4.6811   12.9244 H   0  0  0  0  0  0
   -6.1740   -3.4597   12.4869 H   0  0  0  0  0  0
   -4.1576   -3.4871   11.0166 H   0  0  0  0  0  0
   -5.6229   -3.7879   10.0799 H   0  0  0  0  0  0
   -4.5432   -5.1355   10.4981 H   0  0  0  0  0  0
   -6.7380   -7.8382   13.7461 H   0  0  0  0  0  0
   -8.2757   -7.7623   12.9044 H   0  0  0  0  0  0
   -8.6575   -8.6951   15.0865 H   0  0  0  0  0  0
   -9.4254   -7.0996   15.0305 H   0  0  0  0  0  0
   -7.8917   -7.3281   15.8982 H   0  0  0  0  0  0
   -5.2967   -3.1326   18.4668 H   0  0  0  0  0  0
  -10.3047   -4.6663    7.1737 H   0  0  0  0  0  0
  -12.0914   -4.1153   10.5725 H   0  0  0  0  0  0
  -11.4041   -2.6089    9.8826 H   0  0  0  0  0  0
   -2.6613   -4.5737   16.4989 H   0  0  0  0  0  0
   -2.9069   -3.1384   15.4492 H   0  0  0  0  0  0
  -12.3737   -1.7056   13.2104 H   0  0  0  0  0  0
  -13.2789   -2.8502   12.1955 H   0  0  0  0  0  0
  -12.6211   -1.3365   11.4898 H   0  0  0  0  0  0
   -0.7041   -5.2593   13.5777 H   0  0  0  0  0  0
   -0.6250   -5.0031   15.3346 H   0  0  0  0  0  0
   -0.9200   -3.6195   14.2293 H   0  0  0  0  0  0
  1  2  2  0  0  0
  1  6  1  0  0  0
  1  7  1  0  0  0
  2  3  1  0  0  0
  2 27  1  0  0  0
  3  4  2  0  0  0
  3 22  1  0  0  0
  4  5  1  0  0  0
  4 20  1  0  0  0
  5  6  2  0  0  0
  5 28  1  0  0  0
  6 29  1  0  0  0
  7  8  1  0  0  0
  7 15  1  0  0  0
  7 30  1  0  0  0
  8  9  1  0  0  0
  8 17  1  0  0  0
  8 31  1  0  0  0
  9 10  2  0  0  0
  9 14  1  0  0  0
 10 11  1  0  0  0
 10 32  1  0  0  0
 11 12  2  0  0  0
 11 24  1  0  0  0
 12 13  1  0  0  0
 12 19  1  0  0  0
 13 14  2  0  0  0
 13 33  1  0  0  0
 14 34  1  0  0  0
 15 16  1  0  0  0
 15 35  1  0  0  0
 15 36  1  0  0  0
 16 37  1  0  0  0
 16 38  1  0  0  0
 16 39  1  0  0  0
 17 18  1  0  0  0
 17 40  1  0  0  0
 17 41  1  0  0  0
 18 42  1  0  0  0
 18 43  1  0  0  0
 18 44  1  0  0  0
 19 45  1  0  0  0
 20 46  1  0  0  0
 21 22  1  0  0  0
 21 25  1  0  0  0
 22 47  1  0  0  0
 22 48  1  0  0  0
 23 24  1  0  0  0
 23 26  1  0  0  0
 24 49  1  0  0  0
 24 50  1  0  0  0
 25 51  1  0  0  0
 25 52  1  0  0  0
 25 53  1  0  0  0
 26 54  1  0  0  0
 26 55  1  0  0  0
 26 56  1  0  0  0
M  END
>  <Name>
lit-295

>  <Family>
B.2

>  <RBA>
0.550000

>  <RBA_avg>
0.550000

>  <Method>
CUC

>  <set>
0

$$$$
lit-296
  Cerius2 12180216413D 1   1.00000                          
 Structure written by MMmdl.
 42 43  0  0  0  0  0  0  0  0999 V2000
   -7.8583   -5.1770   10.9998 C   0  0  0  0  0  0
   -9.0311   -4.4662   11.3058 C   0  0  0  0  0  0
   -9.9607   -4.1655   10.3055 C   0  0  0  0  0  0
   -9.7281   -4.5709    8.9898 C   0  0  0  0  0  0
   -8.5691   -5.2756    8.6715 C   0  0  0  0  0  0
   -7.6401   -5.5763    9.6713 C   0  0  0  0  0  0
   -6.8243   -5.5197   12.0733 C   0  0  0  0  0  0
   -7.4945   -5.7972   13.4694 C   0  0  0  0  0  0
   -6.7136   -5.1551   14.6171 C   0  0  0  0  0  0
   -5.3185   -4.9975   14.5623 C   0  0  0  0  0  0
   -4.6282   -4.4076   15.6256 C   0  0  0  0  0  0
   -5.3238   -3.9699   16.7542 C   0  0  0  0  0  0
   -6.7073   -4.1204   16.8228 C   0  0  0  0  0  0
   -7.3973   -4.7098   15.7600 C   0  0  0  0  0  0
   -5.7442   -4.4065   12.1557 C   0  0  0  0  0  0
   -4.9787   -4.2041   10.8515 C   0  0  0  0  0  0
   -7.6874   -7.3158   13.7325 C   0  0  0  0  0  0
   -8.4622   -7.6178   15.0117 C   0  0  0  0  0  0
   -4.6538   -3.3921   17.7980 O   0  0  0  0  0  0
  -10.6340   -4.2795    8.0067 O   0  0  0  0  0  0
  -11.5249   -3.2040   10.7845 Br  0  0  0  0  0  0
   -2.7446   -4.2229   15.4891 Br  0  0  0  0  0  0
   -9.2202   -4.1451   12.3284 H   0  0  0  0  0  0
   -8.3702   -5.5995    7.6523 H   0  0  0  0  0  0
   -6.7399   -6.1282    9.4017 H   0  0  0  0  0  0
   -6.3094   -6.4398   11.7629 H   0  0  0  0  0  0
   -8.4973   -5.3477   13.4520 H   0  0  0  0  0  0
   -4.7676   -5.3370   13.6873 H   0  0  0  0  0  0
   -7.2667   -3.7860   17.6937 H   0  0  0  0  0  0
   -8.4791   -4.8185   15.8333 H   0  0  0  0  0  0
   -5.0036   -4.6602   12.9220 H   0  0  0  0  0  0
   -6.1919   -3.4530   12.4605 H   0  0  0  0  0  0
   -4.1709   -3.4802   11.0013 H   0  0  0  0  0  0
   -5.6236   -3.8169   10.0573 H   0  0  0  0  0  0
   -4.5312   -5.1429   10.5101 H   0  0  0  0  0  0
   -6.7192   -7.8295   13.7698 H   0  0  0  0  0  0
   -8.2476   -7.7699   12.9079 H   0  0  0  0  0  0
   -8.6503   -8.6937   15.0890 H   0  0  0  0  0  0
   -9.4295   -7.1054   15.0142 H   0  0  0  0  0  0
   -7.9064   -7.3165   15.9044 H   0  0  0  0  0  0
   -5.3031   -3.1527   18.4920 H   0  0  0  0  0  0
  -10.3015   -4.6405    7.1583 H   0  0  0  0  0  0
  1  2  2  0  0  0
  1  6  1  0  0  0
  1  7  1  0  0  0
  2  3  1  0  0  0
  2 23  1  0  0  0
  3  4  2  0  0  0
  3 21  1  0  0  0
  4  5  1  0  0  0
  4 20  1  0  0  0
  5  6  2  0  0  0
  5 24  1  0  0  0
  6 25  1  0  0  0
  7  8  1  0  0  0
  7 15  1  0  0  0
  7 26  1  0  0  0
  8  9  1  0  0  0
  8 17  1  0  0  0
  8 27  1  0  0  0
  9 10  2  0  0  0
  9 14  1  0  0  0
 10 11  1  0  0  0
 10 28  1  0  0  0
 11 12  2  0  0  0
 11 22  1  0  0  0
 12 13  1  0  0  0
 12 19  1  0  0  0
 13 14  2  0  0  0
 13 29  1  0  0  0
 14 30  1  0  0  0
 15 16  1  0  0  0
 15 31  1  0  0  0
 15 32  1  0  0  0
 16 33  1  0  0  0
 16 34  1  0  0  0
 16 35  1  0  0  0
 17 18  1  0  0  0
 17 36  1  0  0  0
 17 37  1  0  0  0
 18 38  1  0  0  0
 18 39  1  0  0  0
 18 40  1  0  0  0
 19 41  1  0  0  0
 20 42  1  0  0  0
M  END
>  <Name>
lit-296

>  <Family>
B.2

>  <RBA>
0.250000

>  <RBA_avg>
0.250000

>  <Method>
CUC

>  <set>
0

$$$$
lit-297
  Cerius2 12180216413D 1   1.00000                          
 Structure written by MMmdl.
 62 63  0  0  0  0  0  0  0  0999 V2000
   -7.8496   -5.1731   10.9978 C   0  0  0  0  0  0
   -9.0240   -4.4637   11.3007 C   0  0  0  0  0  0
   -9.9725   -4.1537   10.3079 C   0  0  0  0  0  0
   -9.7239   -4.5728    8.9977 C   0  0  0  0  0  0
   -8.5630   -5.2745    8.6763 C   0  0  0  0  0  0
   -7.6307   -5.5724    9.6720 C   0  0  0  0  0  0
   -6.8212   -5.5192   12.0754 C   0  0  0  0  0  0
   -7.5009   -5.7978   13.4672 C   0  0  0  0  0  0
   -6.7212   -5.1615   14.6186 C   0  0  0  0  0  0
   -5.3259   -5.0021   14.5642 C   0  0  0  0  0  0
   -4.6119   -4.4085   15.6220 C   0  0  0  0  0  0
   -5.3255   -3.9716   16.7421 C   0  0  0  0  0  0
   -6.7092   -4.1242   16.8165 C   0  0  0  0  0  0
   -7.4027   -4.7166   15.7602 C   0  0  0  0  0  0
   -5.7402   -4.4076   12.1663 C   0  0  0  0  0  0
   -4.9750   -4.1955   10.8633 C   0  0  0  0  0  0
   -7.7025   -7.3160   13.7261 C   0  0  0  0  0  0
   -8.4634   -7.6178   15.0137 C   0  0  0  0  0  0
   -4.6552   -3.3827   17.7772 O   0  0  0  0  0  0
  -10.6367   -4.2936    8.0193 O   0  0  0  0  0  0
  -10.8494   -2.1054   11.1754 O   0  0  0  0  0  0
  -11.2224   -3.4033   10.6929 C   0  0  0  0  0  0
   -2.5163   -5.5458   15.4267 O   0  0  0  0  0  0
   -3.1172   -4.2462   15.5037 C   0  0  0  0  0  0
  -11.9952   -1.3775   11.6244 C   0  0  0  0  0  0
   -1.0981   -5.4461   15.2747 C   0  0  0  0  0  0
  -11.5360   -0.0167   12.1080 C   0  0  0  0  0  0
   -0.5272   -6.8478   15.1977 C   0  0  0  0  0  0
   -9.2132   -4.1411   12.3247 H   0  0  0  0  0  0
   -8.3671   -5.5999    7.6572 H   0  0  0  0  0  0
   -6.7304   -6.1233    9.4018 H   0  0  0  0  0  0
   -6.3063   -6.4394   11.7660 H   0  0  0  0  0  0
   -8.5012   -5.3426   13.4455 H   0  0  0  0  0  0
   -4.7756   -5.3428   13.6868 H   0  0  0  0  0  0
   -7.2655   -3.7845   17.6877 H   0  0  0  0  0  0
   -8.4843   -4.8241   15.8357 H   0  0  0  0  0  0
   -4.9994   -4.6672   12.9304 H   0  0  0  0  0  0
   -6.1869   -3.4560   12.4788 H   0  0  0  0  0  0
   -4.1664   -3.4738   11.0188 H   0  0  0  0  0  0
   -5.6209   -3.8010   10.0733 H   0  0  0  0  0  0
   -4.5290   -5.1319   10.5137 H   0  0  0  0  0  0
   -6.7384   -7.8384   13.7489 H   0  0  0  0  0  0
   -8.2772   -7.7627   12.9071 H   0  0  0  0  0  0
   -8.6614   -8.6922   15.0870 H   0  0  0  0  0  0
   -9.4250   -7.0957   15.0323 H   0  0  0  0  0  0
   -7.8922   -7.3272   15.9000 H   0  0  0  0  0  0
   -5.3033   -3.1405   18.4724 H   0  0  0  0  0  0
  -10.3073   -4.6585    7.1707 H   0  0  0  0  0  0
  -11.7444   -3.9605   11.4807 H   0  0  0  0  0  0
  -11.9066   -3.2874    9.8460 H   0  0  0  0  0  0
   -2.6972   -3.7067   16.3591 H   0  0  0  0  0  0
   -2.8905   -3.6755   14.5947 H   0  0  0  0  0  0
  -12.4781   -1.9206   12.4441 H   0  0  0  0  0  0
  -12.7059   -1.2605   10.7991 H   0  0  0  0  0  0
   -0.6702   -4.9159   16.1324 H   0  0  0  0  0  0
   -0.8630   -4.8970   14.3564 H   0  0  0  0  0  0
  -12.3825    0.5750   12.4681 H   0  0  0  0  0  0
  -11.0387    0.5316   11.3010 H   0  0  0  0  0  0
  -10.8072   -0.1211   12.9186 H   0  0  0  0  0  0
    0.5595   -6.8205   15.0763 H   0  0  0  0  0  0
   -0.9630   -7.3962   14.3563 H   0  0  0  0  0  0
   -0.7677   -7.4121   16.1049 H   0  0  0  0  0  0
  1  2  2  0  0  0
  1  6  1  0  0  0
  1  7  1  0  0  0
  2  3  1  0  0  0
  2 29  1  0  0  0
  3  4  2  0  0  0
  3 22  1  0  0  0
  4  5  1  0  0  0
  4 20  1  0  0  0
  5  6  2  0  0  0
  5 30  1  0  0  0
  6 31  1  0  0  0
  7  8  1  0  0  0
  7 15  1  0  0  0
  7 32  1  0  0  0
  8  9  1  0  0  0
  8 17  1  0  0  0
  8 33  1  0  0  0
  9 10  2  0  0  0
  9 14  1  0  0  0
 10 11  1  0  0  0
 10 34  1  0  0  0
 11 12  2  0  0  0
 11 24  1  0  0  0
 12 13  1  0  0  0
 12 19  1  0  0  0
 13 14  2  0  0  0
 13 35  1  0  0  0
 14 36  1  0  0  0
 15 16  1  0  0  0
 15 37  1  0  0  0
 15 38  1  0  0  0
 16 39  1  0  0  0
 16 40  1  0  0  0
 16 41  1  0  0  0
 17 18  1  0  0  0
 17 42  1  0  0  0
 17 43  1  0  0  0
 18 44  1  0  0  0
 18 45  1  0  0  0
 18 46  1  0  0  0
 19 47  1  0  0  0
 20 48  1  0  0  0
 21 22  1  0  0  0
 21 25  1  0  0  0
 22 49  1  0  0  0
 22 50  1  0  0  0
 23 24  1  0  0  0
 23 26  1  0  0  0
 24 51  1  0  0  0
 24 52  1  0  0  0
 25 27  1  0  0  0
 25 53  1  0  0  0
 25 54  1  0  0  0
 26 28  1  0  0  0
 26 55  1  0  0  0
 26 56  1  0  0  0
 27 57  1  0  0  0
 27 58  1  0  0  0
 27 59  1  0  0  0
 28 60  1  0  0  0
 28 61  1  0  0  0
 28 62  1  0  0  0
M  END
>  <Name>
lit-297

>  <Family>
B.2

>  <RBA>
0.180000

>  <RBA_avg>
0.180000

>  <Method>
CUC

>  <set>
2

$$$$
lit-298
  Cerius2 12180216413D 1   1.00000                          
 Structure written by MMmdl.
 42 43  0  0  0  0  0  0  0  0999 V2000
   -7.8584   -5.1769   10.9999 C   0  0  0  0  0  0
   -9.0313   -4.4659   11.3064 C   0  0  0  0  0  0
   -9.9630   -4.1641   10.3064 C   0  0  0  0  0  0
   -9.7298   -4.5698    8.9905 C   0  0  0  0  0  0
   -8.5701   -5.2748    8.6729 C   0  0  0  0  0  0
   -7.6405   -5.5759    9.6718 C   0  0  0  0  0  0
   -6.8243   -5.5200   12.0732 C   0  0  0  0  0  0
   -7.4945   -5.7973   13.4693 C   0  0  0  0  0  0
   -6.7133   -5.1554   14.6171 C   0  0  0  0  0  0
   -5.3178   -4.9979   14.5619 C   0  0  0  0  0  0
   -4.6253   -4.4075   15.6253 C   0  0  0  0  0  0
   -5.3219   -3.9699   16.7541 C   0  0  0  0  0  0
   -6.7058   -4.1209   16.8216 C   0  0  0  0  0  0
   -7.3966   -4.7103   15.7596 C   0  0  0  0  0  0
   -5.7437   -4.4072   12.1555 C   0  0  0  0  0  0
   -4.9789   -4.2046   10.8510 C   0  0  0  0  0  0
   -7.6879   -7.3159   13.7324 C   0  0  0  0  0  0
   -8.4623   -7.6177   15.0119 C   0  0  0  0  0  0
   -4.6581   -3.3910   17.8010 O   0  0  0  0  0  0
  -10.6316   -4.2818    8.0028 O   0  0  0  0  0  0
  -11.6840   -3.1034   10.8470 I   0  0  0  0  0  0
   -2.5484   -4.2090   15.4631 I   0  0  0  0  0  0
   -9.2146   -4.1475   12.3311 H   0  0  0  0  0  0
   -8.3708   -5.5989    7.6537 H   0  0  0  0  0  0
   -6.7406   -6.1279    9.4017 H   0  0  0  0  0  0
   -6.3098   -6.4403   11.7626 H   0  0  0  0  0  0
   -8.4971   -5.3475   13.4521 H   0  0  0  0  0  0
   -4.7725   -5.3395   13.6839 H   0  0  0  0  0  0
   -7.2657   -3.7865   17.6924 H   0  0  0  0  0  0
   -8.4784   -4.8187   15.8333 H   0  0  0  0  0  0
   -5.0027   -4.6616   12.9212 H   0  0  0  0  0  0
   -6.1908   -3.4536   12.4611 H   0  0  0  0  0  0
   -4.1707   -3.4811   11.0007 H   0  0  0  0  0  0
   -5.6242   -3.8168   10.0574 H   0  0  0  0  0  0
   -4.5321   -5.1435   10.5089 H   0  0  0  0  0  0
   -6.7200   -7.8301   13.7690 H   0  0  0  0  0  0
   -8.2488   -7.7695   12.9080 H   0  0  0  0  0  0
   -8.6505   -8.6935   15.0892 H   0  0  0  0  0  0
   -9.4293   -7.1049   15.0147 H   0  0  0  0  0  0
   -7.9060   -7.3166   15.9043 H   0  0  0  0  0  0
   -5.3105   -3.1534   18.4927 H   0  0  0  0  0  0
  -10.2960   -4.6444    7.1565 H   0  0  0  0  0  0
  1  2  2  0  0  0
  1  6  1  0  0  0
  1  7  1  0  0  0
  2  3  1  0  0  0
  2 23  1  0  0  0
  3  4  2  0  0  0
  3 21  1  0  0  0
  4  5  1  0  0  0
  4 20  1  0  0  0
  5  6  2  0  0  0
  5 24  1  0  0  0
  6 25  1  0  0  0
  7  8  1  0  0  0
  7 15  1  0  0  0
  7 26  1  0  0  0
  8  9  1  0  0  0
  8 17  1  0  0  0
  8 27  1  0  0  0
  9 10  2  0  0  0
  9 14  1  0  0  0
 10 11  1  0  0  0
 10 28  1  0  0  0
 11 12  2  0  0  0
 11 22  1  0  0  0
 12 13  1  0  0  0
 12 19  1  0  0  0
 13 14  2  0  0  0
 13 29  1  0  0  0
 14 30  1  0  0  0
 15 16  1  0  0  0
 15 31  1  0  0  0
 15 32  1  0  0  0
 16 33  1  0  0  0
 16 34  1  0  0  0
 16 35  1  0  0  0
 17 18  1  0  0  0
 17 36  1  0  0  0
 17 37  1  0  0  0
 18 38  1  0  0  0
 18 39  1  0  0  0
 18 40  1  0  0  0
 19 41  1  0  0  0
 20 42  1  0  0  0
M  END
>  <Name>
lit-298

>  <Family>
B.2

>  <RBA>
0.170000

>  <RBA_avg>
0.170000

>  <Method>
CUC

>  <set>
0

$$$$
lit-299
  Cerius2 12180216413D 1   1.00000                          
 Structure written by MMmdl.
 46 47  0  0  0  0  0  0  0  0999 V2000
   -7.8623   -5.1748   11.0027 C   0  0  0  0  0  0
   -9.0323   -4.4638   11.3125 C   0  0  0  0  0  0
   -9.9500   -4.1629   10.2963 C   0  0  0  0  0  0
   -9.7361   -4.5625    8.9766 C   0  0  0  0  0  0
   -8.5754   -5.2674    8.6652 C   0  0  0  0  0  0
   -7.6469   -5.5686    9.6696 C   0  0  0  0  0  0
   -6.8252   -5.5249   12.0713 C   0  0  0  0  0  0
   -7.4899   -5.8005   13.4701 C   0  0  0  0  0  0
   -6.7057   -5.1551   14.6140 C   0  0  0  0  0  0
   -5.3120   -4.9978   14.5585 C   0  0  0  0  0  0
   -4.6388   -4.3989   15.6327 C   0  0  0  0  0  0
   -5.3197   -3.9603   16.7687 C   0  0  0  0  0  0
   -6.7033   -4.1142   16.8271 C   0  0  0  0  0  0
   -7.3889   -4.7054   15.7585 C   0  0  0  0  0  0
   -5.7388   -4.4176   12.1501 C   0  0  0  0  0  0
   -4.9832   -4.2132   10.8404 C   0  0  0  0  0  0
   -7.6798   -7.3188   13.7372 C   0  0  0  0  0  0
   -8.4625   -7.6184   15.0122 C   0  0  0  0  0  0
   -4.6572   -3.4047   17.8271 O   0  0  0  0  0  0
  -10.6473   -4.2948    7.9939 O   0  0  0  0  0  0
  -11.1439   -3.4231   10.6510 N   0  3  0  0  0  0
  -11.9104   -3.9357   11.4879 O   0  0  0  0  0  0
  -11.3195   -2.3081   10.1260 O   0  5  0  0  0  0
   -3.2011   -4.2488   15.5398 N   0  3  0  0  0  0
   -2.7304   -3.0964   15.5584 O   0  0  0  0  0  0
   -2.5216   -5.2849   15.4141 O   0  5  0  0  0  0
   -9.2291   -4.1405   12.3327 H   0  0  0  0  0  0
   -8.3735   -5.5968    7.6480 H   0  0  0  0  0  0
   -6.7473   -6.1216    9.3987 H   0  0  0  0  0  0
   -6.3168   -6.4475   11.7577 H   0  0  0  0  0  0
   -8.4935   -5.3526   13.4549 H   0  0  0  0  0  0
   -4.7516   -5.3339   13.6883 H   0  0  0  0  0  0
   -7.2693   -3.7859   17.6964 H   0  0  0  0  0  0
   -8.4712   -4.8151   15.8306 H   0  0  0  0  0  0
   -4.9932   -4.6785   12.9090 H   0  0  0  0  0  0
   -6.1793   -3.4633   12.4628 H   0  0  0  0  0  0
   -4.1709   -3.4937   10.9866 H   0  0  0  0  0  0
   -5.6328   -3.8197   10.0532 H   0  0  0  0  0  0
   -4.5429   -5.1526   10.4914 H   0  0  0  0  0  0
   -6.7102   -7.8290   13.7831 H   0  0  0  0  0  0
   -8.2329   -7.7778   12.9104 H   0  0  0  0  0  0
   -8.6461   -8.6948   15.0931 H   0  0  0  0  0  0
   -9.4321   -7.1104   15.0050 H   0  0  0  0  0  0
   -7.9147   -7.3104   15.9075 H   0  0  0  0  0  0
   -5.3112   -3.1632   18.5176 H   0  0  0  0  0  0
  -10.3110   -4.6539    7.1449 H   0  0  0  0  0  0
  1  2  2  0  0  0
  1  6  1  0  0  0
  1  7  1  0  0  0
  2  3  1  0  0  0
  2 27  1  0  0  0
  3  4  2  0  0  0
  3 21  1  0  0  0
  4  5  1  0  0  0
  4 20  1  0  0  0
  5  6  2  0  0  0
  5 28  1  0  0  0
  6 29  1  0  0  0
  7  8  1  0  0  0
  7 15  1  0  0  0
  7 30  1  0  0  0
  8  9  1  0  0  0
  8 17  1  0  0  0
  8 31  1  0  0  0
  9 10  2  0  0  0
  9 14  1  0  0  0
 10 11  1  0  0  0
 10 32  1  0  0  0
 11 12  2  0  0  0
 11 24  1  0  0  0
 12 13  1  0  0  0
 12 19  1  0  0  0
 13 14  2  0  0  0
 13 33  1  0  0  0
 14 34  1  0  0  0
 15 16  1  0  0  0
 15 35  1  0  0  0
 15 36  1  0  0  0
 16 37  1  0  0  0
 16 38  1  0  0  0
 16 39  1  0  0  0
 17 18  1  0  0  0
 17 40  1  0  0  0
 17 41  1  0  0  0
 18 42  1  0  0  0
 18 43  1  0  0  0
 18 44  1  0  0  0
 19 45  1  0  0  0
 20 46  1  0  0  0
 21 22  2  0  0  0
 21 23  1  0  0  0
 24 25  2  0  0  0
 24 26  1  0  0  0
M  CHG  4  21   1  23  -1  24   1  26  -1
M  END
>  <Name>
lit-299

>  <Family>
B.2

>  <RBA>
0.140000

>  <RBA_avg>
0.140000

>  <Method>
CUC

>  <set>
0

$$$$
lit-300
  Cerius2 12180216413D 1   1.00000                          
 Structure written by MMmdl.
 64 65  0  0  0  0  0  0  0  0999 V2000
   -7.8568   -5.1809   10.9980 C   0  0  0  0  0  0
   -9.0316   -4.4715   11.3001 C   0  0  0  0  0  0
   -9.9756   -4.1532   10.3048 C   0  0  0  0  0  0
   -9.7243   -4.5708    8.9934 C   0  0  0  0  0  0
   -8.5654   -5.2767    8.6746 C   0  0  0  0  0  0
   -7.6365   -5.5788    9.6718 C   0  0  0  0  0  0
   -6.8245   -5.5200   12.0741 C   0  0  0  0  0  0
   -7.4968   -5.7971   13.4692 C   0  0  0  0  0  0
   -6.7184   -5.1528   14.6175 C   0  0  0  0  0  0
   -5.3231   -4.9927   14.5643 C   0  0  0  0  0  0
   -4.6081   -4.4102   15.6286 C   0  0  0  0  0  0
   -5.3242   -3.9763   16.7505 C   0  0  0  0  0  0
   -6.7088   -4.1238   16.8197 C   0  0  0  0  0  0
   -7.4013   -4.7111   15.7595 C   0  0  0  0  0  0
   -5.7464   -4.4045   12.1578 C   0  0  0  0  0  0
   -4.9776   -4.2013   10.8556 C   0  0  0  0  0  0
   -7.6879   -7.3164   13.7336 C   0  0  0  0  0  0
   -8.4628   -7.6196   15.0126 C   0  0  0  0  0  0
   -4.6562   -3.3867   17.7878 O   0  0  0  0  0  0
  -10.6289   -4.2802    8.0108 O   0  0  0  0  0  0
  -11.2329   -3.3945   10.6842 C   0  0  0  0  0  0
   -3.1010   -4.2731   15.5295 C   0  0  0  0  0  0
  -10.9586   -2.0578   11.2636 N   0  0  0  0  0  0
  -12.1955   -1.5112   11.8375 C   0  0  0  0  0  0
  -10.4511   -1.1388   10.2352 C   0  0  0  0  0  0
   -2.3524   -5.3342   16.2434 N   0  0  0  0  0  0
   -0.9299   -4.9705   16.2985 C   0  0  0  0  0  0
   -2.4952   -6.6359   15.5790 C   0  0  0  0  0  0
   -9.2225   -4.1505   12.3243 H   0  0  0  0  0  0
   -8.3674   -5.6001    7.6550 H   0  0  0  0  0  0
   -6.7363   -6.1300    9.4021 H   0  0  0  0  0  0
   -6.3069   -6.4392   11.7659 H   0  0  0  0  0  0
   -8.5006   -5.3497   13.4500 H   0  0  0  0  0  0
   -4.7763   -5.3326   13.6848 H   0  0  0  0  0  0
   -7.2665   -3.7863   17.6907 H   0  0  0  0  0  0
   -8.4827   -4.8193   15.8336 H   0  0  0  0  0  0
   -5.0077   -4.6564   12.9265 H   0  0  0  0  0  0
   -6.1967   -3.4515   12.4607 H   0  0  0  0  0  0
   -4.1712   -3.4764   11.0077 H   0  0  0  0  0  0
   -5.6209   -3.8149   10.0597 H   0  0  0  0  0  0
   -4.5280   -5.1396   10.5156 H   0  0  0  0  0  0
   -6.7193   -7.8289   13.7713 H   0  0  0  0  0  0
   -8.2472   -7.7711   12.9086 H   0  0  0  0  0  0
   -8.6496   -8.6957   15.0894 H   0  0  0  0  0  0
   -9.4304   -7.1080   15.0150 H   0  0  0  0  0  0
   -7.9073   -7.3182   15.9054 H   0  0  0  0  0  0
   -5.3036   -3.1591   18.4879 H   0  0  0  0  0  0
  -10.2987   -4.6459    7.1629 H   0  0  0  0  0  0
  -11.7496   -4.0159   11.4288 H   0  0  0  0  0  0
  -11.9232   -3.3095    9.8357 H   0  0  0  0  0  0
   -2.8371   -3.2911   15.9452 H   0  0  0  0  0  0
   -2.7997   -4.2289   14.4736 H   0  0  0  0  0  0
  -12.0065   -0.5329   12.2935 H   0  0  0  0  0  0
  -12.5675   -2.1616   12.6369 H   0  0  0  0  0  0
  -12.9859   -1.3967   11.0868 H   0  0  0  0  0  0
  -10.2669   -0.1487   10.6676 H   0  0  0  0  0  0
  -11.1516   -1.0235    9.4000 H   0  0  0  0  0  0
   -9.4899   -1.4815    9.8378 H   0  0  0  0  0  0
   -0.3615   -5.7261   16.8523 H   0  0  0  0  0  0
   -0.7956   -4.0248   16.8354 H   0  0  0  0  0  0
   -0.4898   -4.8685   15.2998 H   0  0  0  0  0  0
   -1.8973   -7.3957   16.0957 H   0  0  0  0  0  0
   -2.1760   -6.6040   14.5310 H   0  0  0  0  0  0
   -3.5302   -6.9898   15.6200 H   0  0  0  0  0  0
  1  2  2  0  0  0
  1  6  1  0  0  0
  1  7  1  0  0  0
  2  3  1  0  0  0
  2 29  1  0  0  0
  3  4  2  0  0  0
  3 21  1  0  0  0
  4  5  1  0  0  0
  4 20  1  0  0  0
  5  6  2  0  0  0
  5 30  1  0  0  0
  6 31  1  0  0  0
  7  8  1  0  0  0
  7 15  1  0  0  0
  7 32  1  0  0  0
  8  9  1  0  0  0
  8 17  1  0  0  0
  8 33  1  0  0  0
  9 10  2  0  0  0
  9 14  1  0  0  0
 10 11  1  0  0  0
 10 34  1  0  0  0
 11 12  2  0  0  0
 11 22  1  0  0  0
 12 13  1  0  0  0
 12 19  1  0  0  0
 13 14  2  0  0  0
 13 35  1  0  0  0
 14 36  1  0  0  0
 15 16  1  0  0  0
 15 37  1  0  0  0
 15 38  1  0  0  0
 16 39  1  0  0  0
 16 40  1  0  0  0
 16 41  1  0  0  0
 17 18  1  0  0  0
 17 42  1  0  0  0
 17 43  1  0  0  0
 18 44  1  0  0  0
 18 45  1  0  0  0
 18 46  1  0  0  0
 19 47  1  0  0  0
 20 48  1  0  0  0
 21 23  1  0  0  0
 21 49  1  0  0  0
 21 50  1  0  0  0
 22 26  1  0  0  0
 22 51  1  0  0  0
 22 52  1  0  0  0
 23 24  1  0  0  0
 23 25  1  0  0  0
 24 53  1  0  0  0
 24 54  1  0  0  0
 24 55  1  0  0  0
 25 56  1  0  0  0
 25 57  1  0  0  0
 25 58  1  0  0  0
 26 27  1  0  0  0
 26 28  1  0  0  0
 27 59  1  0  0  0
 27 60  1  0  0  0
 27 61  1  0  0  0
 28 62  1  0  0  0
 28 63  1  0  0  0
 28 64  1  0  0  0
M  END
>  <Name>
lit-300

>  <Family>
B.2

>  <RBA>
0.040000

>  <RBA_avg>
0.040000

>  <Method>
CUC

>  <set>
2

$$$$
lit-302
  Cerius2 12180216413D 1   1.00000                          
 Structure written by MMmdl.
 42 43  0  0  0  0  0  0  0  0999 V2000
   -7.8531   -5.1787   10.9948 C   0  0  0  0  0  0
   -9.0267   -4.4698   11.2994 C   0  0  0  0  0  0
   -9.9567   -4.1719   10.3008 C   0  0  0  0  0  0
   -9.7194   -4.5795    8.9939 C   0  0  0  0  0  0
   -8.5652   -5.2816    8.6671 C   0  0  0  0  0  0
   -7.6347   -5.5799    9.6658 C   0  0  0  0  0  0
   -6.8178   -5.5184   12.0685 C   0  0  0  0  0  0
   -7.4885   -5.7932   13.4651 C   0  0  0  0  0  0
   -6.7150   -5.1528   14.6160 C   0  0  0  0  0  0
   -5.3234   -4.9873   14.5822 C   0  0  0  0  0  0
   -4.6329   -4.4029   15.6399 C   0  0  0  0  0  0
   -5.3385   -3.9739   16.7558 C   0  0  0  0  0  0
   -6.7199   -4.1225   16.8244 C   0  0  0  0  0  0
   -7.4057   -4.7106   15.7573 C   0  0  0  0  0  0
   -5.7380   -4.4045   12.1481 C   0  0  0  0  0  0
   -4.9743   -4.2037   10.8425 C   0  0  0  0  0  0
   -7.6956   -7.3105   13.7264 C   0  0  0  0  0  0
   -8.4618   -7.6088   15.0116 C   0  0  0  0  0  0
   -4.6377   -3.4046   17.7783 O   0  0  0  0  0  0
  -10.6504   -4.2697    8.0467 O   0  0  0  0  0  0
   -4.6229   -5.3938   13.5137 F   0  0  0  0  0  0
   -9.2290   -4.1413   12.3176 H   0  0  0  0  0  0
  -10.8616   -3.6223   10.5502 H   0  0  0  0  0  0
   -8.3719   -5.6039    7.6467 H   0  0  0  0  0  0
   -6.7340   -6.1309    9.3966 H   0  0  0  0  0  0
   -6.3028   -6.4372   11.7572 H   0  0  0  0  0  0
   -8.4893   -5.3389   13.4436 H   0  0  0  0  0  0
   -3.5551   -4.2885   15.5833 H   0  0  0  0  0  0
   -7.2790   -3.7888   17.6958 H   0  0  0  0  0  0
   -8.4876   -4.8206   15.8258 H   0  0  0  0  0  0
   -4.9960   -4.6568   12.9133 H   0  0  0  0  0  0
   -6.1857   -3.4507   12.4524 H   0  0  0  0  0  0
   -4.1676   -3.4781   10.9898 H   0  0  0  0  0  0
   -5.6209   -3.8197   10.0482 H   0  0  0  0  0  0
   -4.5256   -5.1426   10.5029 H   0  0  0  0  0  0
   -6.7340   -7.8361   13.7530 H   0  0  0  0  0  0
   -8.2680   -7.7553   12.9050 H   0  0  0  0  0  0
   -8.6617   -8.6827   15.0861 H   0  0  0  0  0  0
   -9.4230   -7.0851   15.0253 H   0  0  0  0  0  0
   -7.8939   -7.3181   15.9001 H   0  0  0  0  0  0
   -5.2697   -3.1560   18.4867 H   0  0  0  0  0  0
  -10.3413   -4.6207    7.1842 H   0  0  0  0  0  0
  1  2  2  0  0  0
  1  6  1  0  0  0
  1  7  1  0  0  0
  2  3  1  0  0  0
  2 22  1  0  0  0
  3  4  2  0  0  0
  3 23  1  0  0  0
  4  5  1  0  0  0
  4 20  1  0  0  0
  5  6  2  0  0  0
  5 24  1  0  0  0
  6 25  1  0  0  0
  7  8  1  0  0  0
  7 15  1  0  0  0
  7 26  1  0  0  0
  8  9  1  0  0  0
  8 17  1  0  0  0
  8 27  1  0  0  0
  9 10  2  0  0  0
  9 14  1  0  0  0
 10 11  1  0  0  0
 10 21  1  0  0  0
 11 12  2  0  0  0
 11 28  1  0  0  0
 12 13  1  0  0  0
 12 19  1  0  0  0
 13 14  2  0  0  0
 13 29  1  0  0  0
 14 30  1  0  0  0
 15 16  1  0  0  0
 15 31  1  0  0  0
 15 32  1  0  0  0
 16 33  1  0  0  0
 16 34  1  0  0  0
 16 35  1  0  0  0
 17 18  1  0  0  0
 17 36  1  0  0  0
 17 37  1  0  0  0
 18 38  1  0  0  0
 18 39  1  0  0  0
 18 40  1  0  0  0
 19 41  1  0  0  0
 20 42  1  0  0  0
M  END
>  <Name>
lit-302

>  <Family>
B.2

>  <RBA>
204.000000

>  <RBA_avg>
204.000000

>  <Method>
LUC

>  <set>
0

$$$$
lit-303
  Cerius2 12180216413D 1   1.00000                          
 Structure written by MMmdl.
 42 43  0  0  0  0  0  0  0  0999 V2000
   -7.8536   -5.1787   10.9970 C   0  0  0  0  0  0
   -9.0274   -4.4693   11.3001 C   0  0  0  0  0  0
   -9.9561   -4.1714   10.3003 C   0  0  0  0  0  0
   -9.7173   -4.5793    8.9936 C   0  0  0  0  0  0
   -8.5628   -5.2817    8.6685 C   0  0  0  0  0  0
   -7.6335   -5.5801    9.6684 C   0  0  0  0  0  0
   -6.8205   -5.5189   12.0724 C   0  0  0  0  0  0
   -7.4941   -5.7945   13.4666 C   0  0  0  0  0  0
   -6.7186   -5.1510   14.6167 C   0  0  0  0  0  0
   -5.3240   -4.9923   14.5675 C   0  0  0  0  0  0
   -4.6375   -4.4055   15.6329 C   0  0  0  0  0  0
   -5.3396   -3.9750   16.7519 C   0  0  0  0  0  0
   -6.7199   -4.1213   16.8244 C   0  0  0  0  0  0
   -7.4072   -4.7083   15.7587 C   0  0  0  0  0  0
   -5.7414   -4.4047   12.1557 C   0  0  0  0  0  0
   -4.9756   -4.2009   10.8520 C   0  0  0  0  0  0
   -7.6847   -7.3095   13.7324 C   0  0  0  0  0  0
   -8.4598   -7.6056   15.0082 C   0  0  0  0  0  0
   -4.6345   -3.4071   17.7719 O   0  0  0  0  0  0
  -10.6471   -4.2695    8.0452 O   0  0  0  0  0  0
   -8.6558   -8.9559   15.0868 F   0  0  0  0  0  0
   -9.2307   -4.1401   12.3179 H   0  0  0  0  0  0
  -10.8611   -3.6215   10.5483 H   0  0  0  0  0  0
   -8.3683   -5.6043    7.6483 H   0  0  0  0  0  0
   -6.7326   -6.1311    9.4003 H   0  0  0  0  0  0
   -6.3044   -6.4391   11.7643 H   0  0  0  0  0  0
   -8.4974   -5.3462   13.4452 H   0  0  0  0  0  0
   -4.7566   -5.3239   13.6992 H   0  0  0  0  0  0
   -3.5575   -4.2881   15.5822 H   0  0  0  0  0  0
   -7.2768   -3.7868   17.6965 H   0  0  0  0  0  0
   -8.4893   -4.8157   15.8283 H   0  0  0  0  0  0
   -5.0010   -4.6582   12.9223 H   0  0  0  0  0  0
   -6.1902   -3.4518   12.4610 H   0  0  0  0  0  0
   -4.1693   -3.4754   11.0021 H   0  0  0  0  0  0
   -5.6211   -3.8153   10.0574 H   0  0  0  0  0  0
   -4.5262   -5.1389   10.5110 H   0  0  0  0  0  0
   -6.7190   -7.8282   13.7722 H   0  0  0  0  0  0
   -8.2343   -7.7786   12.9087 H   0  0  0  0  0  0
   -9.4434   -7.1273   15.0021 H   0  0  0  0  0  0
   -7.9174   -7.3037   15.9076 H   0  0  0  0  0  0
   -5.2647   -3.1585   18.4816 H   0  0  0  0  0  0
  -10.3374   -4.6214    7.1833 H   0  0  0  0  0  0
  1  2  2  0  0  0
  1  6  1  0  0  0
  1  7  1  0  0  0
  2  3  1  0  0  0
  2 22  1  0  0  0
  3  4  2  0  0  0
  3 23  1  0  0  0
  4  5  1  0  0  0
  4 20  1  0  0  0
  5  6  2  0  0  0
  5 24  1  0  0  0
  6 25  1  0  0  0
  7  8  1  0  0  0
  7 15  1  0  0  0
  7 26  1  0  0  0
  8  9  1  0  0  0
  8 17  1  0  0  0
  8 27  1  0  0  0
  9 10  2  0  0  0
  9 14  1  0  0  0
 10 11  1  0  0  0
 10 28  1  0  0  0
 11 12  2  0  0  0
 11 29  1  0  0  0
 12 13  1  0  0  0
 12 19  1  0  0  0
 13 14  2  0  0  0
 13 30  1  0  0  0
 14 31  1  0  0  0
 15 16  1  0  0  0
 15 32  1  0  0  0
 15 33  1  0  0  0
 16 34  1  0  0  0
 16 35  1  0  0  0
 16 36  1  0  0  0
 17 18  1  0  0  0
 17 37  1  0  0  0
 17 38  1  0  0  0
 18 21  1  0  0  0
 18 39  1  0  0  0
 18 40  1  0  0  0
 19 41  1  0  0  0
 20 42  1  0  0  0
M  END
>  <Name>
lit-303

>  <Family>
B.2

>  <RBA>
129.000000

>  <RBA_avg>
129.000000

>  <Method>
LUC

>  <set>
0

$$$$
lit-304
  Cerius2 12180216413D 1   1.00000                          
 Structure written by MMmdl.
 42 43  0  0  0  0  0  0  0  0999 V2000
   -7.8541   -5.1785   10.9971 C   0  0  0  0  0  0
   -9.0280   -4.4691   11.2996 C   0  0  0  0  0  0
   -9.9563   -4.1709   10.2995 C   0  0  0  0  0  0
   -9.7168   -4.5788    8.9930 C   0  0  0  0  0  0
   -8.5624   -5.2815    8.6683 C   0  0  0  0  0  0
   -7.6336   -5.5801    9.6686 C   0  0  0  0  0  0
   -6.8211   -5.5182   12.0727 C   0  0  0  0  0  0
   -7.4940   -5.7968   13.4671 C   0  0  0  0  0  0
   -6.7182   -5.1527   14.6168 C   0  0  0  0  0  0
   -5.3237   -4.9934   14.5671 C   0  0  0  0  0  0
   -4.6371   -4.4054   15.6318 C   0  0  0  0  0  0
   -5.3390   -3.9742   16.7508 C   0  0  0  0  0  0
   -6.7193   -4.1211   16.8237 C   0  0  0  0  0  0
   -7.4066   -4.7092   15.7588 C   0  0  0  0  0  0
   -5.7442   -4.4018   12.1569 C   0  0  0  0  0  0
   -4.9749   -4.1990   10.8548 C   0  0  0  0  0  0
   -7.6835   -7.3165   13.7308 C   0  0  0  0  0  0
   -8.4626   -7.6034   15.0128 C   0  0  0  0  0  0
   -4.6339   -3.4055   17.7702 O   0  0  0  0  0  0
  -10.6460   -4.2687    8.0441 O   0  0  0  0  0  0
   -8.7418   -9.3598   15.1866 Cl  0  0  0  0  0  0
   -9.2316   -4.1400   12.3174 H   0  0  0  0  0  0
  -10.8612   -3.6209   10.5472 H   0  0  0  0  0  0
   -8.3674   -5.6041    7.6481 H   0  0  0  0  0  0
   -6.7327   -6.1313    9.4009 H   0  0  0  0  0  0
   -6.3031   -6.4370   11.7640 H   0  0  0  0  0  0
   -8.4981   -5.3500   13.4470 H   0  0  0  0  0  0
   -4.7565   -5.3254   13.6989 H   0  0  0  0  0  0
   -3.5570   -4.2877   15.5809 H   0  0  0  0  0  0
   -7.2760   -3.7862   17.6957 H   0  0  0  0  0  0
   -8.4886   -4.8173   15.8286 H   0  0  0  0  0  0
   -5.0052   -4.6523   12.9257 H   0  0  0  0  0  0
   -6.1956   -3.4491   12.4591 H   0  0  0  0  0  0
   -4.1705   -3.4717   11.0061 H   0  0  0  0  0  0
   -5.6187   -3.8160   10.0576 H   0  0  0  0  0  0
   -4.5228   -5.1368   10.5168 H   0  0  0  0  0  0
   -6.7099   -7.8213   13.7685 H   0  0  0  0  0  0
   -8.2343   -7.7675   12.8973 H   0  0  0  0  0  0
   -9.4420   -7.1163   14.9976 H   0  0  0  0  0  0
   -7.9209   -7.2798   15.9052 H   0  0  0  0  0  0
   -5.2639   -3.1566   18.4798 H   0  0  0  0  0  0
  -10.3358   -4.6203    7.1822 H   0  0  0  0  0  0
  1  2  2  0  0  0
  1  6  1  0  0  0
  1  7  1  0  0  0
  2  3  1  0  0  0
  2 22  1  0  0  0
  3  4  2  0  0  0
  3 23  1  0  0  0
  4  5  1  0  0  0
  4 20  1  0  0  0
  5  6  2  0  0  0
  5 24  1  0  0  0
  6 25  1  0  0  0
  7  8  1  0  0  0
  7 15  1  0  0  0
  7 26  1  0  0  0
  8  9  1  0  0  0
  8 17  1  0  0  0
  8 27  1  0  0  0
  9 10  2  0  0  0
  9 14  1  0  0  0
 10 11  1  0  0  0
 10 28  1  0  0  0
 11 12  2  0  0  0
 11 29  1  0  0  0
 12 13  1  0  0  0
 12 19  1  0  0  0
 13 14  2  0  0  0
 13 30  1  0  0  0
 14 31  1  0  0  0
 15 16  1  0  0  0
 15 32  1  0  0  0
 15 33  1  0  0  0
 16 34  1  0  0  0
 16 35  1  0  0  0
 16 36  1  0  0  0
 17 18  1  0  0  0
 17 37  1  0  0  0
 17 38  1  0  0  0
 18 21  1  0  0  0
 18 39  1  0  0  0
 18 40  1  0  0  0
 19 41  1  0  0  0
 20 42  1  0  0  0
M  END
>  <Name>
lit-304

>  <Family>
B.2

>  <RBA>
112.000000

>  <RBA_avg>
112.000000

>  <Method>
LUC

>  <set>
0

$$$$
lit-305
  Cerius2 12180216413D 1   1.00000                          
 Structure written by MMmdl.
 43 44  0  0  0  0  0  0  0  0999 V2000
   -7.8558   -5.1788   10.9956 C   0  0  0  0  0  0
   -9.0294   -4.4688   11.2973 C   0  0  0  0  0  0
   -9.9567   -4.1700   10.2964 C   0  0  0  0  0  0
   -9.7164   -4.5779    8.9900 C   0  0  0  0  0  0
   -8.5620   -5.2810    8.6662 C   0  0  0  0  0  0
   -7.6341   -5.5802    9.6673 C   0  0  0  0  0  0
   -6.8240   -5.5195   12.0725 C   0  0  0  0  0  0
   -7.4973   -5.7975   13.4672 C   0  0  0  0  0  0
   -6.7210   -5.1546   14.6168 C   0  0  0  0  0  0
   -5.3299   -4.9893   14.5679 C   0  0  0  0  0  0
   -4.6440   -4.3969   15.6345 C   0  0  0  0  0  0
   -5.3224   -3.9776   16.7794 C   0  0  0  0  0  0
   -6.7103   -4.1145   16.8178 C   0  0  0  0  0  0
   -7.4041   -4.7057   15.7558 C   0  0  0  0  0  0
   -5.7460   -4.4041   12.1568 C   0  0  0  0  0  0
   -4.9771   -4.2014   10.8544 C   0  0  0  0  0  0
   -7.6880   -7.3168   13.7302 C   0  0  0  0  0  0
   -8.4613   -7.6203   15.0101 C   0  0  0  0  0  0
   -4.6491   -3.3353   17.8019 N   0  0  0  0  0  0
  -10.6448   -4.2677    8.0404 O   0  0  0  0  0  0
   -9.2338   -4.1402   12.3152 H   0  0  0  0  0  0
  -10.8618   -3.6196   10.5434 H   0  0  0  0  0  0
   -8.3664   -5.6036    7.6463 H   0  0  0  0  0  0
   -6.7333   -6.1317    9.4005 H   0  0  0  0  0  0
   -6.3070   -6.4391   11.7641 H   0  0  0  0  0  0
   -8.5010   -5.3499   13.4471 H   0  0  0  0  0  0
   -4.7615   -5.3146   13.6980 H   0  0  0  0  0  0
   -3.5651   -4.2705   15.5606 H   0  0  0  0  0  0
   -7.2715   -3.7638   17.6823 H   0  0  0  0  0  0
   -8.4864   -4.8058   15.8273 H   0  0  0  0  0  0
   -5.0070   -4.6557   12.9251 H   0  0  0  0  0  0
   -6.1965   -3.4512   12.4596 H   0  0  0  0  0  0
   -4.1714   -3.4755   11.0059 H   0  0  0  0  0  0
   -5.6207   -3.8166   10.0581 H   0  0  0  0  0  0
   -4.5266   -5.1396   10.5154 H   0  0  0  0  0  0
   -6.7190   -7.8290   13.7663 H   0  0  0  0  0  0
   -8.2485   -7.7718   12.9063 H   0  0  0  0  0  0
   -8.6458   -8.6967   15.0884 H   0  0  0  0  0  0
   -9.4301   -7.1109   15.0126 H   0  0  0  0  0  0
   -7.9061   -7.3163   15.9022 H   0  0  0  0  0  0
   -5.1154   -3.1504   18.6869 H   0  0  0  0  0  0
   -3.6327   -3.3526   17.8377 H   0  0  0  0  0  0
  -10.3343   -4.6200    7.1790 H   0  0  0  0  0  0
  1  2  2  0  0  0
  1  6  1  0  0  0
  1  7  1  0  0  0
  2  3  1  0  0  0
  2 21  1  0  0  0
  3  4  2  0  0  0
  3 22  1  0  0  0
  4  5  1  0  0  0
  4 20  1  0  0  0
  5  6  2  0  0  0
  5 23  1  0  0  0
  6 24  1  0  0  0
  7  8  1  0  0  0
  7 15  1  0  0  0
  7 25  1  0  0  0
  8  9  1  0  0  0
  8 17  1  0  0  0
  8 26  1  0  0  0
  9 10  2  0  0  0
  9 14  1  0  0  0
 10 11  1  0  0  0
 10 27  1  0  0  0
 11 12  2  0  0  0
 11 28  1  0  0  0
 12 13  1  0  0  0
 12 19  1  0  0  0
 13 14  2  0  0  0
 13 29  1  0  0  0
 14 30  1  0  0  0
 15 16  1  0  0  0
 15 31  1  0  0  0
 15 32  1  0  0  0
 16 33  1  0  0  0
 16 34  1  0  0  0
 16 35  1  0  0  0
 17 18  1  0  0  0
 17 36  1  0  0  0
 17 37  1  0  0  0
 18 38  1  0  0  0
 18 39  1  0  0  0
 18 40  1  0  0  0
 19 41  1  0  0  0
 19 42  1  0  0  0
 20 43  1  0  0  0
M  END
>  <Name>
lit-305

>  <Family>
B.2

>  <RBA>
95.000000

>  <RBA_avg>
95.000000

>  <Method>
LUC

>  <set>
1

$$$$
lit-306
  Cerius2 12180216413D 1   1.00000                          
 Structure written by MMmdl.
 42 43  0  0  0  0  0  0  0  0999 V2000
   -7.8536   -5.1782   10.9968 C   0  0  0  0  0  0
   -9.0275   -4.4690   11.2998 C   0  0  0  0  0  0
   -9.9562   -4.1711   10.3000 C   0  0  0  0  0  0
   -9.7172   -4.5791    8.9935 C   0  0  0  0  0  0
   -8.5628   -5.2816    8.6683 C   0  0  0  0  0  0
   -7.6335   -5.5798    9.6683 C   0  0  0  0  0  0
   -6.8208   -5.5185   12.0723 C   0  0  0  0  0  0
   -7.4939   -5.7966   13.4668 C   0  0  0  0  0  0
   -6.7183   -5.1527   14.6167 C   0  0  0  0  0  0
   -5.3238   -4.9936   14.5674 C   0  0  0  0  0  0
   -4.6374   -4.4057   15.6323 C   0  0  0  0  0  0
   -5.3396   -3.9746   16.7511 C   0  0  0  0  0  0
   -6.7199   -4.1216   16.8238 C   0  0  0  0  0  0
   -7.4069   -4.7096   15.7587 C   0  0  0  0  0  0
   -5.7428   -4.4031   12.1569 C   0  0  0  0  0  0
   -4.9749   -4.1992   10.8542 C   0  0  0  0  0  0
   -7.6834   -7.3157   13.7314 C   0  0  0  0  0  0
   -8.4612   -7.5997   15.0106 C   0  0  0  0  0  0
   -4.6346   -3.4057   17.7707 O   0  0  0  0  0  0
  -10.6471   -4.2695    8.0449 O   0  0  0  0  0  0
   -8.7629   -9.5231   15.1807 Br  0  0  0  0  0  0
   -9.2308   -4.1402   12.3177 H   0  0  0  0  0  0
  -10.8612   -3.6213   10.5480 H   0  0  0  0  0  0
   -8.3683   -5.6043    7.6483 H   0  0  0  0  0  0
   -6.7327   -6.1309    9.4005 H   0  0  0  0  0  0
   -6.3036   -6.4379   11.7635 H   0  0  0  0  0  0
   -8.4979   -5.3498   13.4462 H   0  0  0  0  0  0
   -4.7565   -5.3261   13.6994 H   0  0  0  0  0  0
   -3.5573   -4.2882   15.5816 H   0  0  0  0  0  0
   -7.2767   -3.7868   17.6959 H   0  0  0  0  0  0
   -8.4888   -4.8182   15.8284 H   0  0  0  0  0  0
   -5.0032   -4.6554   12.9246 H   0  0  0  0  0  0
   -6.1930   -3.4505   12.4609 H   0  0  0  0  0  0
   -4.1696   -3.4731   11.0055 H   0  0  0  0  0  0
   -5.6193   -3.8143   10.0584 H   0  0  0  0  0  0
   -4.5242   -5.1370   10.5142 H   0  0  0  0  0  0
   -6.7100   -7.8220   13.7668 H   0  0  0  0  0  0
   -8.2295   -7.7693   12.8961 H   0  0  0  0  0  0
   -9.4499   -7.1332   15.0017 H   0  0  0  0  0  0
   -7.9201   -7.3044   15.9127 H   0  0  0  0  0  0
   -5.2648   -3.1569   18.4801 H   0  0  0  0  0  0
  -10.3373   -4.6215    7.1832 H   0  0  0  0  0  0
  1  2  2  0  0  0
  1  6  1  0  0  0
  1  7  1  0  0  0
  2  3  1  0  0  0
  2 22  1  0  0  0
  3  4  2  0  0  0
  3 23  1  0  0  0
  4  5  1  0  0  0
  4 20  1  0  0  0
  5  6  2  0  0  0
  5 24  1  0  0  0
  6 25  1  0  0  0
  7  8  1  0  0  0
  7 15  1  0  0  0
  7 26  1  0  0  0
  8  9  1  0  0  0
  8 17  1  0  0  0
  8 27  1  0  0  0
  9 10  2  0  0  0
  9 14  1  0  0  0
 10 11  1  0  0  0
 10 28  1  0  0  0
 11 12  2  0  0  0
 11 29  1  0  0  0
 12 13  1  0  0  0
 12 19  1  0  0  0
 13 14  2  0  0  0
 13 30  1  0  0  0
 14 31  1  0  0  0
 15 16  1  0  0  0
 15 32  1  0  0  0
 15 33  1  0  0  0
 16 34  1  0  0  0
 16 35  1  0  0  0
 16 36  1  0  0  0
 17 18  1  0  0  0
 17 37  1  0  0  0
 17 38  1  0  0  0
 18 21  1  0  0  0
 18 39  1  0  0  0
 18 40  1  0  0  0
 19 41  1  0  0  0
 20 42  1  0  0  0
M  END
>  <Name>
lit-306

>  <Family>
B.2

>  <RBA>
71.000000

>  <RBA_avg>
71.000000

>  <Method>
LUC

>  <set>
0

$$$$
lit-307
  Cerius2 12180216413D 1   1.00000                          
 Structure written by MMmdl.
 42 43  0  0  0  0  0  0  0  0999 V2000
   -7.8558   -5.1778   10.9985 C   0  0  0  0  0  0
   -9.0282   -4.4687   11.3048 C   0  0  0  0  0  0
   -9.9490   -4.1747   10.3024 C   0  0  0  0  0  0
   -9.7239   -4.5762    8.9884 C   0  0  0  0  0  0
   -8.5684   -5.2793    8.6653 C   0  0  0  0  0  0
   -7.6390   -5.5780    9.6674 C   0  0  0  0  0  0
   -6.8192   -5.5186   12.0703 C   0  0  0  0  0  0
   -7.4879   -5.7948   13.4675 C   0  0  0  0  0  0
   -6.7141   -5.1536   14.6173 C   0  0  0  0  0  0
   -5.3226   -4.9879   14.5830 C   0  0  0  0  0  0
   -4.6318   -4.4025   15.6401 C   0  0  0  0  0  0
   -5.3370   -3.9729   16.7560 C   0  0  0  0  0  0
   -6.7184   -4.1218   16.8252 C   0  0  0  0  0  0
   -7.4045   -4.7109   15.7587 C   0  0  0  0  0  0
   -5.7402   -4.4041   12.1491 C   0  0  0  0  0  0
   -4.9759   -4.2049   10.8436 C   0  0  0  0  0  0
   -7.6927   -7.3125   13.7280 C   0  0  0  0  0  0
   -8.4617   -7.6122   15.0112 C   0  0  0  0  0  0
   -4.6361   -3.4029   17.7779 O   0  0  0  0  0  0
  -10.6489   -4.2704    8.0296 O   0  0  0  0  0  0
   -4.6223   -5.3949   13.5146 F   0  0  0  0  0  0
  -11.0623   -3.4959   10.6184 F   0  0  0  0  0  0
   -9.2376   -4.1377   12.3185 H   0  0  0  0  0  0
   -8.3719   -5.6026    7.6457 H   0  0  0  0  0  0
   -6.7382   -6.1294    9.3980 H   0  0  0  0  0  0
   -6.3042   -6.4369   11.7573 H   0  0  0  0  0  0
   -8.4893   -5.3420   13.4469 H   0  0  0  0  0  0
   -3.5540   -4.2877   15.5829 H   0  0  0  0  0  0
   -7.2774   -3.7877   17.6966 H   0  0  0  0  0  0
   -8.4863   -4.8210   15.8278 H   0  0  0  0  0  0
   -4.9985   -4.6551   12.9151 H   0  0  0  0  0  0
   -6.1886   -3.4502   12.4517 H   0  0  0  0  0  0
   -4.1689   -3.4796   10.9905 H   0  0  0  0  0  0
   -5.6219   -3.8212   10.0486 H   0  0  0  0  0  0
   -4.5275   -5.1443   10.5049 H   0  0  0  0  0  0
   -6.7302   -7.8364   13.7571 H   0  0  0  0  0  0
   -8.2624   -7.7584   12.9053 H   0  0  0  0  0  0
   -8.6603   -8.6864   15.0851 H   0  0  0  0  0  0
   -9.4236   -7.0898   15.0229 H   0  0  0  0  0  0
   -7.8964   -7.3208   15.9012 H   0  0  0  0  0  0
   -5.2677   -3.1543   18.4866 H   0  0  0  0  0  0
  -10.3325   -4.6244    7.1714 H   0  0  0  0  0  0
  1  2  2  0  0  0
  1  6  1  0  0  0
  1  7  1  0  0  0
  2  3  1  0  0  0
  2 23  1  0  0  0
  3  4  2  0  0  0
  3 22  1  0  0  0
  4  5  1  0  0  0
  4 20  1  0  0  0
  5  6  2  0  0  0
  5 24  1  0  0  0
  6 25  1  0  0  0
  7  8  1  0  0  0
  7 15  1  0  0  0
  7 26  1  0  0  0
  8  9  1  0  0  0
  8 17  1  0  0  0
  8 27  1  0  0  0
  9 10  2  0  0  0
  9 14  1  0  0  0
 10 11  1  0  0  0
 10 21  1  0  0  0
 11 12  2  0  0  0
 11 28  1  0  0  0
 12 13  1  0  0  0
 12 19  1  0  0  0
 13 14  2  0  0  0
 13 29  1  0  0  0
 14 30  1  0  0  0
 15 16  1  0  0  0
 15 31  1  0  0  0
 15 32  1  0  0  0
 16 33  1  0  0  0
 16 34  1  0  0  0
 16 35  1  0  0  0
 17 18  1  0  0  0
 17 36  1  0  0  0
 17 37  1  0  0  0
 18 38  1  0  0  0
 18 39  1  0  0  0
 18 40  1  0  0  0
 19 41  1  0  0  0
 20 42  1  0  0  0
M  END
>  <Name>
lit-307

>  <Family>
B.2

>  <RBA>
65.000000

>  <RBA_avg>
65.000000

>  <Method>
LUC

>  <set>
2

$$$$
lit-308
  Cerius2 12180216413D 1   1.00000                          
 Structure written by MMmdl.
 42 43  0  0  0  0  0  0  0  0999 V2000
   -7.8545   -5.1782   10.9971 C   0  0  0  0  0  0
   -9.0285   -4.4686   11.2991 C   0  0  0  0  0  0
   -9.9562   -4.1705   10.2984 C   0  0  0  0  0  0
   -9.7162   -4.5784    8.9920 C   0  0  0  0  0  0
   -8.5617   -5.2813    8.6679 C   0  0  0  0  0  0
   -7.6335   -5.5799    9.6688 C   0  0  0  0  0  0
   -6.8219   -5.5173   12.0732 C   0  0  0  0  0  0
   -7.4947   -5.7969   13.4678 C   0  0  0  0  0  0
   -6.7182   -5.1531   14.6172 C   0  0  0  0  0  0
   -5.3237   -4.9938   14.5668 C   0  0  0  0  0  0
   -4.6367   -4.4052   15.6309 C   0  0  0  0  0  0
   -5.3381   -3.9735   16.7500 C   0  0  0  0  0  0
   -6.7182   -4.1205   16.8237 C   0  0  0  0  0  0
   -7.4061   -4.7091   15.7593 C   0  0  0  0  0  0
   -5.7458   -4.4000   12.1576 C   0  0  0  0  0  0
   -4.9749   -4.1983   10.8563 C   0  0  0  0  0  0
   -7.6841   -7.3178   13.7306 C   0  0  0  0  0  0
   -8.4652   -7.6103   15.0169 C   0  0  0  0  0  0
   -4.6324   -3.4040   17.7686 O   0  0  0  0  0  0
  -10.6449   -4.2682    8.0425 O   0  0  0  0  0  0
   -8.8027   -9.7263   15.2246 I   0  0  0  0  0  0
   -9.2325   -4.1394   12.3167 H   0  0  0  0  0  0
  -10.8612   -3.6203   10.5456 H   0  0  0  0  0  0
   -8.3662   -5.6040    7.6481 H   0  0  0  0  0  0
   -6.7325   -6.1312    9.4017 H   0  0  0  0  0  0
   -6.3031   -6.4358   11.7646 H   0  0  0  0  0  0
   -8.4988   -5.3503   13.4478 H   0  0  0  0  0  0
   -4.7571   -5.3267   13.6986 H   0  0  0  0  0  0
   -3.5566   -4.2876   15.5793 H   0  0  0  0  0  0
   -7.2746   -3.7854   17.6960 H   0  0  0  0  0  0
   -8.4878   -4.8178   15.8297 H   0  0  0  0  0  0
   -5.0077   -4.6491   12.9276 H   0  0  0  0  0  0
   -6.1983   -3.4474   12.4580 H   0  0  0  0  0  0
   -4.1702   -3.4714   11.0082 H   0  0  0  0  0  0
   -5.6175   -3.8151   10.0583 H   0  0  0  0  0  0
   -4.5229   -5.1365   10.5193 H   0  0  0  0  0  0
   -6.7096   -7.8217   13.7634 H   0  0  0  0  0  0
   -8.2322   -7.7667   12.8942 H   0  0  0  0  0  0
   -9.4317   -7.0951   14.9978 H   0  0  0  0  0  0
   -7.9185   -7.2626   15.8990 H   0  0  0  0  0  0
   -5.2623   -3.1548   18.4784 H   0  0  0  0  0  0
  -10.3345   -4.6205    7.1811 H   0  0  0  0  0  0
  1  2  2  0  0  0
  1  6  1  0  0  0
  1  7  1  0  0  0
  2  3  1  0  0  0
  2 22  1  0  0  0
  3  4  2  0  0  0
  3 23  1  0  0  0
  4  5  1  0  0  0
  4 20  1  0  0  0
  5  6  2  0  0  0
  5 24  1  0  0  0
  6 25  1  0  0  0
  7  8  1  0  0  0
  7 15  1  0  0  0
  7 26  1  0  0  0
  8  9  1  0  0  0
  8 17  1  0  0  0
  8 27  1  0  0  0
  9 10  2  0  0  0
  9 14  1  0  0  0
 10 11  1  0  0  0
 10 28  1  0  0  0
 11 12  2  0  0  0
 11 29  1  0  0  0
 12 13  1  0  0  0
 12 19  1  0  0  0
 13 14  2  0  0  0
 13 30  1  0  0  0
 14 31  1  0  0  0
 15 16  1  0  0  0
 15 32  1  0  0  0
 15 33  1  0  0  0
 16 34  1  0  0  0
 16 35  1  0  0  0
 16 36  1  0  0  0
 17 18  1  0  0  0
 17 37  1  0  0  0
 17 38  1  0  0  0
 18 21  1  0  0  0
 18 39  1  0  0  0
 18 40  1  0  0  0
 19 41  1  0  0  0
 20 42  1  0  0  0
M  END
>  <Name>
lit-308

>  <Family>
B.2

>  <RBA>
60.000000

>  <RBA_avg>
60.000000

>  <Method>
LUC

>  <set>
0

$$$$
lit-309
  Cerius2 12180216413D 1   1.00000                          
 Structure written by MMmdl.
 45 46  0  0  0  0  0  0  0  0999 V2000
   -7.8558   -5.1780   10.9963 C   0  0  0  0  0  0
   -9.0296   -4.4680   11.2974 C   0  0  0  0  0  0
   -9.9566   -4.1696   10.2960 C   0  0  0  0  0  0
   -9.7158   -4.5778    8.9899 C   0  0  0  0  0  0
   -8.5611   -5.2809    8.6666 C   0  0  0  0  0  0
   -7.6337   -5.5796    9.6681 C   0  0  0  0  0  0
   -6.8243   -5.5183   12.0735 C   0  0  0  0  0  0
   -7.4980   -5.7968   13.4679 C   0  0  0  0  0  0
   -6.7202   -5.1553   14.6180 C   0  0  0  0  0  0
   -5.3272   -4.9971   14.5684 C   0  0  0  0  0  0
   -4.6379   -4.4065   15.6314 C   0  0  0  0  0  0
   -5.3251   -3.9544   16.7650 C   0  0  0  0  0  0
   -6.7143   -4.1221   16.8223 C   0  0  0  0  0  0
   -7.4047   -4.7124   15.7599 C   0  0  0  0  0  0
   -5.7472   -4.4020   12.1586 C   0  0  0  0  0  0
   -4.9766   -4.1995   10.8573 C   0  0  0  0  0  0
   -7.6911   -7.3161   13.7292 C   0  0  0  0  0  0
   -8.4616   -7.6201   15.0106 C   0  0  0  0  0  0
  -10.6439   -4.2679    8.0399 O   0  0  0  0  0  0
   -4.5814   -3.3274   17.9120 C   0  0  0  0  0  0
   -4.1963   -4.3537   18.8226 O   0  0  0  0  0  0
   -9.2344   -4.1393   12.3151 H   0  0  0  0  0  0
  -10.8617   -3.6194   10.5426 H   0  0  0  0  0  0
   -8.3651   -5.6036    7.6468 H   0  0  0  0  0  0
   -6.7326   -6.1312    9.4017 H   0  0  0  0  0  0
   -6.3064   -6.4374   11.7652 H   0  0  0  0  0  0
   -8.5009   -5.3475   13.4480 H   0  0  0  0  0  0
   -4.7610   -5.3344   13.7014 H   0  0  0  0  0  0
   -3.5553   -4.3014   15.5690 H   0  0  0  0  0  0
   -7.2707   -3.7924   17.6990 H   0  0  0  0  0  0
   -8.4859   -4.8247   15.8341 H   0  0  0  0  0  0
   -5.0090   -4.6524   12.9283 H   0  0  0  0  0  0
   -6.1988   -3.4492   12.4601 H   0  0  0  0  0  0
   -4.1722   -3.4724   11.0092 H   0  0  0  0  0  0
   -5.6195   -3.8167   10.0594 H   0  0  0  0  0  0
   -4.5241   -5.1375   10.5201 H   0  0  0  0  0  0
   -6.7229   -7.8302   13.7621 H   0  0  0  0  0  0
   -8.2544   -7.7687   12.9060 H   0  0  0  0  0  0
   -8.6478   -8.6963   15.0878 H   0  0  0  0  0  0
   -9.4295   -7.1090   15.0162 H   0  0  0  0  0  0
   -7.9036   -7.3184   15.9018 H   0  0  0  0  0  0
  -10.3334   -4.6209    7.1787 H   0  0  0  0  0  0
   -5.2123   -2.6015   18.4363 H   0  0  0  0  0  0
   -3.6849   -2.8072   17.5582 H   0  0  0  0  0  0
   -3.7199   -3.8869   19.5412 H   0  0  0  0  0  0
  1  2  2  0  0  0
  1  6  1  0  0  0
  1  7  1  0  0  0
  2  3  1  0  0  0
  2 22  1  0  0  0
  3  4  2  0  0  0
  3 23  1  0  0  0
  4  5  1  0  0  0
  4 19  1  0  0  0
  5  6  2  0  0  0
  5 24  1  0  0  0
  6 25  1  0  0  0
  7  8  1  0  0  0
  7 15  1  0  0  0
  7 26  1  0  0  0
  8  9  1  0  0  0
  8 17  1  0  0  0
  8 27  1  0  0  0
  9 10  2  0  0  0
  9 14  1  0  0  0
 10 11  1  0  0  0
 10 28  1  0  0  0
 11 12  2  0  0  0
 11 29  1  0  0  0
 12 13  1  0  0  0
 12 20  1  0  0  0
 13 14  2  0  0  0
 13 30  1  0  0  0
 14 31  1  0  0  0
 15 16  1  0  0  0
 15 32  1  0  0  0
 15 33  1  0  0  0
 16 34  1  0  0  0
 16 35  1  0  0  0
 16 36  1  0  0  0
 17 18  1  0  0  0
 17 37  1  0  0  0
 17 38  1  0  0  0
 18 39  1  0  0  0
 18 40  1  0  0  0
 18 41  1  0  0  0
 19 42  1  0  0  0
 20 21  1  0  0  0
 20 43  1  0  0  0
 20 44  1  0  0  0
 21 45  1  0  0  0
M  END
>  <Name>
lit-309

>  <Family>
B.2

>  <RBA>
40.000000

>  <RBA_avg>
40.000000

>  <Method>
LUC

>  <set>
0

$$$$
lit-310
  Cerius2 12180216413D 1   1.00000                          
 Structure written by MMmdl.
 49 50  0  0  0  0  0  0  0  0999 V2000
   -7.8577   -5.1793   10.9938 C   0  0  0  0  0  0
   -9.0311   -4.4697   11.2974 C   0  0  0  0  0  0
   -9.9600   -4.1708   10.2980 C   0  0  0  0  0  0
   -9.7216   -4.5782    8.9912 C   0  0  0  0  0  0
   -8.5675   -5.2809    8.6654 C   0  0  0  0  0  0
   -7.6381   -5.5801    9.6650 C   0  0  0  0  0  0
   -6.8242   -5.5201   12.0689 C   0  0  0  0  0  0
   -7.4949   -5.7913   13.4661 C   0  0  0  0  0  0
   -6.7090   -5.1532   14.6122 C   0  0  0  0  0  0
   -5.3159   -4.9987   14.5563 C   0  0  0  0  0  0
   -4.6138   -4.4130   15.6167 C   0  0  0  0  0  0
   -5.2936   -3.9729   16.7511 C   0  0  0  0  0  0
   -6.6802   -4.1234   16.8137 C   0  0  0  0  0  0
   -7.3838   -4.7074   15.7569 C   0  0  0  0  0  0
   -5.7423   -4.4081   12.1473 C   0  0  0  0  0  0
   -4.9789   -4.2088   10.8414 C   0  0  0  0  0  0
   -7.6967   -7.3086   13.7320 C   0  0  0  0  0  0
   -8.4648   -7.6044   15.0168 C   0  0  0  0  0  0
  -10.6516   -4.2680    8.0431 O   0  0  0  0  0  0
   -4.7299   -3.3879   17.8511 O   0  0  0  0  0  0
   -3.3098   -3.2177   17.8396 C   0  0  0  0  0  0
   -2.8857   -2.5593   19.1495 C   0  0  0  0  0  0
   -1.4712   -2.3701   19.1802 O   0  0  0  0  0  0
   -9.2341   -4.1415   12.3157 H   0  0  0  0  0  0
  -10.8647   -3.6208   10.5466 H   0  0  0  0  0  0
   -8.3733   -5.6031    7.6450 H   0  0  0  0  0  0
   -6.7374   -6.1314    9.3965 H   0  0  0  0  0  0
   -6.3110   -6.4422   11.7620 H   0  0  0  0  0  0
   -8.4948   -5.3355   13.4490 H   0  0  0  0  0  0
   -4.7565   -5.3342   13.6838 H   0  0  0  0  0  0
   -3.5357   -4.3193   15.5181 H   0  0  0  0  0  0
   -7.2256   -3.7845   17.6931 H   0  0  0  0  0  0
   -8.4651   -4.8104   15.8382 H   0  0  0  0  0  0
   -5.0004   -4.6611   12.9125 H   0  0  0  0  0  0
   -6.1883   -3.4535   12.4515 H   0  0  0  0  0  0
   -4.1709   -3.4846   10.9880 H   0  0  0  0  0  0
   -5.6253   -3.8236   10.0473 H   0  0  0  0  0  0
   -4.5320   -5.1484   10.5015 H   0  0  0  0  0  0
   -6.7318   -7.8288   13.7629 H   0  0  0  0  0  0
   -8.2657   -7.7595   12.9117 H   0  0  0  0  0  0
   -8.6577   -8.6791   15.0973 H   0  0  0  0  0  0
   -9.4294   -7.0870   15.0243 H   0  0  0  0  0  0
   -7.9019   -7.3041   15.9054 H   0  0  0  0  0  0
  -10.3425   -4.6201    7.1811 H   0  0  0  0  0  0
   -3.0039   -2.5779   17.0026 H   0  0  0  0  0  0
   -2.8046   -4.1870   17.7472 H   0  0  0  0  0  0
   -3.1790   -3.1821   20.0016 H   0  0  0  0  0  0
   -3.3765   -1.5868   19.2640 H   0  0  0  0  0  0
   -1.2823   -1.9471   20.0462 H   0  0  0  0  0  0
  1  2  2  0  0  0
  1  6  1  0  0  0
  1  7  1  0  0  0
  2  3  1  0  0  0
  2 24  1  0  0  0
  3  4  2  0  0  0
  3 25  1  0  0  0
  4  5  1  0  0  0
  4 19  1  0  0  0
  5  6  2  0  0  0
  5 26  1  0  0  0
  6 27  1  0  0  0
  7  8  1  0  0  0
  7 15  1  0  0  0
  7 28  1  0  0  0
  8  9  1  0  0  0
  8 17  1  0  0  0
  8 29  1  0  0  0
  9 10  2  0  0  0
  9 14  1  0  0  0
 10 11  1  0  0  0
 10 30  1  0  0  0
 11 12  2  0  0  0
 11 31  1  0  0  0
 12 13  1  0  0  0
 12 20  1  0  0  0
 13 14  2  0  0  0
 13 32  1  0  0  0
 14 33  1  0  0  0
 15 16  1  0  0  0
 15 34  1  0  0  0
 15 35  1  0  0  0
 16 36  1  0  0  0
 16 37  1  0  0  0
 16 38  1  0  0  0
 17 18  1  0  0  0
 17 39  1  0  0  0
 17 40  1  0  0  0
 18 41  1  0  0  0
 18 42  1  0  0  0
 18 43  1  0  0  0
 19 44  1  0  0  0
 20 21  1  0  0  0
 21 22  1  0  0  0
 21 45  1  0  0  0
 21 46  1  0  0  0
 22 23  1  0  0  0
 22 47  1  0  0  0
 22 48  1  0  0  0
 23 49  1  0  0  0
M  END
>  <Name>
lit-310

>  <Family>
B.2

>  <RBA>
21.000000

>  <RBA_avg>
21.000000

>  <Method>
LUC

>  <set>
0

$$$$
lit-311
  Cerius2 12180216413D 1   1.00000                          
 Structure written by MMmdl.
 45 46  0  0  0  0  0  0  0  0999 V2000
   -7.8581   -5.1793   10.9942 C   0  0  0  0  0  0
   -9.0316   -4.4696   11.2974 C   0  0  0  0  0  0
   -9.9599   -4.1706   10.2975 C   0  0  0  0  0  0
   -9.7210   -4.5781    8.9908 C   0  0  0  0  0  0
   -8.5668   -5.2809    8.6655 C   0  0  0  0  0  0
   -7.6379   -5.5802    9.6655 C   0  0  0  0  0  0
   -6.8249   -5.5197   12.0695 C   0  0  0  0  0  0
   -7.4957   -5.7919   13.4666 C   0  0  0  0  0  0
   -6.7092   -5.1543   14.6127 C   0  0  0  0  0  0
   -5.3162   -4.9999   14.5561 C   0  0  0  0  0  0
   -4.6138   -4.4134   15.6159 C   0  0  0  0  0  0
   -5.2934   -3.9722   16.7502 C   0  0  0  0  0  0
   -6.6798   -4.1233   16.8138 C   0  0  0  0  0  0
   -7.3837   -4.7083   15.7576 C   0  0  0  0  0  0
   -5.7437   -4.4071   12.1488 C   0  0  0  0  0  0
   -4.9789   -4.2079   10.8435 C   0  0  0  0  0  0
   -7.6975   -7.3092   13.7315 C   0  0  0  0  0  0
   -8.4648   -7.6058   15.0167 C   0  0  0  0  0  0
  -10.6504   -4.2674    8.0422 O   0  0  0  0  0  0
   -4.7279   -3.3856   17.8487 O   0  0  0  0  0  0
   -3.3121   -3.2109   17.8246 C   0  0  0  0  0  0
   -9.2349   -4.1414   12.3155 H   0  0  0  0  0  0
  -10.8648   -3.6204   10.5457 H   0  0  0  0  0  0
   -8.3722   -5.6031    7.6452 H   0  0  0  0  0  0
   -6.7372   -6.1316    9.3975 H   0  0  0  0  0  0
   -6.3110   -6.4415   11.7624 H   0  0  0  0  0  0
   -8.4956   -5.3359   13.4499 H   0  0  0  0  0  0
   -4.7571   -5.3358   13.6836 H   0  0  0  0  0  0
   -3.5356   -4.3193   15.5176 H   0  0  0  0  0  0
   -7.2249   -3.7840   17.6931 H   0  0  0  0  0  0
   -8.4650   -4.8113   15.8392 H   0  0  0  0  0  0
   -5.0025   -4.6596   12.9149 H   0  0  0  0  0  0
   -6.1905   -3.4527   12.4521 H   0  0  0  0  0  0
   -4.1713   -3.4837   10.9911 H   0  0  0  0  0  0
   -5.6245   -3.8230   10.0489 H   0  0  0  0  0  0
   -4.5316   -5.1477   10.5044 H   0  0  0  0  0  0
   -6.7327   -7.8298   13.7613 H   0  0  0  0  0  0
   -8.2673   -7.7595   12.9113 H   0  0  0  0  0  0
   -8.6590   -8.6804   15.0959 H   0  0  0  0  0  0
   -9.4287   -7.0872   15.0259 H   0  0  0  0  0  0
   -7.9005   -7.3074   15.9050 H   0  0  0  0  0  0
  -10.3410   -4.6198    7.1804 H   0  0  0  0  0  0
   -3.0201   -2.7330   18.7647 H   0  0  0  0  0  0
   -3.0114   -2.5488   17.0059 H   0  0  0  0  0  0
   -2.7976   -4.1757   17.7662 H   0  0  0  0  0  0
  1  2  2  0  0  0
  1  6  1  0  0  0
  1  7  1  0  0  0
  2  3  1  0  0  0
  2 22  1  0  0  0
  3  4  2  0  0  0
  3 23  1  0  0  0
  4  5  1  0  0  0
  4 19  1  0  0  0
  5  6  2  0  0  0
  5 24  1  0  0  0
  6 25  1  0  0  0
  7  8  1  0  0  0
  7 15  1  0  0  0
  7 26  1  0  0  0
  8  9  1  0  0  0
  8 17  1  0  0  0
  8 27  1  0  0  0
  9 10  2  0  0  0
  9 14  1  0  0  0
 10 11  1  0  0  0
 10 28  1  0  0  0
 11 12  2  0  0  0
 11 29  1  0  0  0
 12 13  1  0  0  0
 12 20  1  0  0  0
 13 14  2  0  0  0
 13 30  1  0  0  0
 14 31  1  0  0  0
 15 16  1  0  0  0
 15 32  1  0  0  0
 15 33  1  0  0  0
 16 34  1  0  0  0
 16 35  1  0  0  0
 16 36  1  0  0  0
 17 18  1  0  0  0
 17 37  1  0  0  0
 17 38  1  0  0  0
 18 39  1  0  0  0
 18 40  1  0  0  0
 18 41  1  0  0  0
 19 42  1  0  0  0
 20 21  1  0  0  0
 21 43  1  0  0  0
 21 44  1  0  0  0
 21 45  1  0  0  0
M  END
>  <Name>
lit-311

>  <Family>
B.2

>  <RBA>
19.000000

>  <RBA_avg>
19.000000

>  <Method>
LUC

>  <set>
0

$$$$
lit-312
  Cerius2 12180216413D 1   1.00000                          
 Structure written by MMmdl.
 42 43  0  0  0  0  0  0  0  0999 V2000
   -7.8422   -5.1869   10.9666 C   0  0  0  0  0  0
   -9.0112   -4.4850   11.3036 C   0  0  0  0  0  0
   -9.9668   -4.1861   10.3299 C   0  0  0  0  0  0
   -9.7604   -4.5862    9.0154 C   0  0  0  0  0  0
   -8.6120   -5.2821    8.6568 C   0  0  0  0  0  0
   -7.6558   -5.5814    9.6306 C   0  0  0  0  0  0
   -6.7784   -5.5294   12.0131 C   0  0  0  0  0  0
   -7.4144   -5.7712   13.4324 C   0  0  0  0  0  0
   -6.6169   -5.1511   14.5889 C   0  0  0  0  0  0
   -5.2208   -4.9690   14.6380 C   0  0  0  0  0  0
   -4.6168   -4.3860   15.7630 C   0  0  0  0  0  0
   -5.3890   -3.9809   16.8436 C   0  0  0  0  0  0
   -6.7636   -4.1458   16.8274 C   0  0  0  0  0  0
   -7.3686   -4.7253   15.7100 C   0  0  0  0  0  0
   -5.6716   -4.4407   12.0413 C   0  0  0  0  0  0
   -4.9698   -4.2522   10.6995 C   0  0  0  0  0  0
   -7.7721   -7.2610   13.6885 C   0  0  0  0  0  0
   -8.4539   -7.5085   15.0304 C   0  0  0  0  0  0
   -4.7550   -3.4201   17.9126 O   0  0  0  0  0  0
  -10.7159   -4.2757    8.0931 O   0  0  0  0  0  0
   -4.0265   -5.4654   13.2458 Br  0  0  0  0  0  0
   -9.1902   -4.1626   12.3282 H   0  0  0  0  0  0
  -10.8675   -3.6416   10.6044 H   0  0  0  0  0  0
   -8.4429   -5.5991    7.6304 H   0  0  0  0  0  0
   -6.7604   -6.1279    9.3363 H   0  0  0  0  0  0
   -6.2944   -6.4567   11.6899 H   0  0  0  0  0  0
   -8.3854   -5.2543   13.4135 H   0  0  0  0  0  0
   -3.5387   -4.2445   15.8019 H   0  0  0  0  0  0
   -7.3811   -3.8335   17.6662 H   0  0  0  0  0  0
   -8.4528   -4.8437   15.7230 H   0  0  0  0  0  0
   -4.8976   -4.7152   12.7663 H   0  0  0  0  0  0
   -6.0806   -3.4783   12.3712 H   0  0  0  0  0  0
   -4.1411   -3.5449   10.8079 H   0  0  0  0  0  0
   -5.6467   -3.8516    9.9393 H   0  0  0  0  0  0
   -4.5594   -5.1995   10.3357 H   0  0  0  0  0  0
   -6.8922   -7.9048   13.6118 H   0  0  0  0  0  0
   -8.4641   -7.6080   12.9123 H   0  0  0  0  0  0
   -8.7767   -8.5526   15.0978 H   0  0  0  0  0  0
   -9.3390   -6.8746   15.1441 H   0  0  0  0  0  0
   -7.7782   -7.3193   15.8696 H   0  0  0  0  0  0
   -5.4296   -3.1897   18.5870 H   0  0  0  0  0  0
  -10.4270   -4.6215    7.2216 H   0  0  0  0  0  0
  1  2  2  0  0  0
  1  6  1  0  0  0
  1  7  1  0  0  0
  2  3  1  0  0  0
  2 22  1  0  0  0
  3  4  2  0  0  0
  3 23  1  0  0  0
  4  5  1  0  0  0
  4 20  1  0  0  0
  5  6  2  0  0  0
  5 24  1  0  0  0
  6 25  1  0  0  0
  7  8  1  0  0  0
  7 15  1  0  0  0
  7 26  1  0  0  0
  8  9  1  0  0  0
  8 17  1  0  0  0
  8 27  1  0  0  0
  9 10  2  0  0  0
  9 14  1  0  0  0
 10 11  1  0  0  0
 10 21  1  0  0  0
 11 12  2  0  0  0
 11 28  1  0  0  0
 12 13  1  0  0  0
 12 19  1  0  0  0
 13 14  2  0  0  0
 13 29  1  0  0  0
 14 30  1  0  0  0
 15 16  1  0  0  0
 15 31  1  0  0  0
 15 32  1  0  0  0
 16 33  1  0  0  0
 16 34  1  0  0  0
 16 35  1  0  0  0
 17 18  1  0  0  0
 17 36  1  0  0  0
 17 37  1  0  0  0
 18 38  1  0  0  0
 18 39  1  0  0  0
 18 40  1  0  0  0
 19 41  1  0  0  0
 20 42  1  0  0  0
M  END
>  <Name>
lit-312

>  <Family>
B.2

>  <RBA>
16.000000

>  <RBA_avg>
16.000000

>  <Method>
LUC

>  <set>
0

$$$$
lit-313
  Cerius2 12180216413D 1   1.00000                          
 Structure written by MMmdl.
 42 43  0  0  0  0  0  0  0  0999 V2000
   -7.8403   -5.1886   10.9607 C   0  0  0  0  0  0
   -9.0081   -4.4879   11.3043 C   0  0  0  0  0  0
   -9.9690   -4.1886   10.3359 C   0  0  0  0  0  0
   -9.7690   -4.5872    9.0199 C   0  0  0  0  0  0
   -8.6220   -5.2819    8.6546 C   0  0  0  0  0  0
   -7.6605   -5.5815    9.6233 C   0  0  0  0  0  0
   -6.7708   -5.5317   12.0013 C   0  0  0  0  0  0
   -7.3980   -5.7679   13.4254 C   0  0  0  0  0  0
   -6.5939   -5.1524   14.5820 C   0  0  0  0  0  0
   -5.1977   -4.9679   14.6513 C   0  0  0  0  0  0
   -4.6132   -4.3844   15.7908 C   0  0  0  0  0  0
   -5.4007   -3.9825   16.8616 C   0  0  0  0  0  0
   -6.7732   -4.1491   16.8252 C   0  0  0  0  0  0
   -7.3592   -4.7274   15.6974 C   0  0  0  0  0  0
   -5.6590   -4.4478   12.0189 C   0  0  0  0  0  0
   -4.9703   -4.2618   10.6701 C   0  0  0  0  0  0
   -7.7891   -7.2491   13.6820 C   0  0  0  0  0  0
   -8.4492   -7.4873   15.0364 C   0  0  0  0  0  0
   -4.7827   -3.4230   17.9405 O   0  0  0  0  0  0
  -10.7295   -4.2764    8.1028 O   0  0  0  0  0  0
   -3.8153   -5.4957   13.1552 I   0  0  0  0  0  0
   -9.1824   -4.1671   12.3302 H   0  0  0  0  0  0
  -10.8686   -3.6452   10.6154 H   0  0  0  0  0  0
   -8.4580   -5.5978    7.6271 H   0  0  0  0  0  0
   -6.7663   -6.1271    9.3236 H   0  0  0  0  0  0
   -6.2931   -6.4608   11.6765 H   0  0  0  0  0  0
   -8.3621   -5.2378   13.4067 H   0  0  0  0  0  0
   -3.5367   -4.2374   15.8543 H   0  0  0  0  0  0
   -7.4040   -3.8396   17.6551 H   0  0  0  0  0  0
   -8.4437   -4.8456   15.6979 H   0  0  0  0  0  0
   -4.8788   -4.7265   12.7356 H   0  0  0  0  0  0
   -6.0602   -3.4838   12.3536 H   0  0  0  0  0  0
   -4.1374   -3.5581   10.7702 H   0  0  0  0  0  0
   -5.6531   -3.8580    9.9169 H   0  0  0  0  0  0
   -4.5676   -5.2107   10.3017 H   0  0  0  0  0  0
   -6.9301   -7.9162   13.5819 H   0  0  0  0  0  0
   -8.5062   -7.5728   12.9184 H   0  0  0  0  0  0
   -8.7970   -8.5234   15.1047 H   0  0  0  0  0  0
   -9.3156   -6.8321   15.1718 H   0  0  0  0  0  0
   -7.7521   -7.3202   15.8625 H   0  0  0  0  0  0
   -5.4670   -3.1952   18.6058 H   0  0  0  0  0  0
  -10.4450   -4.6213    7.2296 H   0  0  0  0  0  0
  1  2  2  0  0  0
  1  6  1  0  0  0
  1  7  1  0  0  0
  2  3  1  0  0  0
  2 22  1  0  0  0
  3  4  2  0  0  0
  3 23  1  0  0  0
  4  5  1  0  0  0
  4 20  1  0  0  0
  5  6  2  0  0  0
  5 24  1  0  0  0
  6 25  1  0  0  0
  7  8  1  0  0  0
  7 15  1  0  0  0
  7 26  1  0  0  0
  8  9  1  0  0  0
  8 17  1  0  0  0
  8 27  1  0  0  0
  9 10  2  0  0  0
  9 14  1  0  0  0
 10 11  1  0  0  0
 10 21  1  0  0  0
 11 12  2  0  0  0
 11 28  1  0  0  0
 12 13  1  0  0  0
 12 19  1  0  0  0
 13 14  2  0  0  0
 13 29  1  0  0  0
 14 30  1  0  0  0
 15 16  1  0  0  0
 15 31  1  0  0  0
 15 32  1  0  0  0
 16 33  1  0  0  0
 16 34  1  0  0  0
 16 35  1  0  0  0
 17 18  1  0  0  0
 17 36  1  0  0  0
 17 37  1  0  0  0
 18 38  1  0  0  0
 18 39  1  0  0  0
 18 40  1  0  0  0
 19 41  1  0  0  0
 20 42  1  0  0  0
M  END
>  <Name>
lit-313

>  <Family>
B.2

>  <RBA>
14.000000

>  <RBA_avg>
14.000000

>  <Method>
LUC

>  <set>
0

$$$$
lit-314
  Cerius2 12180216413D 1   1.00000                          
 Structure written by MMmdl.
 43 44  0  0  0  0  0  0  0  0999 V2000
   -7.8553   -5.1784   10.9971 C   0  0  0  0  0  0
   -9.0292   -4.4685   11.2983 C   0  0  0  0  0  0
   -9.9563   -4.1702   10.2973 C   0  0  0  0  0  0
   -9.7157   -4.5781    8.9910 C   0  0  0  0  0  0
   -8.5612   -5.2812    8.6674 C   0  0  0  0  0  0
   -7.6335   -5.5800    9.6688 C   0  0  0  0  0  0
   -6.8234   -5.5180   12.0739 C   0  0  0  0  0  0
   -7.4966   -5.7960   13.4684 C   0  0  0  0  0  0
   -6.7188   -5.1529   14.6189 C   0  0  0  0  0  0
   -5.3238   -4.9946   14.5654 C   0  0  0  0  0  0
   -4.6302   -4.4058   15.6270 C   0  0  0  0  0  0
   -5.3330   -3.9692   16.7559 C   0  0  0  0  0  0
   -6.7226   -4.1194   16.8260 C   0  0  0  0  0  0
   -7.4084   -4.7094   15.7602 C   0  0  0  0  0  0
   -5.7464   -4.4017   12.1590 C   0  0  0  0  0  0
   -4.9762   -4.1990   10.8577 C   0  0  0  0  0  0
   -7.6882   -7.3149   13.7318 C   0  0  0  0  0  0
   -8.4621   -7.6173   15.0115 C   0  0  0  0  0  0
  -10.6439   -4.2678    8.0410 O   0  0  0  0  0  0
   -4.6083   -3.3507   17.8729 N   0  3  0  0  0  0
   -5.2625   -2.9564   18.8572 O   0  0  0  0  0  0
   -3.3695   -3.2463   17.7895 O   0  5  0  0  0  0
   -9.2338   -4.1397   12.3161 H   0  0  0  0  0  0
  -10.8616   -3.6200   10.5440 H   0  0  0  0  0  0
   -8.3653   -5.6039    7.6477 H   0  0  0  0  0  0
   -6.7325   -6.1315    9.4022 H   0  0  0  0  0  0
   -6.3054   -6.4370   11.7655 H   0  0  0  0  0  0
   -8.4999   -5.3476   13.4485 H   0  0  0  0  0  0
   -4.7607   -5.3298   13.6953 H   0  0  0  0  0  0
   -3.5504   -4.2977   15.5545 H   0  0  0  0  0  0
   -7.2860   -3.7870   17.6949 H   0  0  0  0  0  0
   -8.4902   -4.8201   15.8291 H   0  0  0  0  0  0
   -5.0081   -4.6522   12.9284 H   0  0  0  0  0  0
   -6.1981   -3.4491   12.4609 H   0  0  0  0  0  0
   -4.1720   -3.4714   11.0094 H   0  0  0  0  0  0
   -5.6193   -3.8162   10.0599 H   0  0  0  0  0  0
   -4.5235   -5.1366   10.5202 H   0  0  0  0  0  0
   -6.7196   -7.8277   13.7685 H   0  0  0  0  0  0
   -8.2484   -7.7694   12.9074 H   0  0  0  0  0  0
   -8.6487   -8.6934   15.0893 H   0  0  0  0  0  0
   -9.4300   -7.1061   15.0141 H   0  0  0  0  0  0
   -7.9064   -7.3148   15.9039 H   0  0  0  0  0  0
  -10.3330   -4.6195    7.1796 H   0  0  0  0  0  0
  1  2  2  0  0  0
  1  6  1  0  0  0
  1  7  1  0  0  0
  2  3  1  0  0  0
  2 23  1  0  0  0
  3  4  2  0  0  0
  3 24  1  0  0  0
  4  5  1  0  0  0
  4 19  1  0  0  0
  5  6  2  0  0  0
  5 25  1  0  0  0
  6 26  1  0  0  0
  7  8  1  0  0  0
  7 15  1  0  0  0
  7 27  1  0  0  0
  8  9  1  0  0  0
  8 17  1  0  0  0
  8 28  1  0  0  0
  9 10  2  0  0  0
  9 14  1  0  0  0
 10 11  1  0  0  0
 10 29  1  0  0  0
 11 12  2  0  0  0
 11 30  1  0  0  0
 12 13  1  0  0  0
 12 20  1  0  0  0
 13 14  2  0  0  0
 13 31  1  0  0  0
 14 32  1  0  0  0
 15 16  1  0  0  0
 15 33  1  0  0  0
 15 34  1  0  0  0
 16 35  1  0  0  0
 16 36  1  0  0  0
 16 37  1  0  0  0
 17 18  1  0  0  0
 17 38  1  0  0  0
 17 39  1  0  0  0
 18 40  1  0  0  0
 18 41  1  0  0  0
 18 42  1  0  0  0
 19 43  1  0  0  0
 20 21  2  0  0  0
 20 22  1  0  0  0
M  CHG  2  20   1  22  -1
M  END
>  <Name>
lit-314

>  <Family>
B.2

>  <RBA>
11.000000

>  <RBA_avg>
11.000000

>  <Method>
LUC

>  <set>
1

$$$$
lit-315
  Cerius2 12180216413D 1   1.00000                          
 Structure written by MMmdl.
 44 45  0  0  0  0  0  0  0  0999 V2000
   -7.8556   -5.1782   10.9961 C   0  0  0  0  0  0
   -9.0296   -4.4683   11.2975 C   0  0  0  0  0  0
   -9.9566   -4.1698   10.2963 C   0  0  0  0  0  0
   -9.7161   -4.5779    8.9901 C   0  0  0  0  0  0
   -8.5615   -5.2810    8.6666 C   0  0  0  0  0  0
   -7.6339   -5.5798    9.6679 C   0  0  0  0  0  0
   -6.8240   -5.5184   12.0732 C   0  0  0  0  0  0
   -7.4975   -5.7964   13.4677 C   0  0  0  0  0  0
   -6.7204   -5.1536   14.6173 C   0  0  0  0  0  0
   -5.3277   -4.9948   14.5679 C   0  0  0  0  0  0
   -4.6384   -4.4062   15.6318 C   0  0  0  0  0  0
   -5.3251   -3.9598   16.7682 C   0  0  0  0  0  0
   -6.7153   -4.1220   16.8220 C   0  0  0  0  0  0
   -7.4052   -4.7105   15.7586 C   0  0  0  0  0  0
   -5.7464   -4.4027   12.1579 C   0  0  0  0  0  0
   -4.9766   -4.2002   10.8560 C   0  0  0  0  0  0
   -7.6888   -7.3156   13.7305 C   0  0  0  0  0  0
   -8.4616   -7.6193   15.0107 C   0  0  0  0  0  0
  -10.6443   -4.2679    8.0403 O   0  0  0  0  0  0
   -4.5829   -3.3378   17.9150 C   0  0  0  0  0  0
   -4.0532   -4.7308   19.1698 Br  0  0  0  0  0  0
   -9.2341   -4.1396   12.3153 H   0  0  0  0  0  0
  -10.8616   -3.6195   10.5431 H   0  0  0  0  0  0
   -8.3656   -5.6037    7.6468 H   0  0  0  0  0  0
   -6.7328   -6.1314    9.4013 H   0  0  0  0  0  0
   -6.3065   -6.4377   11.7649 H   0  0  0  0  0  0
   -8.5008   -5.3482   13.4474 H   0  0  0  0  0  0
   -4.7615   -5.3305   13.7003 H   0  0  0  0  0  0
   -3.5560   -4.2998   15.5669 H   0  0  0  0  0  0
   -7.2740   -3.7910   17.6970 H   0  0  0  0  0  0
   -8.4866   -4.8212   15.8316 H   0  0  0  0  0  0
   -5.0077   -4.6537   12.9269 H   0  0  0  0  0  0
   -6.1972   -3.4498   12.4600 H   0  0  0  0  0  0
   -4.1716   -3.4738   11.0076 H   0  0  0  0  0  0
   -5.6199   -3.8163   10.0589 H   0  0  0  0  0  0
   -4.5253   -5.1383   10.5179 H   0  0  0  0  0  0
   -6.7200   -7.8282   13.7663 H   0  0  0  0  0  0
   -8.2495   -7.7700   12.9064 H   0  0  0  0  0  0
   -8.6466   -8.6956   15.0885 H   0  0  0  0  0  0
   -9.4303   -7.1094   15.0138 H   0  0  0  0  0  0
   -7.9059   -7.3160   15.9027 H   0  0  0  0  0  0
  -10.3339   -4.6206    7.1790 H   0  0  0  0  0  0
   -5.2023   -2.6231   18.4647 H   0  0  0  0  0  0
   -3.6704   -2.8318   17.5864 H   0  0  0  0  0  0
  1  2  2  0  0  0
  1  6  1  0  0  0
  1  7  1  0  0  0
  2  3  1  0  0  0
  2 22  1  0  0  0
  3  4  2  0  0  0
  3 23  1  0  0  0
  4  5  1  0  0  0
  4 19  1  0  0  0
  5  6  2  0  0  0
  5 24  1  0  0  0
  6 25  1  0  0  0
  7  8  1  0  0  0
  7 15  1  0  0  0
  7 26  1  0  0  0
  8  9  1  0  0  0
  8 17  1  0  0  0
  8 27  1  0  0  0
  9 10  2  0  0  0
  9 14  1  0  0  0
 10 11  1  0  0  0
 10 28  1  0  0  0
 11 12  2  0  0  0
 11 29  1  0  0  0
 12 13  1  0  0  0
 12 20  1  0  0  0
 13 14  2  0  0  0
 13 30  1  0  0  0
 14 31  1  0  0  0
 15 16  1  0  0  0
 15 32  1  0  0  0
 15 33  1  0  0  0
 16 34  1  0  0  0
 16 35  1  0  0  0
 16 36  1  0  0  0
 17 18  1  0  0  0
 17 37  1  0  0  0
 17 38  1  0  0  0
 18 39  1  0  0  0
 18 40  1  0  0  0
 18 41  1  0  0  0
 19 42  1  0  0  0
 20 21  1  0  0  0
 20 43  1  0  0  0
 20 44  1  0  0  0
M  END
>  <Name>
lit-315

>  <Family>
B.2

>  <RBA>
9.300000

>  <RBA_avg>
9.300000

>  <Method>
LUC

>  <set>
1

$$$$
lit-316
  Cerius2 12180216413D 1   1.00000                          
 Structure written by MMmdl.
 44 45  0  0  0  0  0  0  0  0999 V2000
   -7.8556   -5.1782   10.9962 C   0  0  0  0  0  0
   -9.0295   -4.4682   11.2976 C   0  0  0  0  0  0
   -9.9566   -4.1697   10.2963 C   0  0  0  0  0  0
   -9.7159   -4.5779    8.9901 C   0  0  0  0  0  0
   -8.5614   -5.2810    8.6667 C   0  0  0  0  0  0
   -7.6337   -5.5797    9.6680 C   0  0  0  0  0  0
   -6.8240   -5.5185   12.0733 C   0  0  0  0  0  0
   -7.4976   -5.7967   13.4678 C   0  0  0  0  0  0
   -6.7203   -5.1541   14.6175 C   0  0  0  0  0  0
   -5.3276   -4.9951   14.5677 C   0  0  0  0  0  0
   -4.6382   -4.4058   15.6309 C   0  0  0  0  0  0
   -5.3250   -3.9601   16.7677 C   0  0  0  0  0  0
   -6.7156   -4.1215   16.8217 C   0  0  0  0  0  0
   -7.4053   -4.7106   15.7586 C   0  0  0  0  0  0
   -5.7466   -4.4025   12.1583 C   0  0  0  0  0  0
   -4.9765   -4.1998   10.8568 C   0  0  0  0  0  0
   -7.6892   -7.3159   13.7305 C   0  0  0  0  0  0
   -8.4617   -7.6193   15.0108 C   0  0  0  0  0  0
  -10.6443   -4.2680    8.0403 O   0  0  0  0  0  0
   -4.5787   -3.3317   17.9197 C   0  0  0  0  0  0
   -3.9809   -4.8281   19.3198 I   0  0  0  0  0  0
   -9.2341   -4.1396   12.3152 H   0  0  0  0  0  0
  -10.8616   -3.6195   10.5430 H   0  0  0  0  0  0
   -8.3654   -5.6037    7.6469 H   0  0  0  0  0  0
   -6.7327   -6.1313    9.4015 H   0  0  0  0  0  0
   -6.3064   -6.4376   11.7648 H   0  0  0  0  0  0
   -8.5009   -5.3483   13.4475 H   0  0  0  0  0  0
   -4.7617   -5.3304   13.6998 H   0  0  0  0  0  0
   -3.5560   -4.2979   15.5648 H   0  0  0  0  0  0
   -7.2746   -3.7890   17.6959 H   0  0  0  0  0  0
   -8.4867   -4.8208   15.8314 H   0  0  0  0  0  0
   -5.0081   -4.6534   12.9276 H   0  0  0  0  0  0
   -6.1977   -3.4497   12.4604 H   0  0  0  0  0  0
   -4.1714   -3.4735   11.0086 H   0  0  0  0  0  0
   -5.6197   -3.8157   10.0595 H   0  0  0  0  0  0
   -4.5252   -5.1378   10.5185 H   0  0  0  0  0  0
   -6.7205   -7.8287   13.7657 H   0  0  0  0  0  0
   -8.2506   -7.7700   12.9066 H   0  0  0  0  0  0
   -8.6468   -8.6957   15.0889 H   0  0  0  0  0  0
   -9.4302   -7.1093   15.0143 H   0  0  0  0  0  0
   -7.9056   -7.3160   15.9027 H   0  0  0  0  0  0
  -10.3337   -4.6204    7.1790 H   0  0  0  0  0  0
   -5.2130   -2.5839   18.4099 H   0  0  0  0  0  0
   -3.7024   -2.7906   17.5440 H   0  0  0  0  0  0
  1  2  2  0  0  0
  1  6  1  0  0  0
  1  7  1  0  0  0
  2  3  1  0  0  0
  2 22  1  0  0  0
  3  4  2  0  0  0
  3 23  1  0  0  0
  4  5  1  0  0  0
  4 19  1  0  0  0
  5  6  2  0  0  0
  5 24  1  0  0  0
  6 25  1  0  0  0
  7  8  1  0  0  0
  7 15  1  0  0  0
  7 26  1  0  0  0
  8  9  1  0  0  0
  8 17  1  0  0  0
  8 27  1  0  0  0
  9 10  2  0  0  0
  9 14  1  0  0  0
 10 11  1  0  0  0
 10 28  1  0  0  0
 11 12  2  0  0  0
 11 29  1  0  0  0
 12 13  1  0  0  0
 12 20  1  0  0  0
 13 14  2  0  0  0
 13 30  1  0  0  0
 14 31  1  0  0  0
 15 16  1  0  0  0
 15 32  1  0  0  0
 15 33  1  0  0  0
 16 34  1  0  0  0
 16 35  1  0  0  0
 16 36  1  0  0  0
 17 18  1  0  0  0
 17 37  1  0  0  0
 17 38  1  0  0  0
 18 39  1  0  0  0
 18 40  1  0  0  0
 18 41  1  0  0  0
 19 42  1  0  0  0
 20 21  1  0  0  0
 20 43  1  0  0  0
 20 44  1  0  0  0
M  END
>  <Name>
lit-316

>  <Family>
B.2

>  <RBA>
7.900000

>  <RBA_avg>
7.900000

>  <Method>
LUC

>  <set>
0

$$$$
lit-317
  Cerius2 12180216413D 1   1.00000                          
 Structure written by MMmdl.
 53 54  0  0  0  0  0  0  0  0999 V2000
   -7.8578   -5.1793   10.9938 C   0  0  0  0  0  0
   -9.0313   -4.4696   11.2974 C   0  0  0  0  0  0
   -9.9600   -4.1708   10.2979 C   0  0  0  0  0  0
   -9.7215   -4.5782    8.9911 C   0  0  0  0  0  0
   -8.5674   -5.2809    8.6654 C   0  0  0  0  0  0
   -7.6381   -5.5801    9.6651 C   0  0  0  0  0  0
   -6.8244   -5.5200   12.0691 C   0  0  0  0  0  0
   -7.4950   -5.7914   13.4662 C   0  0  0  0  0  0
   -6.7088   -5.1538   14.6123 C   0  0  0  0  0  0
   -5.3158   -4.9991   14.5562 C   0  0  0  0  0  0
   -4.6135   -4.4131   15.6167 C   0  0  0  0  0  0
   -5.2932   -3.9734   16.7514 C   0  0  0  0  0  0
   -6.6798   -4.1233   16.8137 C   0  0  0  0  0  0
   -7.3836   -4.7078   15.7571 C   0  0  0  0  0  0
   -5.7425   -4.4080   12.1476 C   0  0  0  0  0  0
   -4.9789   -4.2086   10.8418 C   0  0  0  0  0  0
   -7.6976   -7.3087   13.7313 C   0  0  0  0  0  0
   -8.4647   -7.6047   15.0167 C   0  0  0  0  0  0
  -10.6514   -4.2679    8.0429 O   0  0  0  0  0  0
   -4.7301   -3.3862   17.8506 O   0  0  0  0  0  0
   -3.3029   -3.2517   17.8593 C   0  0  0  0  0  0
   -2.8273   -2.6032   19.1716 C   0  0  0  0  0  0
   -3.4188   -1.2959   19.3090 O   0  0  0  0  0  0
   -3.1459   -3.4294   20.4267 C   0  0  0  0  0  0
   -4.5462   -3.3973   20.7240 O   0  0  0  0  0  0
   -9.2343   -4.1415   12.3157 H   0  0  0  0  0  0
  -10.8648   -3.6207   10.5464 H   0  0  0  0  0  0
   -8.3730   -5.6031    7.6451 H   0  0  0  0  0  0
   -6.7374   -6.1313    9.3968 H   0  0  0  0  0  0
   -6.3110   -6.4421   11.7620 H   0  0  0  0  0  0
   -8.4949   -5.3352   13.4493 H   0  0  0  0  0  0
   -4.7566   -5.3340   13.6836 H   0  0  0  0  0  0
   -3.5359   -4.3171   15.5170 H   0  0  0  0  0  0
   -7.2243   -3.7842   17.6936 H   0  0  0  0  0  0
   -8.4648   -4.8107   15.8385 H   0  0  0  0  0  0
   -5.0008   -4.6612   12.9129 H   0  0  0  0  0  0
   -6.1886   -3.4534   12.4517 H   0  0  0  0  0  0
   -4.1709   -3.4845   10.9887 H   0  0  0  0  0  0
   -5.6250   -3.8234   10.0476 H   0  0  0  0  0  0
   -4.5321   -5.1483   10.5019 H   0  0  0  0  0  0
   -6.7330   -7.8295   13.7611 H   0  0  0  0  0  0
   -8.2677   -7.7587   12.9114 H   0  0  0  0  0  0
   -8.6590   -8.6792   15.0963 H   0  0  0  0  0  0
   -9.4286   -7.0860   15.0259 H   0  0  0  0  0  0
   -7.9003   -7.3061   15.9049 H   0  0  0  0  0  0
  -10.3419   -4.6196    7.1809 H   0  0  0  0  0  0
   -3.0076   -2.5997   17.0282 H   0  0  0  0  0  0
   -2.8296   -4.2352   17.7534 H   0  0  0  0  0  0
   -1.7424   -2.4635   19.1086 H   0  0  0  0  0  0
   -4.3587   -1.4883   19.5291 H   0  0  0  0  0  0
   -2.6307   -2.9942   21.2895 H   0  0  0  0  0  0
   -2.8272   -4.4695   20.3083 H   0  0  0  0  0  0
   -4.6562   -3.9468   21.5292 H   0  0  0  0  0  0
  1  2  2  0  0  0
  1  6  1  0  0  0
  1  7  1  0  0  0
  2  3  1  0  0  0
  2 26  1  0  0  0
  3  4  2  0  0  0
  3 27  1  0  0  0
  4  5  1  0  0  0
  4 19  1  0  0  0
  5  6  2  0  0  0
  5 28  1  0  0  0
  6 29  1  0  0  0
  7  8  1  0  0  0
  7 15  1  0  0  0
  7 30  1  0  0  0
  8  9  1  0  0  0
  8 17  1  0  0  0
  8 31  1  0  0  0
  9 10  2  0  0  0
  9 14  1  0  0  0
 10 11  1  0  0  0
 10 32  1  0  0  0
 11 12  2  0  0  0
 11 33  1  0  0  0
 12 13  1  0  0  0
 12 20  1  0  0  0
 13 14  2  0  0  0
 13 34  1  0  0  0
 14 35  1  0  0  0
 15 16  1  0  0  0
 15 36  1  0  0  0
 15 37  1  0  0  0
 16 38  1  0  0  0
 16 39  1  0  0  0
 16 40  1  0  0  0
 17 18  1  0  0  0
 17 41  1  0  0  0
 17 42  1  0  0  0
 18 43  1  0  0  0
 18 44  1  0  0  0
 18 45  1  0  0  0
 19 46  1  0  0  0
 20 21  1  0  0  0
 21 22  1  0  0  0
 21 47  1  0  0  0
 21 48  1  0  0  0
 22 23  1  0  0  0
 22 24  1  0  0  0
 22 49  1  0  0  0
 23 50  1  0  0  0
 24 25  1  0  0  0
 24 51  1  0  0  0
 24 52  1  0  0  0
 25 53  1  0  0  0
M  END
>  <Name>
lit-317

>  <Family>
B.2

>  <RBA>
6.900000

>  <RBA_avg>
6.900000

>  <Method>
LUC

>  <set>
2

$$$$
lit-318
  Cerius2 12180216413D 1   1.00000                          
 Structure written by MMmdl.
 43 44  0  0  0  0  0  0  0  0999 V2000
   -6.7117   -5.1469   14.6142 C   0  0  0  0  0  0
   -7.3978   -4.7049   15.7571 C   0  0  0  0  0  0
   -6.7058   -4.1245   16.8216 C   0  0  0  0  0  0
   -5.3267   -3.9803   16.7506 C   0  0  0  0  0  0
   -4.6243   -4.4091   15.6299 C   0  0  0  0  0  0
   -5.3159   -4.9922   14.5650 C   0  0  0  0  0  0
   -7.4896   -5.7863   13.4648 C   0  0  0  0  0  0
   -6.8141   -5.5186   12.0700 C   0  0  0  0  0  0
   -7.8499   -5.1796   10.9971 C   0  0  0  0  0  0
   -7.6329   -5.5766    9.6688 C   0  0  0  0  0  0
   -8.5689   -5.2784    8.6747 C   0  0  0  0  0  0
   -9.7421   -4.5887    8.9874 C   0  0  0  0  0  0
   -9.9540   -4.1719   10.3044 C   0  0  0  0  0  0
   -9.0217   -4.4702   11.3023 C   0  0  0  0  0  0
   -7.6890   -7.3035   13.7321 C   0  0  0  0  0  0
   -8.4626   -7.5981   15.0135 C   0  0  0  0  0  0
   -5.7298   -4.4088   12.1436 C   0  0  0  0  0  0
   -4.9760   -4.2101   10.8315 C   0  0  0  0  0  0
   -4.6909   -3.4080   17.8129 O   0  0  0  0  0  0
  -10.6690   -4.2898    7.9791 N   0  0  0  0  0  0
  -11.6389   -5.0726    7.9905 N   0  3  0  0  0  0
  -12.5313   -5.7832    7.9944 N   0  5  0  0  0  0
   -8.4777   -4.8120   15.8300 H   0  0  0  0  0  0
   -7.2421   -3.7883   17.7042 H   0  0  0  0  0  0
   -3.5460   -4.3036   15.5665 H   0  0  0  0  0  0
   -4.7535   -5.3290   13.6975 H   0  0  0  0  0  0
   -8.4902   -5.3321   13.4413 H   0  0  0  0  0  0
   -6.3026   -6.4424   11.7650 H   0  0  0  0  0  0
   -6.7302   -6.1189    9.3951 H   0  0  0  0  0  0
   -8.3806   -5.5851    7.6490 H   0  0  0  0  0  0
  -10.8483   -3.6083   10.5581 H   0  0  0  0  0  0
   -9.2187   -4.1354   12.3183 H   0  0  0  0  0  0
   -6.7227   -7.8207   13.7703 H   0  0  0  0  0  0
   -8.2519   -7.7590   12.9103 H   0  0  0  0  0  0
   -8.6535   -8.6729   15.0958 H   0  0  0  0  0  0
   -9.4288   -7.0836   15.0151 H   0  0  0  0  0  0
   -7.9053   -7.2937   15.9042 H   0  0  0  0  0  0
   -6.1698   -3.4535   12.4531 H   0  0  0  0  0  0
   -4.9825   -4.6660   12.9017 H   0  0  0  0  0  0
   -4.1720   -3.4796   10.9697 H   0  0  0  0  0  0
   -5.6294   -3.8332   10.0391 H   0  0  0  0  0  0
   -4.5256   -5.1487   10.4930 H   0  0  0  0  0  0
   -3.7410   -3.3685   17.6163 H   0  0  0  0  0  0
  1  2  2  0  0  0
  1  6  1  0  0  0
  1  7  1  0  0  0
  2  3  1  0  0  0
  2 23  1  0  0  0
  3  4  2  0  0  0
  3 24  1  0  0  0
  4  5  1  0  0  0
  4 19  1  0  0  0
  5  6  2  0  0  0
  5 25  1  0  0  0
  6 26  1  0  0  0
  7  8  1  0  0  0
  7 15  1  0  0  0
  7 27  1  0  0  0
  8  9  1  0  0  0
  8 17  1  0  0  0
  8 28  1  0  0  0
  9 10  2  0  0  0
  9 14  1  0  0  0
 10 11  1  0  0  0
 10 29  1  0  0  0
 11 12  2  0  0  0
 11 30  1  0  0  0
 12 13  1  0  0  0
 12 20  1  0  0  0
 13 14  2  0  0  0
 13 31  1  0  0  0
 14 32  1  0  0  0
 15 16  1  0  0  0
 15 33  1  0  0  0
 15 34  1  0  0  0
 16 35  1  0  0  0
 16 36  1  0  0  0
 16 37  1  0  0  0
 17 18  1  0  0  0
 17 38  1  0  0  0
 17 39  1  0  0  0
 18 40  1  0  0  0
 18 41  1  0  0  0
 18 42  1  0  0  0
 19 43  1  0  0  0
 20 21  2  0  0  0
 21 22  2  0  0  0
M  CHG  2  21   1  22  -1
M  END
>  <Name>
lit-318

>  <Family>
B.2

>  <RBA>
5.800000

>  <RBA_avg>
5.800000

>  <Method>
LUC

>  <set>
2

$$$$
lit-319
  Cerius2 12180216413D 1   1.00000                          
 Structure written by MMmdl.
 49 50  0  0  0  0  0  0  0  0999 V2000
   -7.8577   -5.1791   10.9940 C   0  0  0  0  0  0
   -9.0312   -4.4696   11.2975 C   0  0  0  0  0  0
   -9.9600   -4.1708   10.2981 C   0  0  0  0  0  0
   -9.7214   -4.5783    8.9913 C   0  0  0  0  0  0
   -8.5672   -5.2810    8.6655 C   0  0  0  0  0  0
   -7.6379   -5.5800    9.6653 C   0  0  0  0  0  0
   -6.8244   -5.5200   12.0691 C   0  0  0  0  0  0
   -7.4952   -5.7914   13.4662 C   0  0  0  0  0  0
   -6.7090   -5.1535   14.6123 C   0  0  0  0  0  0
   -5.3160   -4.9989   14.5560 C   0  0  0  0  0  0
   -4.6136   -4.4132   15.6162 C   0  0  0  0  0  0
   -5.2932   -3.9728   16.7508 C   0  0  0  0  0  0
   -6.6799   -4.1232   16.8135 C   0  0  0  0  0  0
   -7.3837   -4.7077   15.7569 C   0  0  0  0  0  0
   -5.7423   -4.4080   12.1479 C   0  0  0  0  0  0
   -4.9789   -4.2086   10.8419 C   0  0  0  0  0  0
   -7.6977   -7.3087   13.7314 C   0  0  0  0  0  0
   -8.4647   -7.6049   15.0166 C   0  0  0  0  0  0
  -10.6514   -4.2680    8.0430 O   0  0  0  0  0  0
   -4.7299   -3.3870   17.8510 O   0  0  0  0  0  0
   -3.3094   -3.2194   17.8400 C   0  0  0  0  0  0
   -2.9348   -2.5425   19.1255 C   0  0  0  0  0  0
   -2.0793   -3.0389   20.0294 C   0  0  0  0  0  0
   -9.2341   -4.1414   12.3158 H   0  0  0  0  0  0
  -10.8647   -3.6209   10.5466 H   0  0  0  0  0  0
   -8.3730   -5.6032    7.6453 H   0  0  0  0  0  0
   -6.7373   -6.1313    9.3969 H   0  0  0  0  0  0
   -6.3111   -6.4422   11.7622 H   0  0  0  0  0  0
   -8.4951   -5.3353   13.4492 H   0  0  0  0  0  0
   -4.7570   -5.3342   13.6832 H   0  0  0  0  0  0
   -3.5355   -4.3198   15.5163 H   0  0  0  0  0  0
   -7.2252   -3.7840   17.6928 H   0  0  0  0  0  0
   -8.4650   -4.8105   15.8384 H   0  0  0  0  0  0
   -5.0004   -4.6617   12.9128 H   0  0  0  0  0  0
   -6.1881   -3.4536   12.4524 H   0  0  0  0  0  0
   -4.1701   -3.4852   10.9892 H   0  0  0  0  0  0
   -5.6250   -3.8221   10.0483 H   0  0  0  0  0  0
   -4.5330   -5.1484   10.5013 H   0  0  0  0  0  0
   -6.7330   -7.8294   13.7611 H   0  0  0  0  0  0
   -8.2676   -7.7588   12.9113 H   0  0  0  0  0  0
   -8.6583   -8.6796   15.0964 H   0  0  0  0  0  0
   -9.4289   -7.0867   15.0256 H   0  0  0  0  0  0
   -7.9007   -7.3058   15.9048 H   0  0  0  0  0  0
  -10.3421   -4.6199    7.1810 H   0  0  0  0  0  0
   -3.0100   -2.5725   17.0071 H   0  0  0  0  0  0
   -2.8137   -4.1940   17.7571 H   0  0  0  0  0  0
   -3.3986   -1.5750   19.3101 H   0  0  0  0  0  0
   -1.8502   -2.4910   20.9400 H   0  0  0  0  0  0
   -1.5877   -3.9983   19.8897 H   0  0  0  0  0  0
  1  2  2  0  0  0
  1  6  1  0  0  0
  1  7  1  0  0  0
  2  3  1  0  0  0
  2 24  1  0  0  0
  3  4  2  0  0  0
  3 25  1  0  0  0
  4  5  1  0  0  0
  4 19  1  0  0  0
  5  6  2  0  0  0
  5 26  1  0  0  0
  6 27  1  0  0  0
  7  8  1  0  0  0
  7 15  1  0  0  0
  7 28  1  0  0  0
  8  9  1  0  0  0
  8 17  1  0  0  0
  8 29  1  0  0  0
  9 10  2  0  0  0
  9 14  1  0  0  0
 10 11  1  0  0  0
 10 30  1  0  0  0
 11 12  2  0  0  0
 11 31  1  0  0  0
 12 13  1  0  0  0
 12 20  1  0  0  0
 13 14  2  0  0  0
 13 32  1  0  0  0
 14 33  1  0  0  0
 15 16  1  0  0  0
 15 34  1  0  0  0
 15 35  1  0  0  0
 16 36  1  0  0  0
 16 37  1  0  0  0
 16 38  1  0  0  0
 17 18  1  0  0  0
 17 39  1  0  0  0
 17 40  1  0  0  0
 18 41  1  0  0  0
 18 42  1  0  0  0
 18 43  1  0  0  0
 19 44  1  0  0  0
 20 21  1  0  0  0
 21 22  1  0  0  0
 21 45  1  0  0  0
 21 46  1  0  0  0
 22 23  2  0  0  0
 22 47  1  0  0  0
 23 48  1  0  0  0
 23 49  1  0  0  0
M  END
>  <Name>
lit-319

>  <Family>
B.2

>  <RBA>
5.400000

>  <RBA_avg>
5.400000

>  <Method>
LUC

>  <set>
1

$$$$
lit-320
  Cerius2 12180216413D 1   1.00000                          
 Structure written by MMmdl.
 42 43  0  0  0  0  0  0  0  0999 V2000
   -7.8551   -5.1778   10.9967 C   0  0  0  0  0  0
   -9.0291   -4.4680   11.2981 C   0  0  0  0  0  0
   -9.9563   -4.1699   10.2970 C   0  0  0  0  0  0
   -9.7158   -4.5782    8.9908 C   0  0  0  0  0  0
   -8.5611   -5.2810    8.6673 C   0  0  0  0  0  0
   -7.6333   -5.5795    9.6686 C   0  0  0  0  0  0
   -6.8236   -5.5182   12.0737 C   0  0  0  0  0  0
   -7.4974   -5.7965   13.4679 C   0  0  0  0  0  0
   -6.7197   -5.1539   14.6179 C   0  0  0  0  0  0
   -5.3261   -4.9949   14.5664 C   0  0  0  0  0  0
   -4.6364   -4.4050   15.6296 C   0  0  0  0  0  0
   -5.3294   -3.9657   16.7610 C   0  0  0  0  0  0
   -6.7169   -4.1203   16.8222 C   0  0  0  0  0  0
   -7.4067   -4.7100   15.7590 C   0  0  0  0  0  0
   -5.7461   -4.4024   12.1593 C   0  0  0  0  0  0
   -4.9763   -4.1990   10.8578 C   0  0  0  0  0  0
   -7.6890   -7.3153   13.7310 C   0  0  0  0  0  0
   -8.4620   -7.6181   15.0113 C   0  0  0  0  0  0
  -10.6444   -4.2686    8.0410 O   0  0  0  0  0  0
   -4.6211   -3.3606   17.8522 C   0  0  0  0  0  0
   -4.0462   -2.8698   18.7376 N   0  0  0  0  0  0
   -9.2336   -4.1393   12.3158 H   0  0  0  0  0  0
  -10.8615   -3.6197   10.5438 H   0  0  0  0  0  0
   -8.3654   -5.6039    7.6475 H   0  0  0  0  0  0
   -6.7323   -6.1310    9.4019 H   0  0  0  0  0  0
   -6.3060   -6.4373   11.7651 H   0  0  0  0  0  0
   -8.5006   -5.3479   13.4478 H   0  0  0  0  0  0
   -4.7607   -5.3293   13.6976 H   0  0  0  0  0  0
   -3.5550   -4.2930   15.5652 H   0  0  0  0  0  0
   -7.2733   -3.7841   17.6959 H   0  0  0  0  0  0
   -8.4883   -4.8196   15.8306 H   0  0  0  0  0  0
   -5.0075   -4.6539   12.9282 H   0  0  0  0  0  0
   -6.1971   -3.4499   12.4621 H   0  0  0  0  0  0
   -4.1716   -3.4723   11.0097 H   0  0  0  0  0  0
   -5.6196   -3.8152   10.0607 H   0  0  0  0  0  0
   -4.5244   -5.1368   10.5192 H   0  0  0  0  0  0
   -6.7206   -7.8284   13.7668 H   0  0  0  0  0  0
   -8.2501   -7.7696   12.9071 H   0  0  0  0  0  0
   -8.6487   -8.6942   15.0889 H   0  0  0  0  0  0
   -9.4299   -7.1068   15.0147 H   0  0  0  0  0  0
   -7.9057   -7.3159   15.9033 H   0  0  0  0  0  0
  -10.3340   -4.6215    7.1798 H   0  0  0  0  0  0
  1  2  2  0  0  0
  1  6  1  0  0  0
  1  7  1  0  0  0
  2  3  1  0  0  0
  2 22  1  0  0  0
  3  4  2  0  0  0
  3 23  1  0  0  0
  4  5  1  0  0  0
  4 19  1  0  0  0
  5  6  2  0  0  0
  5 24  1  0  0  0
  6 25  1  0  0  0
  7  8  1  0  0  0
  7 15  1  0  0  0
  7 26  1  0  0  0
  8  9  1  0  0  0
  8 17  1  0  0  0
  8 27  1  0  0  0
  9 10  2  0  0  0
  9 14  1  0  0  0
 10 11  1  0  0  0
 10 28  1  0  0  0
 11 12  2  0  0  0
 11 29  1  0  0  0
 12 13  1  0  0  0
 12 20  1  0  0  0
 13 14  2  0  0  0
 13 30  1  0  0  0
 14 31  1  0  0  0
 15 16  1  0  0  0
 15 32  1  0  0  0
 15 33  1  0  0  0
 16 34  1  0  0  0
 16 35  1  0  0  0
 16 36  1  0  0  0
 17 18  1  0  0  0
 17 37  1  0  0  0
 17 38  1  0  0  0
 18 39  1  0  0  0
 18 40  1  0  0  0
 18 41  1  0  0  0
 19 42  1  0  0  0
 20 21  3  0  0  0
M  END
>  <Name>
lit-320

>  <Family>
B.2

>  <RBA>
5.200000

>  <RBA_avg>
5.200000

>  <Method>
LUC

>  <set>
1

$$$$
lit-321
  Cerius2 12180216413D 1   1.00000                          
 Structure written by MMmdl.
 51 52  0  0  0  0  0  0  0  0999 V2000
   -7.8557   -5.1785   10.9962 C   0  0  0  0  0  0
   -9.0295   -4.4684   11.2977 C   0  0  0  0  0  0
   -9.9565   -4.1699   10.2964 C   0  0  0  0  0  0
   -9.7159   -4.5779    8.9902 C   0  0  0  0  0  0
   -8.5613   -5.2809    8.6667 C   0  0  0  0  0  0
   -7.6338   -5.5800    9.6680 C   0  0  0  0  0  0
   -6.8241   -5.5188   12.0734 C   0  0  0  0  0  0
   -7.4974   -5.7970   13.4680 C   0  0  0  0  0  0
   -6.7201   -5.1545   14.6179 C   0  0  0  0  0  0
   -5.3277   -4.9929   14.5669 C   0  0  0  0  0  0
   -4.6386   -4.4025   15.6301 C   0  0  0  0  0  0
   -5.3244   -3.9678   16.7712 C   0  0  0  0  0  0
   -6.7158   -4.1182   16.8206 C   0  0  0  0  0  0
   -7.4056   -4.7084   15.7580 C   0  0  0  0  0  0
   -5.7468   -4.4026   12.1579 C   0  0  0  0  0  0
   -4.9768   -4.2003   10.8563 C   0  0  0  0  0  0
   -7.6889   -7.3163   13.7303 C   0  0  0  0  0  0
   -8.4616   -7.6200   15.0106 C   0  0  0  0  0  0
  -10.6442   -4.2677    8.0404 O   0  0  0  0  0  0
   -4.5818   -3.3205   17.9109 C   0  0  0  0  0  0
   -4.5074   -1.9148   17.6541 O   0  0  0  0  0  0
   -3.8039   -1.2402   18.7002 C   0  0  0  0  0  0
   -3.7619    0.2383   18.3701 C   0  0  0  0  0  0
   -9.2340   -4.1396   12.3153 H   0  0  0  0  0  0
  -10.8616   -3.6195   10.5433 H   0  0  0  0  0  0
   -8.3654   -5.6034    7.6468 H   0  0  0  0  0  0
   -6.7328   -6.1315    9.4014 H   0  0  0  0  0  0
   -6.3063   -6.4379   11.7649 H   0  0  0  0  0  0
   -8.5008   -5.3488   13.4480 H   0  0  0  0  0  0
   -4.7622   -5.3238   13.6969 H   0  0  0  0  0  0
   -3.5579   -4.2836   15.5610 H   0  0  0  0  0  0
   -7.2747   -3.7748   17.6906 H   0  0  0  0  0  0
   -8.4877   -4.8142   15.8286 H   0  0  0  0  0  0
   -5.0083   -4.6532   12.9271 H   0  0  0  0  0  0
   -6.1981   -3.4498   12.4596 H   0  0  0  0  0  0
   -4.1718   -3.4738   11.0078 H   0  0  0  0  0  0
   -5.6200   -3.8165   10.0590 H   0  0  0  0  0  0
   -4.5254   -5.1384   10.5182 H   0  0  0  0  0  0
   -6.7203   -7.8292   13.7655 H   0  0  0  0  0  0
   -8.2502   -7.7703   12.9064 H   0  0  0  0  0  0
   -8.6470   -8.6963   15.0883 H   0  0  0  0  0  0
   -9.4300   -7.1097   15.0140 H   0  0  0  0  0  0
   -7.9054   -7.3169   15.9025 H   0  0  0  0  0  0
  -10.3334   -4.6200    7.1789 H   0  0  0  0  0  0
   -3.5727   -3.7425   17.9922 H   0  0  0  0  0  0
   -5.1054   -3.5026   18.8571 H   0  0  0  0  0  0
   -2.7846   -1.6349   18.7740 H   0  0  0  0  0  0
   -4.3217   -1.3950   19.6532 H   0  0  0  0  0  0
   -3.2309    0.7967   19.1459 H   0  0  0  0  0  0
   -4.7758    0.6412   18.2755 H   0  0  0  0  0  0
   -3.2623    0.4049   17.4099 H   0  0  0  0  0  0
  1  2  2  0  0  0
  1  6  1  0  0  0
  1  7  1  0  0  0
  2  3  1  0  0  0
  2 24  1  0  0  0
  3  4  2  0  0  0
  3 25  1  0  0  0
  4  5  1  0  0  0
  4 19  1  0  0  0
  5  6  2  0  0  0
  5 26  1  0  0  0
  6 27  1  0  0  0
  7  8  1  0  0  0
  7 15  1  0  0  0
  7 28  1  0  0  0
  8  9  1  0  0  0
  8 17  1  0  0  0
  8 29  1  0  0  0
  9 10  2  0  0  0
  9 14  1  0  0  0
 10 11  1  0  0  0
 10 30  1  0  0  0
 11 12  2  0  0  0
 11 31  1  0  0  0
 12 13  1  0  0  0
 12 20  1  0  0  0
 13 14  2  0  0  0
 13 32  1  0  0  0
 14 33  1  0  0  0
 15 16  1  0  0  0
 15 34  1  0  0  0
 15 35  1  0  0  0
 16 36  1  0  0  0
 16 37  1  0  0  0
 16 38  1  0  0  0
 17 18  1  0  0  0
 17 39  1  0  0  0
 17 40  1  0  0  0
 18 41  1  0  0  0
 18 42  1  0  0  0
 18 43  1  0  0  0
 19 44  1  0  0  0
 20 21  1  0  0  0
 20 45  1  0  0  0
 20 46  1  0  0  0
 21 22  1  0  0  0
 22 23  1  0  0  0
 22 47  1  0  0  0
 22 48  1  0  0  0
 23 49  1  0  0  0
 23 50  1  0  0  0
 23 51  1  0  0  0
M  END
>  <Name>
lit-321

>  <Family>
B.2

>  <RBA>
4.900000

>  <RBA_avg>
4.900000

>  <Method>
LUC

>  <set>
1

$$$$
lit-322
  Cerius2 12180216413D 1   1.00000                          
 Structure written by MMmdl.
 52 53  0  0  0  0  0  0  0  0999 V2000
   -7.8579   -5.1795   10.9939 C   0  0  0  0  0  0
   -9.0313   -4.4697   11.2975 C   0  0  0  0  0  0
   -9.9600   -4.1709   10.2980 C   0  0  0  0  0  0
   -9.7214   -4.5782    8.9911 C   0  0  0  0  0  0
   -8.5673   -5.2810    8.6654 C   0  0  0  0  0  0
   -7.6380   -5.5803    9.6651 C   0  0  0  0  0  0
   -6.8244   -5.5201   12.0691 C   0  0  0  0  0  0
   -7.4950   -5.7914   13.4664 C   0  0  0  0  0  0
   -6.7088   -5.1535   14.6123 C   0  0  0  0  0  0
   -5.3158   -4.9986   14.5562 C   0  0  0  0  0  0
   -4.6136   -4.4131   15.6166 C   0  0  0  0  0  0
   -5.2933   -3.9734   16.7511 C   0  0  0  0  0  0
   -6.6800   -4.1231   16.8136 C   0  0  0  0  0  0
   -7.3836   -4.7076   15.7571 C   0  0  0  0  0  0
   -5.7427   -4.4077   12.1476 C   0  0  0  0  0  0
   -4.9789   -4.2086   10.8417 C   0  0  0  0  0  0
   -7.6972   -7.3087   13.7317 C   0  0  0  0  0  0
   -8.4648   -7.6046   15.0167 C   0  0  0  0  0  0
  -10.6512   -4.2677    8.0430 O   0  0  0  0  0  0
   -4.7303   -3.3872   17.8503 O   0  0  0  0  0  0
   -3.3062   -3.2483   17.8569 C   0  0  0  0  0  0
   -2.8587   -2.5988   19.1741 C   0  0  0  0  0  0
   -1.4455   -2.3644   19.1320 O   0  0  0  0  0  0
   -3.1805   -3.4716   20.3820 C   0  0  0  0  0  0
   -9.2341   -4.1415   12.3157 H   0  0  0  0  0  0
  -10.8647   -3.6207   10.5465 H   0  0  0  0  0  0
   -8.3730   -5.6031    7.6452 H   0  0  0  0  0  0
   -6.7373   -6.1315    9.3968 H   0  0  0  0  0  0
   -6.3109   -6.4421   11.7623 H   0  0  0  0  0  0
   -8.4949   -5.3354   13.4494 H   0  0  0  0  0  0
   -4.7567   -5.3336   13.6833 H   0  0  0  0  0  0
   -3.5357   -4.3177   15.5171 H   0  0  0  0  0  0
   -7.2251   -3.7838   17.6929 H   0  0  0  0  0  0
   -8.4650   -4.8104   15.8384 H   0  0  0  0  0  0
   -5.0011   -4.6606   12.9130 H   0  0  0  0  0  0
   -6.1891   -3.4532   12.4513 H   0  0  0  0  0  0
   -4.1706   -3.4849   10.9888 H   0  0  0  0  0  0
   -5.6248   -3.8231   10.0476 H   0  0  0  0  0  0
   -4.5324   -5.1485   10.5019 H   0  0  0  0  0  0
   -6.7325   -7.8293   13.7620 H   0  0  0  0  0  0
   -8.2668   -7.7590   12.9114 H   0  0  0  0  0  0
   -8.6591   -8.6792   15.0963 H   0  0  0  0  0  0
   -9.4287   -7.0859   15.0256 H   0  0  0  0  0  0
   -7.9008   -7.3060   15.9052 H   0  0  0  0  0  0
  -10.3417   -4.6192    7.1808 H   0  0  0  0  0  0
   -2.9847   -2.6102   17.0239 H   0  0  0  0  0  0
   -2.8212   -4.2275   17.7517 H   0  0  0  0  0  0
   -3.3602   -1.6310   19.2897 H   0  0  0  0  0  0
   -1.2193   -1.9103   19.9719 H   0  0  0  0  0  0
   -2.8323   -2.9926   21.3035 H   0  0  0  0  0  0
   -2.6643   -4.4355   20.3150 H   0  0  0  0  0  0
   -4.2554   -3.6541   20.4735 H   0  0  0  0  0  0
  1  2  2  0  0  0
  1  6  1  0  0  0
  1  7  1  0  0  0
  2  3  1  0  0  0
  2 25  1  0  0  0
  3  4  2  0  0  0
  3 26  1  0  0  0
  4  5  1  0  0  0
  4 19  1  0  0  0
  5  6  2  0  0  0
  5 27  1  0  0  0
  6 28  1  0  0  0
  7  8  1  0  0  0
  7 15  1  0  0  0
  7 29  1  0  0  0
  8  9  1  0  0  0
  8 17  1  0  0  0
  8 30  1  0  0  0
  9 10  2  0  0  0
  9 14  1  0  0  0
 10 11  1  0  0  0
 10 31  1  0  0  0
 11 12  2  0  0  0
 11 32  1  0  0  0
 12 13  1  0  0  0
 12 20  1  0  0  0
 13 14  2  0  0  0
 13 33  1  0  0  0
 14 34  1  0  0  0
 15 16  1  0  0  0
 15 35  1  0  0  0
 15 36  1  0  0  0
 16 37  1  0  0  0
 16 38  1  0  0  0
 16 39  1  0  0  0
 17 18  1  0  0  0
 17 40  1  0  0  0
 17 41  1  0  0  0
 18 42  1  0  0  0
 18 43  1  0  0  0
 18 44  1  0  0  0
 19 45  1  0  0  0
 20 21  1  0  0  0
 21 22  1  0  0  0
 21 46  1  0  0  0
 21 47  1  0  0  0
 22 23  1  0  0  0
 22 24  1  0  0  0
 22 48  1  0  0  0
 23 49  1  0  0  0
 24 50  1  0  0  0
 24 51  1  0  0  0
 24 52  1  0  0  0
M  END
>  <Name>
lit-322

>  <Family>
B.2

>  <RBA>
4.300000

>  <RBA_avg>
4.300000

>  <Method>
LUC

>  <set>
0

$$$$
lit-323
  Cerius2 12180216413D 1   1.00000                          
 Structure written by MMmdl.
 46 47  0  0  0  0  0  0  0  0999 V2000
   -7.8558   -5.1785   10.9966 C   0  0  0  0  0  0
   -9.0297   -4.4684   11.2976 C   0  0  0  0  0  0
   -9.9566   -4.1698   10.2962 C   0  0  0  0  0  0
   -9.7156   -4.5778    8.9900 C   0  0  0  0  0  0
   -8.5611   -5.2810    8.6669 C   0  0  0  0  0  0
   -7.6338   -5.5800    9.6684 C   0  0  0  0  0  0
   -6.8243   -5.5184   12.0737 C   0  0  0  0  0  0
   -7.4980   -5.7971   13.4679 C   0  0  0  0  0  0
   -6.7209   -5.1543   14.6179 C   0  0  0  0  0  0
   -5.3282   -4.9943   14.5680 C   0  0  0  0  0  0
   -4.6354   -4.4041   15.6309 C   0  0  0  0  0  0
   -5.3249   -3.9628   16.7651 C   0  0  0  0  0  0
   -6.7154   -4.1204   16.8207 C   0  0  0  0  0  0
   -7.4063   -4.7104   15.7581 C   0  0  0  0  0  0
   -5.7473   -4.4023   12.1592 C   0  0  0  0  0  0
   -4.9768   -4.1994   10.8580 C   0  0  0  0  0  0
   -7.6891   -7.3161   13.7305 C   0  0  0  0  0  0
   -8.4617   -7.6197   15.0108 C   0  0  0  0  0  0
  -10.6437   -4.2675    8.0400 O   0  0  0  0  0  0
   -4.6248   -3.3272   17.9236 C   0  0  0  0  0  0
   -5.2681   -2.9475   18.9055 O   0  0  0  0  0  0
   -3.1279   -3.1610   17.8675 C   0  0  0  0  0  0
   -9.2345   -4.1396   12.3153 H   0  0  0  0  0  0
  -10.8616   -3.6194   10.5428 H   0  0  0  0  0  0
   -8.3649   -5.6036    7.6470 H   0  0  0  0  0  0
   -6.7327   -6.1315    9.4020 H   0  0  0  0  0  0
   -6.3063   -6.4375   11.7653 H   0  0  0  0  0  0
   -8.5015   -5.3491   13.4478 H   0  0  0  0  0  0
   -4.7630   -5.3289   13.6989 H   0  0  0  0  0  0
   -3.5566   -4.3025   15.5439 H   0  0  0  0  0  0
   -7.2766   -3.7861   17.6915 H   0  0  0  0  0  0
   -8.4880   -4.8195   15.8309 H   0  0  0  0  0  0
   -5.0090   -4.6529   12.9287 H   0  0  0  0  0  0
   -6.1988   -3.4495   12.4611 H   0  0  0  0  0  0
   -4.1721   -3.4725   11.0102 H   0  0  0  0  0  0
   -5.6195   -3.8159   10.0604 H   0  0  0  0  0  0
   -4.5245   -5.1372   10.5202 H   0  0  0  0  0  0
   -6.7204   -7.8288   13.7660 H   0  0  0  0  0  0
   -8.2501   -7.7703   12.9064 H   0  0  0  0  0  0
   -8.6476   -8.6960   15.0883 H   0  0  0  0  0  0
   -9.4298   -7.1089   15.0146 H   0  0  0  0  0  0
   -7.9052   -7.3174   15.9027 H   0  0  0  0  0  0
  -10.3327   -4.6195    7.1786 H   0  0  0  0  0  0
   -2.7849   -2.6853   18.7917 H   0  0  0  0  0  0
   -2.8494   -2.5147   17.0312 H   0  0  0  0  0  0
   -2.6408   -4.1362   17.7886 H   0  0  0  0  0  0
  1  2  2  0  0  0
  1  6  1  0  0  0
  1  7  1  0  0  0
  2  3  1  0  0  0
  2 23  1  0  0  0
  3  4  2  0  0  0
  3 24  1  0  0  0
  4  5  1  0  0  0
  4 19  1  0  0  0
  5  6  2  0  0  0
  5 25  1  0  0  0
  6 26  1  0  0  0
  7  8  1  0  0  0
  7 15  1  0  0  0
  7 27  1  0  0  0
  8  9  1  0  0  0
  8 17  1  0  0  0
  8 28  1  0  0  0
  9 10  2  0  0  0
  9 14  1  0  0  0
 10 11  1  0  0  0
 10 29  1  0  0  0
 11 12  2  0  0  0
 11 30  1  0  0  0
 12 13  1  0  0  0
 12 20  1  0  0  0
 13 14  2  0  0  0
 13 31  1  0  0  0
 14 32  1  0  0  0
 15 16  1  0  0  0
 15 33  1  0  0  0
 15 34  1  0  0  0
 16 35  1  0  0  0
 16 36  1  0  0  0
 16 37  1  0  0  0
 17 18  1  0  0  0
 17 38  1  0  0  0
 17 39  1  0  0  0
 18 40  1  0  0  0
 18 41  1  0  0  0
 18 42  1  0  0  0
 19 43  1  0  0  0
 20 21  2  0  0  0
 20 22  1  0  0  0
 22 44  1  0  0  0
 22 45  1  0  0  0
 22 46  1  0  0  0
M  END
>  <Name>
lit-323

>  <Family>
B.2

>  <RBA>
4.100000

>  <RBA_avg>
4.100000

>  <Method>
LUC

>  <set>
2

$$$$
lit-324
  Cerius2 12180216413D 1   1.00000                          
 Structure written by MMmdl.
 52 53  0  0  0  0  0  0  0  0999 V2000
   -7.8580   -5.1795   10.9939 C   0  0  0  0  0  0
   -9.0314   -4.4697   11.2975 C   0  0  0  0  0  0
   -9.9600   -4.1708   10.2978 C   0  0  0  0  0  0
   -9.7214   -4.5782    8.9910 C   0  0  0  0  0  0
   -8.5672   -5.2809    8.6654 C   0  0  0  0  0  0
   -7.6381   -5.5802    9.6652 C   0  0  0  0  0  0
   -6.8245   -5.5201   12.0692 C   0  0  0  0  0  0
   -7.4951   -5.7914   13.4664 C   0  0  0  0  0  0
   -6.7089   -5.1536   14.6125 C   0  0  0  0  0  0
   -5.3158   -4.9986   14.5562 C   0  0  0  0  0  0
   -4.6136   -4.4128   15.6166 C   0  0  0  0  0  0
   -5.2931   -3.9738   16.7515 C   0  0  0  0  0  0
   -6.6798   -4.1229   16.8135 C   0  0  0  0  0  0
   -7.3837   -4.7075   15.7571 C   0  0  0  0  0  0
   -5.7429   -4.4078   12.1475 C   0  0  0  0  0  0
   -4.9790   -4.2087   10.8417 C   0  0  0  0  0  0
   -7.6970   -7.3088   13.7317 C   0  0  0  0  0  0
   -8.4647   -7.6050   15.0166 C   0  0  0  0  0  0
  -10.6511   -4.2676    8.0427 O   0  0  0  0  0  0
   -4.7299   -3.3869   17.8506 O   0  0  0  0  0  0
   -3.3025   -3.2801   17.8758 C   0  0  0  0  0  0
   -2.8074   -2.6565   19.1937 C   0  0  0  0  0  0
   -3.3055   -1.3117   19.3278 O   0  0  0  0  0  0
   -3.0887   -3.5011   20.4461 C   0  0  0  0  0  0
   -4.8121   -3.5824   20.9110 Cl  0  0  0  0  0  0
   -9.2344   -4.1415   12.3156 H   0  0  0  0  0  0
  -10.8647   -3.6206   10.5462 H   0  0  0  0  0  0
   -8.3728   -5.6029    7.6451 H   0  0  0  0  0  0
   -6.7374   -6.1314    9.3969 H   0  0  0  0  0  0
   -6.3111   -6.4421   11.7623 H   0  0  0  0  0  0
   -8.4950   -5.3354   13.4495 H   0  0  0  0  0  0
   -4.7568   -5.3330   13.6831 H   0  0  0  0  0  0
   -3.5360   -4.3152   15.5165 H   0  0  0  0  0  0
   -7.2237   -3.7836   17.6936 H   0  0  0  0  0  0
   -8.4650   -4.8102   15.8385 H   0  0  0  0  0  0
   -5.0013   -4.6605   12.9130 H   0  0  0  0  0  0
   -6.1892   -3.4532   12.4511 H   0  0  0  0  0  0
   -4.1708   -3.4849   10.9888 H   0  0  0  0  0  0
   -5.6249   -3.8235   10.0474 H   0  0  0  0  0  0
   -4.5324   -5.1486   10.5021 H   0  0  0  0  0  0
   -6.7323   -7.8292   13.7621 H   0  0  0  0  0  0
   -8.2664   -7.7592   12.9113 H   0  0  0  0  0  0
   -8.6582   -8.6797   15.0965 H   0  0  0  0  0  0
   -9.4291   -7.0872   15.0250 H   0  0  0  0  0  0
   -7.9014   -7.3056   15.9051 H   0  0  0  0  0  0
  -10.3415   -4.6192    7.1806 H   0  0  0  0  0  0
   -2.9879   -2.6287   17.0510 H   0  0  0  0  0  0
   -2.8496   -4.2725   17.7616 H   0  0  0  0  0  0
   -1.7176   -2.5633   19.1063 H   0  0  0  0  0  0
   -2.9802   -0.9821   20.1915 H   0  0  0  0  0  0
   -2.5728   -3.0629   21.3061 H   0  0  0  0  0  0
   -2.7292   -4.5262   20.3156 H   0  0  0  0  0  0
  1  2  2  0  0  0
  1  6  1  0  0  0
  1  7  1  0  0  0
  2  3  1  0  0  0
  2 26  1  0  0  0
  3  4  2  0  0  0
  3 27  1  0  0  0
  4  5  1  0  0  0
  4 19  1  0  0  0
  5  6  2  0  0  0
  5 28  1  0  0  0
  6 29  1  0  0  0
  7  8  1  0  0  0
  7 15  1  0  0  0
  7 30  1  0  0  0
  8  9  1  0  0  0
  8 17  1  0  0  0
  8 31  1  0  0  0
  9 10  2  0  0  0
  9 14  1  0  0  0
 10 11  1  0  0  0
 10 32  1  0  0  0
 11 12  2  0  0  0
 11 33  1  0  0  0
 12 13  1  0  0  0
 12 20  1  0  0  0
 13 14  2  0  0  0
 13 34  1  0  0  0
 14 35  1  0  0  0
 15 16  1  0  0  0
 15 36  1  0  0  0
 15 37  1  0  0  0
 16 38  1  0  0  0
 16 39  1  0  0  0
 16 40  1  0  0  0
 17 18  1  0  0  0
 17 41  1  0  0  0
 17 42  1  0  0  0
 18 43  1  0  0  0
 18 44  1  0  0  0
 18 45  1  0  0  0
 19 46  1  0  0  0
 20 21  1  0  0  0
 21 22  1  0  0  0
 21 47  1  0  0  0
 21 48  1  0  0  0
 22 23  1  0  0  0
 22 24  1  0  0  0
 22 49  1  0  0  0
 23 50  1  0  0  0
 24 25  1  0  0  0
 24 51  1  0  0  0
 24 52  1  0  0  0
M  END
>  <Name>
lit-324

>  <Family>
B.2

>  <RBA>
4.000000

>  <RBA_avg>
4.000000

>  <Method>
LUC

>  <set>
1

$$$$
lit-325
  Cerius2 12180216413D 1   1.00000                          
 Structure written by MMmdl.
 42 43  0  0  0  0  0  0  0  0999 V2000
   -7.8424   -5.1866   10.9649 C   0  0  0  0  0  0
   -9.0098   -4.4853   11.3129 C   0  0  0  0  0  0
   -9.9742   -4.1830   10.3446 C   0  0  0  0  0  0
   -9.7805   -4.5789    9.0193 C   0  0  0  0  0  0
   -8.6274   -5.2750    8.6609 C   0  0  0  0  0  0
   -7.6651   -5.5768    9.6281 C   0  0  0  0  0  0
   -6.7717   -5.5331   12.0032 C   0  0  0  0  0  0
   -7.3968   -5.7719   13.4277 C   0  0  0  0  0  0
   -6.5924   -5.1549   14.5829 C   0  0  0  0  0  0
   -5.1962   -4.9694   14.6512 C   0  0  0  0  0  0
   -4.6113   -4.3840   15.7893 C   0  0  0  0  0  0
   -5.3984   -3.9812   16.8601 C   0  0  0  0  0  0
   -6.7708   -4.1490   16.8251 C   0  0  0  0  0  0
   -7.3571   -4.7293   15.6985 C   0  0  0  0  0  0
   -5.6591   -4.4503   12.0220 C   0  0  0  0  0  0
   -4.9717   -4.2614   10.6729 C   0  0  0  0  0  0
   -7.7852   -7.2537   13.6843 C   0  0  0  0  0  0
   -8.4503   -7.4913   15.0362 C   0  0  0  0  0  0
   -4.7800   -3.4195   17.9377 O   0  0  0  0  0  0
  -10.7147   -4.2901    8.0625 O   0  0  0  0  0  0
   -3.8148   -5.4984   13.1546 I   0  0  0  0  0  0
  -11.6839   -3.1369   10.9463 I   0  0  0  0  0  0
   -9.1638   -4.1753   12.3448 H   0  0  0  0  0  0
   -8.4588   -5.5920    7.6341 H   0  0  0  0  0  0
   -6.7716   -6.1226    9.3259 H   0  0  0  0  0  0
   -6.2951   -6.4616   11.6753 H   0  0  0  0  0  0
   -8.3619   -5.2438   13.4105 H   0  0  0  0  0  0
   -3.5348   -4.2361   15.8519 H   0  0  0  0  0  0
   -7.4012   -3.8390   17.6550 H   0  0  0  0  0  0
   -8.4416   -4.8483   15.7001 H   0  0  0  0  0  0
   -4.8786   -4.7316   12.7375 H   0  0  0  0  0  0
   -6.0588   -3.4867   12.3593 H   0  0  0  0  0  0
   -4.1373   -3.5597   10.7743 H   0  0  0  0  0  0
   -5.6547   -3.8538    9.9219 H   0  0  0  0  0  0
   -4.5713   -5.2099   10.3010 H   0  0  0  0  0  0
   -6.9243   -7.9189   13.5886 H   0  0  0  0  0  0
   -8.4986   -7.5801   12.9186 H   0  0  0  0  0  0
   -8.7968   -8.5278   15.1045 H   0  0  0  0  0  0
   -9.3182   -6.8372   15.1674 H   0  0  0  0  0  0
   -7.7567   -7.3220   15.8649 H   0  0  0  0  0  0
   -5.4642   -3.1898   18.6026 H   0  0  0  0  0  0
  -10.4037   -4.6451    7.2036 H   0  0  0  0  0  0
  1  2  2  0  0  0
  1  6  1  0  0  0
  1  7  1  0  0  0
  2  3  1  0  0  0
  2 23  1  0  0  0
  3  4  2  0  0  0
  3 22  1  0  0  0
  4  5  1  0  0  0
  4 20  1  0  0  0
  5  6  2  0  0  0
  5 24  1  0  0  0
  6 25  1  0  0  0
  7  8  1  0  0  0
  7 15  1  0  0  0
  7 26  1  0  0  0
  8  9  1  0  0  0
  8 17  1  0  0  0
  8 27  1  0  0  0
  9 10  2  0  0  0
  9 14  1  0  0  0
 10 11  1  0  0  0
 10 21  1  0  0  0
 11 12  2  0  0  0
 11 28  1  0  0  0
 12 13  1  0  0  0
 12 19  1  0  0  0
 13 14  2  0  0  0
 13 29  1  0  0  0
 14 30  1  0  0  0
 15 16  1  0  0  0
 15 31  1  0  0  0
 15 32  1  0  0  0
 16 33  1  0  0  0
 16 34  1  0  0  0
 16 35  1  0  0  0
 17 18  1  0  0  0
 17 36  1  0  0  0
 17 37  1  0  0  0
 18 38  1  0  0  0
 18 39  1  0  0  0
 18 40  1  0  0  0
 19 41  1  0  0  0
 20 42  1  0  0  0
M  END
>  <Name>
lit-325

>  <Family>
B.2

>  <RBA>
3.200000

>  <RBA_avg>
3.200000

>  <Method>
LUC

>  <set>
0

$$$$
lit-326
  Cerius2 12180216413D 1   1.00000                          
 Structure written by MMmdl.
 42 43  0  0  0  0  0  0  0  0999 V2000
   -7.8445   -5.1852   10.9709 C   0  0  0  0  0  0
   -9.0129   -4.4827   11.3114 C   0  0  0  0  0  0
   -9.9701   -4.1816   10.3375 C   0  0  0  0  0  0
   -9.7704   -4.5789    9.0140 C   0  0  0  0  0  0
   -8.6169   -5.2762    8.6615 C   0  0  0  0  0  0
   -7.6603   -5.5773    9.6349 C   0  0  0  0  0  0
   -6.7796   -5.5306   12.0151 C   0  0  0  0  0  0
   -7.4134   -5.7745   13.4349 C   0  0  0  0  0  0
   -6.6156   -5.1530   14.5901 C   0  0  0  0  0  0
   -5.2195   -4.9698   14.6380 C   0  0  0  0  0  0
   -4.6151   -4.3854   15.7619 C   0  0  0  0  0  0
   -5.3867   -3.9797   16.8425 C   0  0  0  0  0  0
   -6.7612   -4.1453   16.8276 C   0  0  0  0  0  0
   -7.3668   -4.7264   15.7113 C   0  0  0  0  0  0
   -5.6721   -4.4427   12.0438 C   0  0  0  0  0  0
   -4.9715   -4.2526   10.7016 C   0  0  0  0  0  0
   -7.7681   -7.2651   13.6906 C   0  0  0  0  0  0
   -8.4548   -7.5135   15.0298 C   0  0  0  0  0  0
   -4.7524   -3.4173   17.9105 O   0  0  0  0  0  0
  -10.7034   -4.2870    8.0567 O   0  0  0  0  0  0
   -4.0261   -5.4672   13.2453 Br  0  0  0  0  0  0
  -11.5258   -3.2307   10.8628 Br  0  0  0  0  0  0
   -9.1776   -4.1683   12.3402 H   0  0  0  0  0  0
   -8.4436   -5.5943    7.6359 H   0  0  0  0  0  0
   -6.7654   -6.1241    9.3385 H   0  0  0  0  0  0
   -6.2966   -6.4574   11.6892 H   0  0  0  0  0  0
   -8.3857   -5.2598   13.4174 H   0  0  0  0  0  0
   -3.5371   -4.2432   15.7997 H   0  0  0  0  0  0
   -7.3783   -3.8324   17.6665 H   0  0  0  0  0  0
   -8.4510   -4.8452   15.7252 H   0  0  0  0  0  0
   -4.8978   -4.7192   12.7678 H   0  0  0  0  0  0
   -6.0798   -3.4805   12.3756 H   0  0  0  0  0  0
   -4.1414   -3.5471   10.8107 H   0  0  0  0  0  0
   -5.6484   -3.8490    9.9429 H   0  0  0  0  0  0
   -4.5632   -5.1998   10.3353 H   0  0  0  0  0  0
   -6.8861   -7.9064   13.6179 H   0  0  0  0  0  0
   -8.4559   -7.6145   12.9119 H   0  0  0  0  0  0
   -8.7748   -8.5585   15.0967 H   0  0  0  0  0  0
   -9.3421   -6.8820   15.1394 H   0  0  0  0  0  0
   -7.7831   -7.3217   15.8717 H   0  0  0  0  0  0
   -5.4266   -3.1867   18.5852 H   0  0  0  0  0  0
  -10.3917   -4.6421    7.1980 H   0  0  0  0  0  0
  1  2  2  0  0  0
  1  6  1  0  0  0
  1  7  1  0  0  0
  2  3  1  0  0  0
  2 23  1  0  0  0
  3  4  2  0  0  0
  3 22  1  0  0  0
  4  5  1  0  0  0
  4 20  1  0  0  0
  5  6  2  0  0  0
  5 24  1  0  0  0
  6 25  1  0  0  0
  7  8  1  0  0  0
  7 15  1  0  0  0
  7 26  1  0  0  0
  8  9  1  0  0  0
  8 17  1  0  0  0
  8 27  1  0  0  0
  9 10  2  0  0  0
  9 14  1  0  0  0
 10 11  1  0  0  0
 10 21  1  0  0  0
 11 12  2  0  0  0
 11 28  1  0  0  0
 12 13  1  0  0  0
 12 19  1  0  0  0
 13 14  2  0  0  0
 13 29  1  0  0  0
 14 30  1  0  0  0
 15 16  1  0  0  0
 15 31  1  0  0  0
 15 32  1  0  0  0
 16 33  1  0  0  0
 16 34  1  0  0  0
 16 35  1  0  0  0
 17 18  1  0  0  0
 17 36  1  0  0  0
 17 37  1  0  0  0
 18 38  1  0  0  0
 18 39  1  0  0  0
 18 40  1  0  0  0
 19 41  1  0  0  0
 20 42  1  0  0  0
M  END
>  <Name>
lit-326

>  <Family>
B.2

>  <RBA>
2.600000

>  <RBA_avg>
2.600000

>  <Method>
LUC

>  <set>
0

$$$$
lit-327
  Cerius2 12180216413D 1   1.00000                          
 Structure written by MMmdl.
 46 47  0  0  0  0  0  0  0  0999 V2000
   -6.7715   -5.1527   14.5493 C   0  0  0  0  0  0
   -7.4506   -4.7022   15.7122 C   0  0  0  0  0  0
   -6.7193   -4.1173   16.7796 C   0  0  0  0  0  0
   -5.3088   -3.9829   16.6841 C   0  0  0  0  0  0
   -4.6298   -4.4333   15.5213 C   0  0  0  0  0  0
   -5.3611   -5.0182   14.4538 C   0  0  0  0  0  0
   -7.5410   -5.7809   13.4293 C   0  0  0  0  0  0
   -6.8118   -5.5412   12.1139 C   0  0  0  0  0  0
   -7.8048   -5.2015   11.0465 C   0  0  0  0  0  0
   -7.5738   -5.6093    9.7061 C   0  0  0  0  0  0
   -8.5216   -5.2976    8.6958 C   0  0  0  0  0  0
   -9.7006   -4.5781    9.0258 C   0  0  0  0  0  0
   -9.9315   -4.1703   10.3662 C   0  0  0  0  0  0
   -8.9837   -4.4820   11.3765 C   0  0  0  0  0  0
   -7.6600   -7.2791   13.6758 C   0  0  0  0  0  0
   -8.4352   -7.5225   14.9638 C   0  0  0  0  0  0
   -5.8339   -4.3856   12.2812 C   0  0  0  0  0  0
   -5.0418   -4.1995   10.9938 C   0  0  0  0  0  0
   -4.6097   -3.4354   17.7075 O   0  0  0  0  0  0
  -10.9027   -4.1985    7.7551 S   0  0  0  0  0  0
  -11.3962   -5.4314    7.1729 O   0  0  0  0  0  0
  -10.3445   -3.2248    6.8370 O   0  0  0  0  0  0
  -12.1951   -3.3389    8.4383 N   0  0  0  0  0  0
  -13.1547   -2.9712    7.7179 N   0  3  0  0  0  0
  -14.0218   -2.6388    7.0670 N   0  5  0  0  0  0
   -8.5420   -4.8149   15.7902 H   0  0  0  0  0  0
   -7.2441   -3.7769   17.6843 H   0  0  0  0  0  0
   -3.5362   -4.3377   15.4513 H   0  0  0  0  0  0
   -4.8340   -5.3757   13.5571 H   0  0  0  0  0  0
   -8.5576   -5.3305   13.3783 H   0  0  0  0  0  0
   -6.2550   -6.4604   11.8246 H   0  0  0  0  0  0
   -6.6651   -6.1748    9.4522 H   0  0  0  0  0  0
   -8.3472   -5.6216    7.6591 H   0  0  0  0  0  0
  -10.8492   -3.6212   10.6235 H   0  0  0  0  0  0
   -9.1672   -4.1743   12.4166 H   0  0  0  0  0  0
   -6.6424   -7.7208   13.7673 H   0  0  0  0  0  0
   -8.1988   -7.7524   12.8246 H   0  0  0  0  0  0
   -8.5271   -8.6156   15.1520 H   0  0  0  0  0  0
   -9.4541   -7.0817   14.8839 H   0  0  0  0  0  0
   -7.9061   -7.0503   15.8217 H   0  0  0  0  0  0
   -5.1341   -4.6112   13.1167 H   0  0  0  0  0  0
   -6.3983   -3.4531   12.5063 H   0  0  0  0  0  0
   -4.3241   -3.3564   11.1070 H   0  0  0  0  0  0
   -5.7330   -3.9763   10.1505 H   0  0  0  0  0  0
   -4.4756   -5.1281   10.7576 H   0  0  0  0  0  0
   -3.6699   -3.4286   17.4596 H   0  0  0  0  0  0
  1  2  2  0  0  0
  1  6  1  0  0  0
  1  7  1  0  0  0
  2  3  1  0  0  0
  2 26  1  0  0  0
  3  4  2  0  0  0
  3 27  1  0  0  0
  4  5  1  0  0  0
  4 19  1  0  0  0
  5  6  2  0  0  0
  5 28  1  0  0  0
  6 29  1  0  0  0
  7  8  1  0  0  0
  7 15  1  0  0  0
  7 30  1  0  0  0
  8  9  1  0  0  0
  8 17  1  0  0  0
  8 31  1  0  0  0
  9 10  2  0  0  0
  9 14  1  0  0  0
 10 11  1  0  0  0
 10 32  1  0  0  0
 11 12  2  0  0  0
 11 33  1  0  0  0
 12 13  1  0  0  0
 12 20  1  0  0  0
 13 14  2  0  0  0
 13 34  1  0  0  0
 14 35  1  0  0  0
 15 16  1  0  0  0
 15 36  1  0  0  0
 15 37  1  0  0  0
 16 38  1  0  0  0
 16 39  1  0  0  0
 16 40  1  0  0  0
 17 18  1  0  0  0
 17 41  1  0  0  0
 17 42  1  0  0  0
 18 43  1  0  0  0
 18 44  1  0  0  0
 18 45  1  0  0  0
 19 46  1  0  0  0
 20 21  2  0  0  0
 20 22  2  0  0  0
 20 23  1  0  0  0
 23 24  2  0  0  0
 24 25  2  0  0  0
M  CHG  2  24   1  25  -1
M  END
>  <Name>
lit-327

>  <Family>
B.2

>  <RBA>
1.800000

>  <RBA_avg>
1.800000

>  <Method>
LUC

>  <set>
1

$$$$
lit-328
  Cerius2 12180216413D 1   1.00000                          
 Structure written by MMmdl.
 44 45  0  0  0  0  0  0  0  0999 V2000
   -7.8556   -5.1782   10.9967 C   0  0  0  0  0  0
   -9.0295   -4.4682   11.2978 C   0  0  0  0  0  0
   -9.9564   -4.1698   10.2965 C   0  0  0  0  0  0
   -9.7156   -4.5780    8.9903 C   0  0  0  0  0  0
   -8.5611   -5.2810    8.6670 C   0  0  0  0  0  0
   -7.6336   -5.5799    9.6685 C   0  0  0  0  0  0
   -6.8241   -5.5183   12.0737 C   0  0  0  0  0  0
   -7.4977   -5.7969   13.4680 C   0  0  0  0  0  0
   -6.7202   -5.1542   14.6181 C   0  0  0  0  0  0
   -5.3267   -4.9949   14.5666 C   0  0  0  0  0  0
   -4.6352   -4.4047   15.6294 C   0  0  0  0  0  0
   -5.3272   -3.9640   16.7632 C   0  0  0  0  0  0
   -6.7167   -4.1201   16.8220 C   0  0  0  0  0  0
   -7.4066   -4.7101   15.7588 C   0  0  0  0  0  0
   -5.7471   -4.4021   12.1594 C   0  0  0  0  0  0
   -4.9766   -4.1992   10.8582 C   0  0  0  0  0  0
   -7.6890   -7.3159   13.7309 C   0  0  0  0  0  0
   -8.4619   -7.6191   15.0111 C   0  0  0  0  0  0
  -10.6438   -4.2678    8.0403 O   0  0  0  0  0  0
   -4.6347   -3.3316   17.9168 C   0  0  0  0  0  0
   -5.1738   -2.9268   18.9339 O   0  0  0  0  0  0
   -3.3041   -3.2412   17.7323 O   0  0  0  0  0  0
   -9.2343   -4.1395   12.3155 H   0  0  0  0  0  0
  -10.8615   -3.6194   10.5431 H   0  0  0  0  0  0
   -8.3651   -5.6039    7.6473 H   0  0  0  0  0  0
   -6.7326   -6.1314    9.4021 H   0  0  0  0  0  0
   -6.3062   -6.4373   11.7652 H   0  0  0  0  0  0
   -8.5012   -5.3487   13.4480 H   0  0  0  0  0  0
   -4.7617   -5.3295   13.6976 H   0  0  0  0  0  0
   -3.5551   -4.2966   15.5567 H   0  0  0  0  0  0
   -7.2744   -3.7846   17.6945 H   0  0  0  0  0  0
   -8.4884   -4.8196   15.8307 H   0  0  0  0  0  0
   -5.0088   -4.6529   12.9288 H   0  0  0  0  0  0
   -6.1986   -3.4495   12.4614 H   0  0  0  0  0  0
   -4.1723   -3.4721   11.0102 H   0  0  0  0  0  0
   -5.6196   -3.8160   10.0605 H   0  0  0  0  0  0
   -4.5242   -5.1370   10.5204 H   0  0  0  0  0  0
   -6.7202   -7.8287   13.7666 H   0  0  0  0  0  0
   -8.2498   -7.7703   12.9070 H   0  0  0  0  0  0
   -8.6478   -8.6952   15.0888 H   0  0  0  0  0  0
   -9.4300   -7.1084   15.0144 H   0  0  0  0  0  0
   -7.9058   -7.3164   15.9032 H   0  0  0  0  0  0
  -10.3329   -4.6200    7.1789 H   0  0  0  0  0  0
   -2.9409   -2.8126   18.5445 H   0  0  0  0  0  0
  1  2  2  0  0  0
  1  6  1  0  0  0
  1  7  1  0  0  0
  2  3  1  0  0  0
  2 23  1  0  0  0
  3  4  2  0  0  0
  3 24  1  0  0  0
  4  5  1  0  0  0
  4 19  1  0  0  0
  5  6  2  0  0  0
  5 25  1  0  0  0
  6 26  1  0  0  0
  7  8  1  0  0  0
  7 15  1  0  0  0
  7 27  1  0  0  0
  8  9  1  0  0  0
  8 17  1  0  0  0
  8 28  1  0  0  0
  9 10  2  0  0  0
  9 14  1  0  0  0
 10 11  1  0  0  0
 10 29  1  0  0  0
 11 12  2  0  0  0
 11 30  1  0  0  0
 12 13  1  0  0  0
 12 20  1  0  0  0
 13 14  2  0  0  0
 13 31  1  0  0  0
 14 32  1  0  0  0
 15 16  1  0  0  0
 15 33  1  0  0  0
 15 34  1  0  0  0
 16 35  1  0  0  0
 16 36  1  0  0  0
 16 37  1  0  0  0
 17 18  1  0  0  0
 17 38  1  0  0  0
 17 39  1  0  0  0
 18 40  1  0  0  0
 18 41  1  0  0  0
 18 42  1  0  0  0
 19 43  1  0  0  0
 20 21  2  0  0  0
 20 22  1  0  0  0
 22 44  1  0  0  0
M  END
>  <Name>
lit-328

>  <Family>
B.2

>  <RBA>
1.800000

>  <RBA_avg>
1.800000

>  <Method>
LUC

>  <set>
0

$$$$
lit-329
  Cerius2 12180216413D 1   1.00000                          
 Structure written by MMmdl.
 46 47  0  0  0  0  0  0  0  0999 V2000
   -7.8555   -5.1782   10.9963 C   0  0  0  0  0  0
   -9.0293   -4.4683   11.2977 C   0  0  0  0  0  0
   -9.9564   -4.1699   10.2966 C   0  0  0  0  0  0
   -9.7159   -4.5780    8.9904 C   0  0  0  0  0  0
   -8.5614   -5.2810    8.6668 C   0  0  0  0  0  0
   -7.6336   -5.5798    9.6681 C   0  0  0  0  0  0
   -6.8239   -5.5186   12.0733 C   0  0  0  0  0  0
   -7.4980   -5.7970   13.4674 C   0  0  0  0  0  0
   -6.7214   -5.1544   14.6176 C   0  0  0  0  0  0
   -5.3289   -4.9940   14.5684 C   0  0  0  0  0  0
   -4.6358   -4.4038   15.6318 C   0  0  0  0  0  0
   -5.3240   -3.9626   16.7676 C   0  0  0  0  0  0
   -6.7154   -4.1207   16.8201 C   0  0  0  0  0  0
   -7.4065   -4.7106   15.7573 C   0  0  0  0  0  0
   -5.7464   -4.4029   12.1588 C   0  0  0  0  0  0
   -4.9765   -4.1995   10.8572 C   0  0  0  0  0  0
   -7.6897   -7.3159   13.7299 C   0  0  0  0  0  0
   -8.4616   -7.6191   15.0106 C   0  0  0  0  0  0
  -10.6444   -4.2681    8.0407 O   0  0  0  0  0  0
   -4.6248   -3.3249   17.9306 C   0  0  0  0  0  0
   -5.3050   -2.9198   18.8771 O   0  0  0  0  0  0
   -3.1152   -3.2162   17.8638 C   0  0  0  0  0  0
   -2.4202   -2.4257   19.5069 Br  0  0  0  0  0  0
   -9.2339   -4.1397   12.3155 H   0  0  0  0  0  0
  -10.8616   -3.6198   10.5435 H   0  0  0  0  0  0
   -8.3656   -5.6037    7.6470 H   0  0  0  0  0  0
   -6.7326   -6.1313    9.4015 H   0  0  0  0  0  0
   -6.3062   -6.4378   11.7650 H   0  0  0  0  0  0
   -8.5013   -5.3486   13.4469 H   0  0  0  0  0  0
   -4.7637   -5.3278   13.6990 H   0  0  0  0  0  0
   -3.5574   -4.3034   15.5386 H   0  0  0  0  0  0
   -7.2791   -3.7875   17.6900 H   0  0  0  0  0  0
   -8.4882   -4.8195   15.8302 H   0  0  0  0  0  0
   -5.0078   -4.6543   12.9277 H   0  0  0  0  0  0
   -6.1974   -3.4502   12.4616 H   0  0  0  0  0  0
   -4.1715   -3.4732   11.0094 H   0  0  0  0  0  0
   -5.6198   -3.8151   10.0603 H   0  0  0  0  0  0
   -4.5252   -5.1374   10.5185 H   0  0  0  0  0  0
   -6.7212   -7.8291   13.7646 H   0  0  0  0  0  0
   -8.2515   -7.7698   12.9062 H   0  0  0  0  0  0
   -8.6476   -8.6953   15.0884 H   0  0  0  0  0  0
   -9.4297   -7.1083   15.0148 H   0  0  0  0  0  0
   -7.9047   -7.3167   15.9023 H   0  0  0  0  0  0
  -10.3337   -4.6202    7.1792 H   0  0  0  0  0  0
   -2.8062   -2.5526   17.0536 H   0  0  0  0  0  0
   -2.6531   -4.2025   17.7869 H   0  0  0  0  0  0
  1  2  2  0  0  0
  1  6  1  0  0  0
  1  7  1  0  0  0
  2  3  1  0  0  0
  2 24  1  0  0  0
  3  4  2  0  0  0
  3 25  1  0  0  0
  4  5  1  0  0  0
  4 19  1  0  0  0
  5  6  2  0  0  0
  5 26  1  0  0  0
  6 27  1  0  0  0
  7  8  1  0  0  0
  7 15  1  0  0  0
  7 28  1  0  0  0
  8  9  1  0  0  0
  8 17  1  0  0  0
  8 29  1  0  0  0
  9 10  2  0  0  0
  9 14  1  0  0  0
 10 11  1  0  0  0
 10 30  1  0  0  0
 11 12  2  0  0  0
 11 31  1  0  0  0
 12 13  1  0  0  0
 12 20  1  0  0  0
 13 14  2  0  0  0
 13 32  1  0  0  0
 14 33  1  0  0  0
 15 16  1  0  0  0
 15 34  1  0  0  0
 15 35  1  0  0  0
 16 36  1  0  0  0
 16 37  1  0  0  0
 16 38  1  0  0  0
 17 18  1  0  0  0
 17 39  1  0  0  0
 17 40  1  0  0  0
 18 41  1  0  0  0
 18 42  1  0  0  0
 18 43  1  0  0  0
 19 44  1  0  0  0
 20 21  2  0  0  0
 20 22  1  0  0  0
 22 23  1  0  0  0
 22 45  1  0  0  0
 22 46  1  0  0  0
M  END
>  <Name>
lit-329

>  <Family>
B.2

>  <RBA>
1.100000

>  <RBA_avg>
1.100000

>  <Method>
LUC

>  <set>
1

$$$$
lit-330
  Cerius2 12180216413D 1   1.00000                          
 Structure written by MMmdl.
 55 56  0  0  0  0  0  0  0  0999 V2000
   -7.8576   -5.1790   10.9940 C   0  0  0  0  0  0
   -9.0312   -4.4694   11.2975 C   0  0  0  0  0  0
   -9.9599   -4.1707   10.2980 C   0  0  0  0  0  0
   -9.7214   -4.5783    8.9912 C   0  0  0  0  0  0
   -8.5672   -5.2809    8.6656 C   0  0  0  0  0  0
   -7.6378   -5.5800    9.6652 C   0  0  0  0  0  0
   -6.8244   -5.5199   12.0693 C   0  0  0  0  0  0
   -7.4953   -5.7915   13.4662 C   0  0  0  0  0  0
   -6.7089   -5.1541   14.6125 C   0  0  0  0  0  0
   -5.3159   -4.9997   14.5563 C   0  0  0  0  0  0
   -4.6136   -4.4137   15.6165 C   0  0  0  0  0  0
   -5.2934   -3.9724   16.7504 C   0  0  0  0  0  0
   -6.6799   -4.1238   16.8137 C   0  0  0  0  0  0
   -7.3836   -4.7084   15.7573 C   0  0  0  0  0  0
   -5.7426   -4.4077   12.1482 C   0  0  0  0  0  0
   -4.9787   -4.2081   10.8426 C   0  0  0  0  0  0
   -7.6983   -7.3088   13.7311 C   0  0  0  0  0  0
   -8.4648   -7.6048   15.0168 C   0  0  0  0  0  0
  -10.6512   -4.2681    8.0429 O   0  0  0  0  0  0
   -4.7296   -3.3855   17.8495 O   0  0  0  0  0  0
   -3.3059   -3.1994   17.8292 C   0  0  0  0  0  0
   -2.8849   -2.5182   19.1320 C   0  0  0  0  0  0
   -3.0452   -3.4352   20.2285 O   0  0  0  0  0  0
   -2.6688   -2.8244   21.4733 C   0  0  0  0  0  0
   -2.8543   -3.8309   22.5999 C   0  0  0  0  0  0
   -2.3995   -3.1274   24.1712 Cl  0  0  0  0  0  0
   -9.2342   -4.1412   12.3157 H   0  0  0  0  0  0
  -10.8648   -3.6208   10.5465 H   0  0  0  0  0  0
   -8.3728   -5.6032    7.6453 H   0  0  0  0  0  0
   -6.7371   -6.1311    9.3970 H   0  0  0  0  0  0
   -6.3110   -6.4418   11.7622 H   0  0  0  0  0  0
   -8.4951   -5.3350   13.4493 H   0  0  0  0  0  0
   -4.7567   -5.3357   13.6839 H   0  0  0  0  0  0
   -3.5355   -4.3206   15.5179 H   0  0  0  0  0  0
   -7.2250   -3.7846   17.6931 H   0  0  0  0  0  0
   -8.4649   -4.8115   15.8388 H   0  0  0  0  0  0
   -5.0010   -4.6610   12.9135 H   0  0  0  0  0  0
   -6.1888   -3.4533   12.4524 H   0  0  0  0  0  0
   -4.1704   -3.4844   10.9899 H   0  0  0  0  0  0
   -5.6247   -3.8223   10.0485 H   0  0  0  0  0  0
   -4.5322   -5.1479   10.5024 H   0  0  0  0  0  0
   -6.7339   -7.8299   13.7601 H   0  0  0  0  0  0
   -8.2690   -7.7583   12.9113 H   0  0  0  0  0  0
   -8.6596   -8.6793   15.0961 H   0  0  0  0  0  0
   -9.4284   -7.0856   15.0267 H   0  0  0  0  0  0
   -7.8998   -7.3068   15.9048 H   0  0  0  0  0  0
  -10.3420   -4.6204    7.1811 H   0  0  0  0  0  0
   -3.0309   -2.5536   16.9877 H   0  0  0  0  0  0
   -2.8102   -4.1740   17.7513 H   0  0  0  0  0  0
   -3.5080   -1.6353   19.3140 H   0  0  0  0  0  0
   -1.8322   -2.2224   19.0684 H   0  0  0  0  0  0
   -3.2981   -1.9431   21.6448 H   0  0  0  0  0  0
   -1.6207   -2.5086   21.4150 H   0  0  0  0  0  0
   -2.2402   -4.7211   22.4300 H   0  0  0  0  0  0
   -3.8967   -4.1603   22.6583 H   0  0  0  0  0  0
  1  2  2  0  0  0
  1  6  1  0  0  0
  1  7  1  0  0  0
  2  3  1  0  0  0
  2 27  1  0  0  0
  3  4  2  0  0  0
  3 28  1  0  0  0
  4  5  1  0  0  0
  4 19  1  0  0  0
  5  6  2  0  0  0
  5 29  1  0  0  0
  6 30  1  0  0  0
  7  8  1  0  0  0
  7 15  1  0  0  0
  7 31  1  0  0  0
  8  9  1  0  0  0
  8 17  1  0  0  0
  8 32  1  0  0  0
  9 10  2  0  0  0
  9 14  1  0  0  0
 10 11  1  0  0  0
 10 33  1  0  0  0
 11 12  2  0  0  0
 11 34  1  0  0  0
 12 13  1  0  0  0
 12 20  1  0  0  0
 13 14  2  0  0  0
 13 35  1  0  0  0
 14 36  1  0  0  0
 15 16  1  0  0  0
 15 37  1  0  0  0
 15 38  1  0  0  0
 16 39  1  0  0  0
 16 40  1  0  0  0
 16 41  1  0  0  0
 17 18  1  0  0  0
 17 42  1  0  0  0
 17 43  1  0  0  0
 18 44  1  0  0  0
 18 45  1  0  0  0
 18 46  1  0  0  0
 19 47  1  0  0  0
 20 21  1  0  0  0
 21 22  1  0  0  0
 21 48  1  0  0  0
 21 49  1  0  0  0
 22 23  1  0  0  0
 22 50  1  0  0  0
 22 51  1  0  0  0
 23 24  1  0  0  0
 24 25  1  0  0  0
 24 52  1  0  0  0
 24 53  1  0  0  0
 25 26  1  0  0  0
 25 54  1  0  0  0
 25 55  1  0  0  0
M  END
>  <Name>
lit-330

>  <Family>
B.2

>  <RBA>
0.890000

>  <RBA_avg>
0.890000

>  <Method>
LUC

>  <set>
1

$$$$
lit-331
  Cerius2 12180216413D 1   1.00000                          
 Structure written by MMmdl.
 46 47  0  0  0  0  0  0  0  0999 V2000
   -7.8558   -5.1785   10.9964 C   0  0  0  0  0  0
   -9.0298   -4.4687   11.2976 C   0  0  0  0  0  0
   -9.9566   -4.1699   10.2963 C   0  0  0  0  0  0
   -9.7159   -4.5778    8.9901 C   0  0  0  0  0  0
   -8.5614   -5.2811    8.6667 C   0  0  0  0  0  0
   -7.6339   -5.5802    9.6683 C   0  0  0  0  0  0
   -6.8241   -5.5185   12.0734 C   0  0  0  0  0  0
   -7.4981   -5.7969   13.4676 C   0  0  0  0  0  0
   -6.7214   -5.1542   14.6179 C   0  0  0  0  0  0
   -5.3289   -4.9941   14.5687 C   0  0  0  0  0  0
   -4.6356   -4.4038   15.6320 C   0  0  0  0  0  0
   -5.3236   -3.9620   16.7677 C   0  0  0  0  0  0
   -6.7151   -4.1208   16.8204 C   0  0  0  0  0  0
   -7.4064   -4.7106   15.7576 C   0  0  0  0  0  0
   -5.7469   -4.4025   12.1586 C   0  0  0  0  0  0
   -4.9768   -4.1999   10.8571 C   0  0  0  0  0  0
   -7.6893   -7.3159   13.7299 C   0  0  0  0  0  0
   -8.4615   -7.6198   15.0104 C   0  0  0  0  0  0
  -10.6437   -4.2673    8.0400 O   0  0  0  0  0  0
   -4.6257   -3.3246   17.9314 C   0  0  0  0  0  0
   -5.3005   -2.9568   18.8979 O   0  0  0  0  0  0
   -3.1177   -3.1678   17.8508 C   0  0  0  0  0  0
   -2.4780   -2.3948   19.3278 Cl  0  0  0  0  0  0
   -9.2345   -4.1401   12.3154 H   0  0  0  0  0  0
  -10.8616   -3.6193   10.5429 H   0  0  0  0  0  0
   -8.3653   -5.6038    7.6470 H   0  0  0  0  0  0
   -6.7330   -6.1317    9.4018 H   0  0  0  0  0  0
   -6.3063   -6.4376   11.7651 H   0  0  0  0  0  0
   -8.5015   -5.3487   13.4473 H   0  0  0  0  0  0
   -4.7637   -5.3285   13.6995 H   0  0  0  0  0  0
   -3.5570   -4.3057   15.5386 H   0  0  0  0  0  0
   -7.2789   -3.7875   17.6901 H   0  0  0  0  0  0
   -8.4880   -4.8193   15.8306 H   0  0  0  0  0  0
   -5.0082   -4.6535   12.9277 H   0  0  0  0  0  0
   -6.1979   -3.4497   12.4608 H   0  0  0  0  0  0
   -4.1719   -3.4733   11.0088 H   0  0  0  0  0  0
   -5.6199   -3.8161   10.0597 H   0  0  0  0  0  0
   -4.5252   -5.1379   10.5190 H   0  0  0  0  0  0
   -6.7205   -7.8286   13.7651 H   0  0  0  0  0  0
   -8.2505   -7.7698   12.9059 H   0  0  0  0  0  0
   -8.6475   -8.6960   15.0876 H   0  0  0  0  0  0
   -9.4296   -7.1090   15.0146 H   0  0  0  0  0  0
   -7.9048   -7.3178   15.9023 H   0  0  0  0  0  0
  -10.3329   -4.6194    7.1786 H   0  0  0  0  0  0
   -2.8493   -2.5251   17.0090 H   0  0  0  0  0  0
   -2.6402   -4.1470   17.7675 H   0  0  0  0  0  0
  1  2  2  0  0  0
  1  6  1  0  0  0
  1  7  1  0  0  0
  2  3  1  0  0  0
  2 24  1  0  0  0
  3  4  2  0  0  0
  3 25  1  0  0  0
  4  5  1  0  0  0
  4 19  1  0  0  0
  5  6  2  0  0  0
  5 26  1  0  0  0
  6 27  1  0  0  0
  7  8  1  0  0  0
  7 15  1  0  0  0
  7 28  1  0  0  0
  8  9  1  0  0  0
  8 17  1  0  0  0
  8 29  1  0  0  0
  9 10  2  0  0  0
  9 14  1  0  0  0
 10 11  1  0  0  0
 10 30  1  0  0  0
 11 12  2  0  0  0
 11 31  1  0  0  0
 12 13  1  0  0  0
 12 20  1  0  0  0
 13 14  2  0  0  0
 13 32  1  0  0  0
 14 33  1  0  0  0
 15 16  1  0  0  0
 15 34  1  0  0  0
 15 35  1  0  0  0
 16 36  1  0  0  0
 16 37  1  0  0  0
 16 38  1  0  0  0
 17 18  1  0  0  0
 17 39  1  0  0  0
 17 40  1  0  0  0
 18 41  1  0  0  0
 18 42  1  0  0  0
 18 43  1  0  0  0
 19 44  1  0  0  0
 20 21  2  0  0  0
 20 22  1  0  0  0
 22 23  1  0  0  0
 22 45  1  0  0  0
 22 46  1  0  0  0
M  END
>  <Name>
lit-331

>  <Family>
B.2

>  <RBA>
0.440000

>  <RBA_avg>
0.440000

>  <Method>
LUC

>  <set>
0

$$$$
lit-332
  Cerius2 12180216413D 1   1.00000                          
 Structure written by MMmdl.
 44 45  0  0  0  0  0  0  0  0999 V2000
   -7.8540   -5.1775   10.9969 C   0  0  0  0  0  0
   -9.0280   -4.4681   11.2990 C   0  0  0  0  0  0
   -9.9561   -4.1704   10.2985 C   0  0  0  0  0  0
   -9.7164   -4.5788    8.9922 C   0  0  0  0  0  0
   -8.5617   -5.2813    8.6680 C   0  0  0  0  0  0
   -7.6330   -5.5792    9.6686 C   0  0  0  0  0  0
   -6.8217   -5.5177   12.0734 C   0  0  0  0  0  0
   -7.4952   -5.7945   13.4679 C   0  0  0  0  0  0
   -6.7179   -5.1517   14.6187 C   0  0  0  0  0  0
   -5.3220   -4.9940   14.5661 C   0  0  0  0  0  0
   -4.6316   -4.4065   15.6287 C   0  0  0  0  0  0
   -5.3391   -3.9739   16.7514 C   0  0  0  0  0  0
   -6.7239   -4.1208   16.8268 C   0  0  0  0  0  0
   -7.4088   -4.7088   15.7607 C   0  0  0  0  0  0
   -5.7437   -4.4025   12.1576 C   0  0  0  0  0  0
   -4.9755   -4.1995   10.8550 C   0  0  0  0  0  0
   -7.6880   -7.3131   13.7320 C   0  0  0  0  0  0
   -8.4622   -7.6144   15.0118 C   0  0  0  0  0  0
  -10.6458   -4.2697    8.0431 O   0  0  0  0  0  0
   -4.4627   -3.2357   18.0935 S   0  0  0  0  0  0
   -3.9350   -1.9507   17.6494 O   0  0  0  0  0  0
   -3.5890   -4.2427   18.6849 O   0  0  0  0  0  0
   -5.5329   -2.8807   19.2389 F   0  0  0  0  0  0
   -9.2320   -4.1394   12.3169 H   0  0  0  0  0  0
  -10.8613   -3.6205   10.5459 H   0  0  0  0  0  0
   -8.3666   -5.6043    7.6480 H   0  0  0  0  0  0
   -6.7321   -6.1306    9.4014 H   0  0  0  0  0  0
   -6.3049   -6.4373   11.7651 H   0  0  0  0  0  0
   -8.4982   -5.3454   13.4473 H   0  0  0  0  0  0
   -4.7582   -5.3291   13.6965 H   0  0  0  0  0  0
   -3.5510   -4.2916   15.5741 H   0  0  0  0  0  0
   -7.2784   -3.7859   17.7006 H   0  0  0  0  0  0
   -8.4908   -4.8201   15.8283 H   0  0  0  0  0  0
   -5.0043   -4.6544   12.9256 H   0  0  0  0  0  0
   -6.1938   -3.4497   12.4611 H   0  0  0  0  0  0
   -4.1707   -3.4726   11.0058 H   0  0  0  0  0  0
   -5.6199   -3.8159   10.0585 H   0  0  0  0  0  0
   -4.5240   -5.1373   10.5162 H   0  0  0  0  0  0
   -6.7198   -7.8267   13.7690 H   0  0  0  0  0  0
   -8.2488   -7.7677   12.9080 H   0  0  0  0  0  0
   -8.6506   -8.6901   15.0895 H   0  0  0  0  0  0
   -9.4293   -7.1016   15.0146 H   0  0  0  0  0  0
   -7.9059   -7.3128   15.9041 H   0  0  0  0  0  0
  -10.3354   -4.6217    7.1815 H   0  0  0  0  0  0
  1  2  2  0  0  0
  1  6  1  0  0  0
  1  7  1  0  0  0
  2  3  1  0  0  0
  2 24  1  0  0  0
  3  4  2  0  0  0
  3 25  1  0  0  0
  4  5  1  0  0  0
  4 19  1  0  0  0
  5  6  2  0  0  0
  5 26  1  0  0  0
  6 27  1  0  0  0
  7  8  1  0  0  0
  7 15  1  0  0  0
  7 28  1  0  0  0
  8  9  1  0  0  0
  8 17  1  0  0  0
  8 29  1  0  0  0
  9 10  2  0  0  0
  9 14  1  0  0  0
 10 11  1  0  0  0
 10 30  1  0  0  0
 11 12  2  0  0  0
 11 31  1  0  0  0
 12 13  1  0  0  0
 12 20  1  0  0  0
 13 14  2  0  0  0
 13 32  1  0  0  0
 14 33  1  0  0  0
 15 16  1  0  0  0
 15 34  1  0  0  0
 15 35  1  0  0  0
 16 36  1  0  0  0
 16 37  1  0  0  0
 16 38  1  0  0  0
 17 18  1  0  0  0
 17 39  1  0  0  0
 17 40  1  0  0  0
 18 41  1  0  0  0
 18 42  1  0  0  0
 18 43  1  0  0  0
 19 44  1  0  0  0
 20 21  2  0  0  0
 20 22  2  0  0  0
 20 23  1  0  0  0
M  END
>  <Name>
lit-332

>  <Family>
B.2

>  <RBA>
0.330000

>  <RBA_avg>
0.330000

>  <Method>
LUC

>  <set>
1

$$$$
lit-333
  Cerius2 12180216413D 1   1.00000                          
 Structure written by MMmdl.
 42 45  0  0  0  0  0  0  0  0999 V2000
   -7.5609   -5.5466    9.4850 C   0  0  0  0  0  0
   -8.6763   -5.3446    8.6654 C   0  0  0  0  0  0
   -9.8108   -4.6915    9.1632 C   0  0  0  0  0  0
   -9.8649   -4.2262   10.4751 C   0  0  0  0  0  0
   -8.7514   -4.4338   11.2749 C   0  0  0  0  0  0
   -7.6097   -5.0874   10.7928 C   0  0  0  0  0  0
   -8.5403   -4.0384   12.7029 C   0  0  0  0  0  0
   -7.1347   -4.5574   12.9411 C   0  0  0  0  0  0
   -6.5961   -5.1638   11.8553 C   0  0  0  0  0  0
   -5.2818   -5.8150   11.8083 C   0  0  0  0  0  0
   -4.1019   -5.0612   11.8445 C   0  0  0  0  0  0
   -2.8574   -5.6948   11.8018 C   0  0  0  0  0  0
   -2.7928   -7.0812   11.7199 C   0  0  0  0  0  0
   -3.9531   -7.8467   11.6785 C   0  0  0  0  0  0
   -5.1975   -7.2117   11.7214 C   0  0  0  0  0  0
   -6.5323   -4.4393   14.2752 C   0  0  0  0  0  0
   -7.2871   -4.2944   15.4567 C   0  0  0  0  0  0
   -6.6059   -4.2028   16.6883 C   0  0  0  0  0  0
   -5.2124   -4.2353   16.7485 C   0  0  0  0  0  0
   -4.4731   -4.3659   15.5794 C   0  0  0  0  0  0
   -5.1279   -4.4683   14.3523 C   0  0  0  0  0  0
   -1.5603   -7.6636   11.6795 O   0  0  0  0  0  0
  -10.8675   -4.5243    8.3151 O   0  0  0  0  0  0
   -8.7955   -4.2622   15.4599 C   0  0  0  0  0  0
   -9.3450   -3.4993   14.4689 F   0  0  0  0  0  0
   -9.3320   -3.7642   16.6179 F   0  0  0  0  0  0
   -9.3510   -5.5035   15.3200 F   0  0  0  0  0  0
   -6.6812   -6.0516    9.0962 H   0  0  0  0  0  0
   -8.6588   -5.6978    7.6363 H   0  0  0  0  0  0
  -10.7405   -3.7179   10.8671 H   0  0  0  0  0  0
   -9.2641   -4.5351   13.3568 H   0  0  0  0  0  0
   -8.5999   -2.9529   12.8137 H   0  0  0  0  0  0
   -4.1405   -3.9754   11.8993 H   0  0  0  0  0  0
   -1.9462   -5.1018   11.8305 H   0  0  0  0  0  0
   -3.9111   -8.9313   11.6139 H   0  0  0  0  0  0
   -6.1025   -7.8170   11.6921 H   0  0  0  0  0  0
   -7.1655   -4.1020   17.6189 H   0  0  0  0  0  0
   -4.7059   -4.1590   17.7092 H   0  0  0  0  0  0
   -3.3858   -4.3909   15.6200 H   0  0  0  0  0  0
   -4.5293   -4.5745   13.4476 H   0  0  0  0  0  0
   -1.6796   -8.6358   11.6219 H   0  0  0  0  0  0
  -11.5812   -4.0560    8.7989 H   0  0  0  0  0  0
  1  2  2  0  0  0
  1  6  1  0  0  0
  1 28  1  0  0  0
  2  3  1  0  0  0
  2 29  1  0  0  0
  3  4  2  0  0  0
  3 23  1  0  0  0
  4  5  1  0  0  0
  4 30  1  0  0  0
  5  6  2  0  0  0
  5  7  1  0  0  0
  6  9  1  0  0  0
  7  8  1  0  0  0
  7 31  1  0  0  0
  7 32  1  0  0  0
  8  9  2  0  0  0
  8 16  1  0  0  0
  9 10  1  0  0  0
 10 11  2  0  0  0
 10 15  1  0  0  0
 11 12  1  0  0  0
 11 33  1  0  0  0
 12 13  2  0  0  0
 12 34  1  0  0  0
 13 14  1  0  0  0
 13 22  1  0  0  0
 14 15  2  0  0  0
 14 35  1  0  0  0
 15 36  1  0  0  0
 16 17  2  0  0  0
 16 21  1  0  0  0
 17 18  1  0  0  0
 17 24  1  0  0  0
 18 19  2  0  0  0
 18 37  1  0  0  0
 19 20  1  0  0  0
 19 38  1  0  0  0
 20 21  2  0  0  0
 20 39  1  0  0  0
 21 40  1  0  0  0
 22 41  1  0  0  0
 23 42  1  0  0  0
 24 25  1  0  0  0
 24 26  1  0  0  0
 24 27  1  0  0  0
M  END
>  <Name>
lit-333

>  <Family>
C.1

>  <RBA>
38.000000

>  <RBA_avg>
38.000000

>  <Method>
RUC

>  <set>
1

$$$$
lit-334
  Cerius2 12180216413D 1   1.00000                          
 Structure written by MMmdl.
 42 45  0  0  0  0  0  0  0  0999 V2000
   -7.5584   -5.5421    9.4815 C   0  0  0  0  0  0
   -8.6716   -5.3323    8.6606 C   0  0  0  0  0  0
   -9.8068   -4.6827    9.1610 C   0  0  0  0  0  0
   -9.8633   -4.2281   10.4763 C   0  0  0  0  0  0
   -8.7520   -4.4439   11.2773 C   0  0  0  0  0  0
   -7.6097   -5.0962   10.7938 C   0  0  0  0  0  0
   -8.5433   -4.0567   12.7079 C   0  0  0  0  0  0
   -7.1428   -4.5855   12.9477 C   0  0  0  0  0  0
   -6.5976   -5.1803   11.8588 C   0  0  0  0  0  0
   -5.2723   -5.8107   11.8058 C   0  0  0  0  0  0
   -4.1059   -5.0500   11.9633 C   0  0  0  0  0  0
   -2.8501   -5.6601   11.9079 C   0  0  0  0  0  0
   -2.7595   -7.0304   11.6920 C   0  0  0  0  0  0
   -3.9046   -7.8025   11.5293 C   0  0  0  0  0  0
   -5.1604   -7.1908   11.5852 C   0  0  0  0  0  0
   -6.5479   -4.4560   14.2839 C   0  0  0  0  0  0
   -7.3252   -4.3569   15.4554 C   0  0  0  0  0  0
   -6.6763   -4.2663   16.6995 C   0  0  0  0  0  0
   -5.2839   -4.2465   16.7824 C   0  0  0  0  0  0
   -4.5188   -4.3247   15.6239 C   0  0  0  0  0  0
   -5.1469   -4.4306   14.3827 C   0  0  0  0  0  0
   -1.5170   -7.5904   11.6437 O   0  0  0  0  0  0
  -10.8611   -4.5071    8.3117 O   0  0  0  0  0  0
   -8.8302   -4.3809   15.4321 C   0  0  0  0  0  0
   -6.6779   -6.0430    9.0887 H   0  0  0  0  0  0
   -8.6512   -5.6757    7.6282 H   0  0  0  0  0  0
  -10.7387   -3.7212   10.8704 H   0  0  0  0  0  0
   -9.2722   -4.5531   13.3562 H   0  0  0  0  0  0
   -8.5987   -2.9710   12.8242 H   0  0  0  0  0  0
   -4.1654   -3.9757   12.1279 H   0  0  0  0  0  0
   -1.9511   -5.0611   12.0327 H   0  0  0  0  0  0
   -3.8423   -8.8747   11.3599 H   0  0  0  0  0  0
   -6.0528   -7.8027   11.4610 H   0  0  0  0  0  0
   -7.2580   -4.2055   17.6192 H   0  0  0  0  0  0
   -4.7976   -4.1698   17.7532 H   0  0  0  0  0  0
   -3.4323   -4.3081   15.6845 H   0  0  0  0  0  0
   -4.5310   -4.4988   13.4865 H   0  0  0  0  0  0
   -1.6181   -8.5537   11.4874 H   0  0  0  0  0  0
  -11.5756   -4.0421    8.7977 H   0  0  0  0  0  0
   -9.2259   -3.8177   14.5813 H   0  0  0  0  0  0
   -9.2442   -3.9165   16.3339 H   0  0  0  0  0  0
   -9.1884   -5.4135   15.3833 H   0  0  0  0  0  0
  1  2  2  0  0  0
  1  6  1  0  0  0
  1 25  1  0  0  0
  2  3  1  0  0  0
  2 26  1  0  0  0
  3  4  2  0  0  0
  3 23  1  0  0  0
  4  5  1  0  0  0
  4 27  1  0  0  0
  5  6  2  0  0  0
  5  7  1  0  0  0
  6  9  1  0  0  0
  7  8  1  0  0  0
  7 28  1  0  0  0
  7 29  1  0  0  0
  8  9  2  0  0  0
  8 16  1  0  0  0
  9 10  1  0  0  0
 10 11  2  0  0  0
 10 15  1  0  0  0
 11 12  1  0  0  0
 11 30  1  0  0  0
 12 13  2  0  0  0
 12 31  1  0  0  0
 13 14  1  0  0  0
 13 22  1  0  0  0
 14 15  2  0  0  0
 14 32  1  0  0  0
 15 33  1  0  0  0
 16 17  2  0  0  0
 16 21  1  0  0  0
 17 18  1  0  0  0
 17 24  1  0  0  0
 18 19  2  0  0  0
 18 34  1  0  0  0
 19 20  1  0  0  0
 19 35  1  0  0  0
 20 21  2  0  0  0
 20 36  1  0  0  0
 21 37  1  0  0  0
 22 38  1  0  0  0
 23 39  1  0  0  0
 24 40  1  0  0  0
 24 41  1  0  0  0
 24 42  1  0  0  0
M  END
>  <Name>
lit-334

>  <Family>
C.1

>  <RBA>
30.000000

>  <RBA_avg>
30.000000

>  <Method>
RUC

>  <set>
0

$$$$
lit-335
  Cerius2 12180216413D 1   1.00000                          
 Structure written by MMmdl.
 39 42  0  0  0  0  0  0  0  0999 V2000
   -7.5759   -5.5592    9.4841 C   0  0  0  0  0  0
   -8.6916   -5.3450    8.6674 C   0  0  0  0  0  0
   -9.8177   -4.6816    9.1693 C   0  0  0  0  0  0
   -9.8617   -4.2173   10.4814 C   0  0  0  0  0  0
   -8.7478   -4.4385   11.2777 C   0  0  0  0  0  0
   -7.6155   -5.1051   10.7945 C   0  0  0  0  0  0
   -8.5249   -4.0378   12.7013 C   0  0  0  0  0  0
   -7.1318   -4.5919   12.9503 C   0  0  0  0  0  0
   -6.5969   -5.1896   11.8553 C   0  0  0  0  0  0
   -5.2599   -5.7938   11.7683 C   0  0  0  0  0  0
   -4.1078   -5.0133   11.9336 C   0  0  0  0  0  0
   -2.8404   -5.5934   11.8432 C   0  0  0  0  0  0
   -2.7138   -6.9570   11.5836 C   0  0  0  0  0  0
   -3.8531   -7.7416   11.4127 C   0  0  0  0  0  0
   -5.1212   -7.1626   11.5030 C   0  0  0  0  0  0
   -6.5338   -4.4334   14.2846 C   0  0  0  0  0  0
   -7.3491   -4.3084   15.4183 C   0  0  0  0  0  0
   -6.7853   -4.1741   16.6906 C   0  0  0  0  0  0
   -5.4035   -4.1709   16.8351 C   0  0  0  0  0  0
   -4.5748   -4.3022   15.7275 C   0  0  0  0  0  0
   -5.1413   -4.4363   14.4558 C   0  0  0  0  0  0
  -10.8750   -4.5015    8.3248 O   0  0  0  0  0  0
   -4.8902   -4.0385   18.0912 O   0  0  0  0  0  0
   -6.7024   -6.0700    9.0887 H   0  0  0  0  0  0
   -8.6797   -5.6956    7.6374 H   0  0  0  0  0  0
  -10.7291   -3.6978   10.8768 H   0  0  0  0  0  0
   -9.2623   -4.5092   13.3588 H   0  0  0  0  0  0
   -8.5565   -2.9486   12.7997 H   0  0  0  0  0  0
   -4.1891   -3.9459   12.1334 H   0  0  0  0  0  0
   -1.9514   -4.9793   11.9751 H   0  0  0  0  0  0
   -1.7258   -7.4087   11.5133 H   0  0  0  0  0  0
   -3.7555   -8.8065   11.2095 H   0  0  0  0  0  0
   -6.0008   -7.7909   11.3709 H   0  0  0  0  0  0
   -8.4338   -4.2990   15.3264 H   0  0  0  0  0  0
   -7.4303   -4.0715   17.5604 H   0  0  0  0  0  0
   -3.4923   -4.3060   15.8301 H   0  0  0  0  0  0
   -4.4789   -4.5523   13.5993 H   0  0  0  0  0  0
  -11.5821   -4.0264    8.8117 H   0  0  0  0  0  0
   -3.9112   -4.0542   18.0283 H   0  0  0  0  0  0
  1  2  2  0  0  0
  1  6  1  0  0  0
  1 24  1  0  0  0
  2  3  1  0  0  0
  2 25  1  0  0  0
  3  4  2  0  0  0
  3 22  1  0  0  0
  4  5  1  0  0  0
  4 26  1  0  0  0
  5  6  2  0  0  0
  5  7  1  0  0  0
  6  9  1  0  0  0
  7  8  1  0  0  0
  7 27  1  0  0  0
  7 28  1  0  0  0
  8  9  2  0  0  0
  8 16  1  0  0  0
  9 10  1  0  0  0
 10 11  2  0  0  0
 10 15  1  0  0  0
 11 12  1  0  0  0
 11 29  1  0  0  0
 12 13  2  0  0  0
 12 30  1  0  0  0
 13 14  1  0  0  0
 13 31  1  0  0  0
 14 15  2  0  0  0
 14 32  1  0  0  0
 15 33  1  0  0  0
 16 17  2  0  0  0
 16 21  1  0  0  0
 17 18  1  0  0  0
 17 34  1  0  0  0
 18 19  2  0  0  0
 18 35  1  0  0  0
 19 20  1  0  0  0
 19 23  1  0  0  0
 20 21  2  0  0  0
 20 36  1  0  0  0
 21 37  1  0  0  0
 22 38  1  0  0  0
 23 39  1  0  0  0
M  END
>  <Name>
lit-335

>  <Family>
C.1

>  <RBA>
28.000000

>  <RBA_avg>
28.000000

>  <Method>
RUC

>  <set>
0

$$$$
lit-336
  Cerius2 12180216413D 1   1.00000                          
 Structure written by MMmdl.
 40 43  0  0  0  0  0  0  0  0999 V2000
   -7.5755   -5.5588    9.4843 C   0  0  0  0  0  0
   -8.6910   -5.3446    8.6675 C   0  0  0  0  0  0
   -9.8173   -4.6815    9.1693 C   0  0  0  0  0  0
   -9.8618   -4.2175   10.4815 C   0  0  0  0  0  0
   -8.7481   -4.4387   11.2780 C   0  0  0  0  0  0
   -7.6154   -5.1049   10.7948 C   0  0  0  0  0  0
   -8.5258   -4.0385   12.7019 C   0  0  0  0  0  0
   -7.1326   -4.5925   12.9508 C   0  0  0  0  0  0
   -6.5974   -5.1893   11.8558 C   0  0  0  0  0  0
   -5.2601   -5.7926   11.7694 C   0  0  0  0  0  0
   -4.1086   -5.0104   11.9339 C   0  0  0  0  0  0
   -2.8404   -5.5901   11.8440 C   0  0  0  0  0  0
   -2.7226   -6.9511   11.5863 C   0  0  0  0  0  0
   -3.8525   -7.7438   11.4155 C   0  0  0  0  0  0
   -5.1207   -7.1627   11.5058 C   0  0  0  0  0  0
   -6.5343   -4.4343   14.2849 C   0  0  0  0  0  0
   -7.3493   -4.3087   15.4186 C   0  0  0  0  0  0
   -6.7851   -4.1737   16.6907 C   0  0  0  0  0  0
   -5.4033   -4.1706   16.8347 C   0  0  0  0  0  0
   -4.5749   -4.3026   15.7268 C   0  0  0  0  0  0
   -5.1418   -4.4374   14.4554 C   0  0  0  0  0  0
   -1.4688   -7.4814   11.5049 O   0  0  0  0  0  0
  -10.8744   -4.5013    8.3246 O   0  0  0  0  0  0
   -4.8896   -4.0374   18.0906 O   0  0  0  0  0  0
   -6.7018   -6.0692    9.0890 H   0  0  0  0  0  0
   -8.6789   -5.6949    7.6373 H   0  0  0  0  0  0
  -10.7295   -3.6983   10.8768 H   0  0  0  0  0  0
   -9.2630   -4.5106   13.3590 H   0  0  0  0  0  0
   -8.5577   -2.9494   12.8009 H   0  0  0  0  0  0
   -4.1904   -3.9429   12.1322 H   0  0  0  0  0  0
   -1.9532   -4.9751   11.9750 H   0  0  0  0  0  0
   -3.7686   -8.8088   11.2132 H   0  0  0  0  0  0
   -6.0008   -7.7908   11.3749 H   0  0  0  0  0  0
   -8.4341   -4.2992   15.3267 H   0  0  0  0  0  0
   -7.4299   -4.0705   17.5605 H   0  0  0  0  0  0
   -3.4924   -4.3067   15.8293 H   0  0  0  0  0  0
   -4.4796   -4.5542   13.5988 H   0  0  0  0  0  0
   -1.5506   -8.4414   11.3203 H   0  0  0  0  0  0
  -11.5819   -4.0266    8.8114 H   0  0  0  0  0  0
   -3.9106   -4.0530   18.0273 H   0  0  0  0  0  0
  1  2  2  0  0  0
  1  6  1  0  0  0
  1 25  1  0  0  0
  2  3  1  0  0  0
  2 26  1  0  0  0
  3  4  2  0  0  0
  3 23  1  0  0  0
  4  5  1  0  0  0
  4 27  1  0  0  0
  5  6  2  0  0  0
  5  7  1  0  0  0
  6  9  1  0  0  0
  7  8  1  0  0  0
  7 28  1  0  0  0
  7 29  1  0  0  0
  8  9  2  0  0  0
  8 16  1  0  0  0
  9 10  1  0  0  0
 10 11  2  0  0  0
 10 15  1  0  0  0
 11 12  1  0  0  0
 11 30  1  0  0  0
 12 13  2  0  0  0
 12 31  1  0  0  0
 13 14  1  0  0  0
 13 22  1  0  0  0
 14 15  2  0  0  0
 14 32  1  0  0  0
 15 33  1  0  0  0
 16 17  2  0  0  0
 16 21  1  0  0  0
 17 18  1  0  0  0
 17 34  1  0  0  0
 18 19  2  0  0  0
 18 35  1  0  0  0
 19 20  1  0  0  0
 19 24  1  0  0  0
 20 21  2  0  0  0
 20 36  1  0  0  0
 21 37  1  0  0  0
 22 38  1  0  0  0
 23 39  1  0  0  0
 24 40  1  0  0  0
M  END
>  <Name>
lit-336

>  <Family>
C.1

>  <RBA>
15.000000

>  <RBA_avg>
15.000000

>  <Method>
RUC

>  <set>
0

$$$$
lit-337
  Cerius2 12180216413D 1   1.00000                          
 Structure written by MMmdl.
 41 44  0  0  0  0  0  0  0  0999 V2000
   -7.5476   -5.5324    9.4924 C   0  0  0  0  0  0
   -8.6387   -5.3155    8.6448 C   0  0  0  0  0  0
   -9.7872   -4.6754    9.1235 C   0  0  0  0  0  0
   -9.8787   -4.2403   10.4433 C   0  0  0  0  0  0
   -8.7906   -4.4682   11.2759 C   0  0  0  0  0  0
   -7.6343   -5.1068   10.8108 C   0  0  0  0  0  0
   -8.6148   -4.0959   12.7231 C   0  0  0  0  0  0
   -7.2046   -4.6251   12.9865 C   0  0  0  0  0  0
   -6.6392   -5.1949   11.8921 C   0  0  0  0  0  0
   -5.2854   -5.7624   11.8160 C   0  0  0  0  0  0
   -4.1556   -4.9504   11.9826 C   0  0  0  0  0  0
   -2.8727   -5.4971   11.9006 C   0  0  0  0  0  0
   -2.7088   -6.8580   11.6483 C   0  0  0  0  0  0
   -3.8259   -7.6737   11.4764 C   0  0  0  0  0  0
   -5.1093   -7.1284   11.5582 C   0  0  0  0  0  0
   -6.6004   -4.4504   14.3171 C   0  0  0  0  0  0
   -7.4110   -4.3159   15.4524 C   0  0  0  0  0  0
   -6.8423   -4.1682   16.7204 C   0  0  0  0  0  0
   -5.4571   -4.1587   16.8678 C   0  0  0  0  0  0
   -4.6396   -4.2984   15.7486 C   0  0  0  0  0  0
   -5.2081   -4.4462   14.4806 C   0  0  0  0  0  0
  -10.8183   -4.4874    8.2487 O   0  0  0  0  0  0
   -9.6753   -4.7417   13.6117 C   0  0  0  0  0  0
   -6.6542   -6.0215    9.1142 H   0  0  0  0  0  0
   -8.5890   -5.6434    7.6085 H   0  0  0  0  0  0
  -10.7648   -3.7362   10.8170 H   0  0  0  0  0  0
   -8.6408   -3.0039   12.8173 H   0  0  0  0  0  0
   -4.2667   -3.8847   12.1768 H   0  0  0  0  0  0
   -2.0011   -4.8588   12.0335 H   0  0  0  0  0  0
   -1.7087   -7.2835   11.5847 H   0  0  0  0  0  0
   -3.6989   -8.7366   11.2787 H   0  0  0  0  0  0
   -5.9716   -7.7799   11.4246 H   0  0  0  0  0  0
   -8.4962   -4.3121   15.3634 H   0  0  0  0  0  0
   -7.4833   -4.0593   17.5934 H   0  0  0  0  0  0
   -5.0144   -4.0437   17.8556 H   0  0  0  0  0  0
   -3.5569   -4.2955   15.8608 H   0  0  0  0  0  0
   -4.5498   -4.5666   13.6218 H   0  0  0  0  0  0
  -11.5462   -4.0307    8.7223 H   0  0  0  0  0  0
   -9.5192   -4.4829   14.6643 H   0  0  0  0  0  0
   -9.6639   -5.8351   13.5293 H   0  0  0  0  0  0
  -10.6795   -4.4016   13.3354 H   0  0  0  0  0  0
  1  2  2  0  0  0
  1  6  1  0  0  0
  1 24  1  0  0  0
  2  3  1  0  0  0
  2 25  1  0  0  0
  3  4  2  0  0  0
  3 22  1  0  0  0
  4  5  1  0  0  0
  4 26  1  0  0  0
  5  6  2  0  0  0
  5  7  1  0  0  0
  6  9  1  0  0  0
  7  8  1  0  0  0
  7 23  1  0  0  0
  7 27  1  0  0  0
  8  9  2  0  0  0
  8 16  1  0  0  0
  9 10  1  0  0  0
 10 11  2  0  0  0
 10 15  1  0  0  0
 11 12  1  0  0  0
 11 28  1  0  0  0
 12 13  2  0  0  0
 12 29  1  0  0  0
 13 14  1  0  0  0
 13 30  1  0  0  0
 14 15  2  0  0  0
 14 31  1  0  0  0
 15 32  1  0  0  0
 16 17  2  0  0  0
 16 21  1  0  0  0
 17 18  1  0  0  0
 17 33  1  0  0  0
 18 19  2  0  0  0
 18 34  1  0  0  0
 19 20  1  0  0  0
 19 35  1  0  0  0
 20 21  2  0  0  0
 20 36  1  0  0  0
 21 37  1  0  0  0
 22 38  1  0  0  0
 23 39  1  0  0  0
 23 40  1  0  0  0
 23 41  1  0  0  0
M  END
>  <Name>
lit-337

>  <Family>
C.1

>  <RBA>
12.000000

>  <RBA_avg>
12.000000

>  <Method>
RUC

>  <set>
0

$$$$
lit-338
  Cerius2 12180216413D 1   1.00000                          
 Structure written by MMmdl.
 38 41  0  0  0  0  0  0  0  0999 V2000
   -7.5556   -5.5461    9.4834 C   0  0  0  0  0  0
   -8.6622   -5.3362    8.6534 C   0  0  0  0  0  0
   -9.7998   -4.6841    9.1437 C   0  0  0  0  0  0
   -9.8645   -4.2268   10.4575 C   0  0  0  0  0  0
   -8.7593   -4.4434   11.2670 C   0  0  0  0  0  0
   -7.6157   -5.0989   10.7955 C   0  0  0  0  0  0
   -8.5583   -4.0482   12.6955 C   0  0  0  0  0  0
   -7.1642   -4.5931   12.9601 C   0  0  0  0  0  0
   -6.6104   -5.1810   11.8693 C   0  0  0  0  0  0
   -5.2678   -5.7749   11.7963 C   0  0  0  0  0  0
   -4.1239   -4.9870   11.9819 C   0  0  0  0  0  0
   -2.8509   -5.5569   11.9033 C   0  0  0  0  0  0
   -2.7107   -6.9175   11.6354 C   0  0  0  0  0  0
   -3.8417   -7.7094   11.4448 C   0  0  0  0  0  0
   -5.1152   -7.1407   11.5232 C   0  0  0  0  0  0
   -6.5861   -4.4368   14.3035 C   0  0  0  0  0  0
   -7.4175   -4.3137   15.4252 C   0  0  0  0  0  0
   -6.8732   -4.1829   16.7060 C   0  0  0  0  0  0
   -5.4914   -4.1806   16.8811 C   0  0  0  0  0  0
   -4.6530   -4.3109   15.7766 C   0  0  0  0  0  0
   -5.1973   -4.4414   14.4960 C   0  0  0  0  0  0
  -10.8474   -4.5078    8.2865 O   0  0  0  0  0  0
   -6.6730   -6.0479    9.0969 H   0  0  0  0  0  0
   -8.6341   -5.6815    7.6218 H   0  0  0  0  0  0
  -10.7411   -3.7159   10.8441 H   0  0  0  0  0  0
   -9.3005   -4.5286   13.3409 H   0  0  0  0  0  0
   -8.5996   -2.9598   12.7987 H   0  0  0  0  0  0
   -4.2159   -3.9217   12.1884 H   0  0  0  0  0  0
   -1.9685   -4.9370   12.0510 H   0  0  0  0  0  0
   -1.7185   -7.3612   11.5745 H   0  0  0  0  0  0
   -3.7334   -8.7721   11.2353 H   0  0  0  0  0  0
   -5.9884   -7.7746   11.3754 H   0  0  0  0  0  0
   -8.5009   -4.3030   15.3167 H   0  0  0  0  0  0
   -7.5312   -4.0816   17.5674 H   0  0  0  0  0  0
   -5.0679   -4.0789   17.8787 H   0  0  0  0  0  0
   -3.5727   -4.3144   15.9098 H   0  0  0  0  0  0
   -4.5213   -4.5558   13.6501 H   0  0  0  0  0  0
  -11.5646   -4.0409    8.7665 H   0  0  0  0  0  0
  1  2  2  0  0  0
  1  6  1  0  0  0
  1 23  1  0  0  0
  2  3  1  0  0  0
  2 24  1  0  0  0
  3  4  2  0  0  0
  3 22  1  0  0  0
  4  5  1  0  0  0
  4 25  1  0  0  0
  5  6  2  0  0  0
  5  7  1  0  0  0
  6  9  1  0  0  0
  7  8  1  0  0  0
  7 26  1  0  0  0
  7 27  1  0  0  0
  8  9  2  0  0  0
  8 16  1  0  0  0
  9 10  1  0  0  0
 10 11  2  0  0  0
 10 15  1  0  0  0
 11 12  1  0  0  0
 11 28  1  0  0  0
 12 13  2  0  0  0
 12 29  1  0  0  0
 13 14  1  0  0  0
 13 30  1  0  0  0
 14 15  2  0  0  0
 14 31  1  0  0  0
 15 32  1  0  0  0
 16 17  2  0  0  0
 16 21  1  0  0  0
 17 18  1  0  0  0
 17 33  1  0  0  0
 18 19  2  0  0  0
 18 34  1  0  0  0
 19 20  1  0  0  0
 19 35  1  0  0  0
 20 21  2  0  0  0
 20 36  1  0  0  0
 21 37  1  0  0  0
 22 38  1  0  0  0
M  END
>  <Name>
lit-338

>  <Family>
C.1

>  <RBA>
8.900000

>  <RBA_avg>
8.900000

>  <Method>
RUC

>  <set>
0

$$$$
lit-339
  Cerius2 12180216413D 1   1.00000                          
 Structure written by MMmdl.
 39 42  0  0  0  0  0  0  0  0999 V2000
   -7.5552   -5.5457    9.4837 C   0  0  0  0  0  0
   -8.6617   -5.3362    8.6536 C   0  0  0  0  0  0
   -9.7996   -4.6842    9.1438 C   0  0  0  0  0  0
   -9.8645   -4.2268   10.4575 C   0  0  0  0  0  0
   -8.7595   -4.4433   11.2673 C   0  0  0  0  0  0
   -7.6157   -5.0985   10.7957 C   0  0  0  0  0  0
   -8.5588   -4.0483   12.6957 C   0  0  0  0  0  0
   -7.1649   -4.5930   12.9604 C   0  0  0  0  0  0
   -6.6108   -5.1806   11.8696 C   0  0  0  0  0  0
   -5.2680   -5.7738   11.7976 C   0  0  0  0  0  0
   -4.1244   -4.9843   11.9823 C   0  0  0  0  0  0
   -2.8510   -5.5542   11.9051 C   0  0  0  0  0  0
   -2.7198   -6.9125   11.6399 C   0  0  0  0  0  0
   -3.8416   -7.7122   11.4493 C   0  0  0  0  0  0
   -5.1151   -7.1410   11.5268 C   0  0  0  0  0  0
   -6.5864   -4.4374   14.3037 C   0  0  0  0  0  0
   -7.4176   -4.3137   15.4254 C   0  0  0  0  0  0
   -6.8729   -4.1827   16.7060 C   0  0  0  0  0  0
   -5.4911   -4.1803   16.8806 C   0  0  0  0  0  0
   -4.6530   -4.3112   15.7759 C   0  0  0  0  0  0
   -5.1976   -4.4421   14.4956 C   0  0  0  0  0  0
  -10.8471   -4.5082    8.2863 O   0  0  0  0  0  0
   -1.4613   -7.4331   11.5715 O   0  0  0  0  0  0
   -6.6726   -6.0476    9.0973 H   0  0  0  0  0  0
   -8.6336   -5.6815    7.6220 H   0  0  0  0  0  0
  -10.7413   -3.7162   10.8439 H   0  0  0  0  0  0
   -9.3011   -4.5286   13.3410 H   0  0  0  0  0  0
   -8.5999   -2.9598   12.7992 H   0  0  0  0  0  0
   -4.2167   -3.9189   12.1868 H   0  0  0  0  0  0
   -1.9701   -4.9337   12.0519 H   0  0  0  0  0  0
   -3.7472   -8.7754   11.2413 H   0  0  0  0  0  0
   -5.9888   -7.7746   11.3801 H   0  0  0  0  0  0
   -8.5010   -4.3031   15.3171 H   0  0  0  0  0  0
   -7.5306   -4.0808   17.5675 H   0  0  0  0  0  0
   -5.0671   -4.0783   17.8780 H   0  0  0  0  0  0
   -3.5726   -4.3150   15.9089 H   0  0  0  0  0  0
   -4.5218   -4.5574   13.6495 H   0  0  0  0  0  0
  -11.5646   -4.0416    8.7663 H   0  0  0  0  0  0
   -1.5335   -8.3925   11.3790 H   0  0  0  0  0  0
  1  2  2  0  0  0
  1  6  1  0  0  0
  1 24  1  0  0  0
  2  3  1  0  0  0
  2 25  1  0  0  0
  3  4  2  0  0  0
  3 22  1  0  0  0
  4  5  1  0  0  0
  4 26  1  0  0  0
  5  6  2  0  0  0
  5  7  1  0  0  0
  6  9  1  0  0  0
  7  8  1  0  0  0
  7 27  1  0  0  0
  7 28  1  0  0  0
  8  9  2  0  0  0
  8 16  1  0  0  0
  9 10  1  0  0  0
 10 11  2  0  0  0
 10 15  1  0  0  0
 11 12  1  0  0  0
 11 29  1  0  0  0
 12 13  2  0  0  0
 12 30  1  0  0  0
 13 14  1  0  0  0
 13 23  1  0  0  0
 14 15  2  0  0  0
 14 31  1  0  0  0
 15 32  1  0  0  0
 16 17  2  0  0  0
 16 21  1  0  0  0
 17 18  1  0  0  0
 17 33  1  0  0  0
 18 19  2  0  0  0
 18 34  1  0  0  0
 19 20  1  0  0  0
 19 35  1  0  0  0
 20 21  2  0  0  0
 20 36  1  0  0  0
 21 37  1  0  0  0
 22 38  1  0  0  0
 23 39  1  0  0  0
M  END
>  <Name>
lit-339

>  <Family>
C.1

>  <RBA>
4.700000

>  <RBA_avg>
4.700000

>  <Method>
RUC

>  <set>
0

$$$$
lit-340
  Cerius2 12180216413D 1   1.00000                          
 Structure written by MMmdl.
 40 43  0  0  0  0  0  0  0  0999 V2000
   -7.5542   -5.5441    9.4839 C   0  0  0  0  0  0
   -8.6601   -5.3343    8.6530 C   0  0  0  0  0  0
   -9.7989   -4.6837    9.1430 C   0  0  0  0  0  0
   -9.8654   -4.2279   10.4572 C   0  0  0  0  0  0
   -8.7610   -4.4445   11.2677 C   0  0  0  0  0  0
   -7.6162   -5.0984   10.7962 C   0  0  0  0  0  0
   -8.5620   -4.0513   12.6970 C   0  0  0  0  0  0
   -7.1680   -4.5952   12.9617 C   0  0  0  0  0  0
   -6.6122   -5.1806   11.8708 C   0  0  0  0  0  0
   -5.2686   -5.7715   11.8008 C   0  0  0  0  0  0
   -4.1267   -4.9807   11.9904 C   0  0  0  0  0  0
   -2.8522   -5.5487   11.9179 C   0  0  0  0  0  0
   -2.7183   -6.9066   11.6520 C   0  0  0  0  0  0
   -3.8383   -7.7076   11.4563 C   0  0  0  0  0  0
   -5.1129   -7.1382   11.5294 C   0  0  0  0  0  0
   -6.5884   -4.4410   14.3037 C   0  0  0  0  0  0
   -7.4185   -4.3147   15.4254 C   0  0  0  0  0  0
   -6.8724   -4.1797   16.7070 C   0  0  0  0  0  0
   -5.4863   -4.1759   16.8848 C   0  0  0  0  0  0
   -4.6509   -4.3110   15.7730 C   0  0  0  0  0  0
   -5.1995   -4.4456   14.4928 C   0  0  0  0  0  0
  -10.8457   -4.5073    8.2848 O   0  0  0  0  0  0
   -1.4588   -7.4255   11.5879 O   0  0  0  0  0  0
   -4.9257   -4.0370   18.1982 C   0  0  0  0  0  0
   -4.4711   -3.9246   19.2641 N   0  0  0  0  0  0
   -6.6710   -6.0449    9.0977 H   0  0  0  0  0  0
   -8.6309   -5.6784    7.6211 H   0  0  0  0  0  0
  -10.7428   -3.7184   10.8434 H   0  0  0  0  0  0
   -9.3043   -4.5335   13.3410 H   0  0  0  0  0  0
   -8.6042   -2.9631   12.8025 H   0  0  0  0  0  0
   -4.2210   -3.9154   12.1951 H   0  0  0  0  0  0
   -1.9728   -4.9271   12.0683 H   0  0  0  0  0  0
   -3.7417   -8.7705   11.2477 H   0  0  0  0  0  0
   -5.9851   -7.7729   11.3793 H   0  0  0  0  0  0
   -8.5020   -4.3038   15.3178 H   0  0  0  0  0  0
   -7.5403   -4.0760   17.5609 H   0  0  0  0  0  0
   -3.5683   -4.3158   15.8905 H   0  0  0  0  0  0
   -4.5254   -4.5627   13.6456 H   0  0  0  0  0  0
  -11.5636   -4.0411    8.7644 H   0  0  0  0  0  0
   -1.5291   -8.3848   11.3946 H   0  0  0  0  0  0
  1  2  2  0  0  0
  1  6  1  0  0  0
  1 26  1  0  0  0
  2  3  1  0  0  0
  2 27  1  0  0  0
  3  4  2  0  0  0
  3 22  1  0  0  0
  4  5  1  0  0  0
  4 28  1  0  0  0
  5  6  2  0  0  0
  5  7  1  0  0  0
  6  9  1  0  0  0
  7  8  1  0  0  0
  7 29  1  0  0  0
  7 30  1  0  0  0
  8  9  2  0  0  0
  8 16  1  0  0  0
  9 10  1  0  0  0
 10 11  2  0  0  0
 10 15  1  0  0  0
 11 12  1  0  0  0
 11 31  1  0  0  0
 12 13  2  0  0  0
 12 32  1  0  0  0
 13 14  1  0  0  0
 13 23  1  0  0  0
 14 15  2  0  0  0
 14 33  1  0  0  0
 15 34  1  0  0  0
 16 17  2  0  0  0
 16 21  1  0  0  0
 17 18  1  0  0  0
 17 35  1  0  0  0
 18 19  2  0  0  0
 18 36  1  0  0  0
 19 20  1  0  0  0
 19 24  1  0  0  0
 20 21  2  0  0  0
 20 37  1  0  0  0
 21 38  1  0  0  0
 22 39  1  0  0  0
 23 40  1  0  0  0
 24 25  3  0  0  0
M  END
>  <Name>
lit-340

>  <Family>
C.1

>  <RBA>
1.000000

>  <RBA_avg>
1.000000

>  <Method>
RUC

>  <set>
1

$$$$
lit-341
  Cerius2 12180216413D 1   1.00000                          
 Structure written by MMmdl.
 39 42  0  0  0  0  0  0  0  0999 V2000
   -7.5538   -5.5440    9.4846 C   0  0  0  0  0  0
   -8.6596   -5.3339    8.6537 C   0  0  0  0  0  0
   -9.7984   -4.6833    9.1438 C   0  0  0  0  0  0
   -9.8650   -4.2280   10.4581 C   0  0  0  0  0  0
   -8.7607   -4.4447   11.2686 C   0  0  0  0  0  0
   -7.6159   -5.0986   10.7970 C   0  0  0  0  0  0
   -8.5615   -4.0517   12.6979 C   0  0  0  0  0  0
   -7.1675   -4.5956   12.9625 C   0  0  0  0  0  0
   -6.6119   -5.1811   11.8716 C   0  0  0  0  0  0
   -5.2685   -5.7728   11.8015 C   0  0  0  0  0  0
   -4.1262   -4.9825   11.9903 C   0  0  0  0  0  0
   -2.8520   -5.5513   11.9174 C   0  0  0  0  0  0
   -2.7189   -6.9095   11.6522 C   0  0  0  0  0  0
   -3.8394   -7.7100   11.4574 C   0  0  0  0  0  0
   -5.1137   -7.1397   11.5307 C   0  0  0  0  0  0
   -6.5879   -4.4410   14.3047 C   0  0  0  0  0  0
   -7.4186   -4.3146   15.4267 C   0  0  0  0  0  0
   -6.8735   -4.1794   16.7075 C   0  0  0  0  0  0
   -5.4910   -4.1766   16.8742 C   0  0  0  0  0  0
   -4.6500   -4.3107   15.7729 C   0  0  0  0  0  0
   -5.1984   -4.4456   14.4937 C   0  0  0  0  0  0
  -10.8452   -4.5068    8.2855 O   0  0  0  0  0  0
   -1.4597   -7.4292   11.5879 O   0  0  0  0  0  0
   -4.7526   -3.9933   18.6047 Br  0  0  0  0  0  0
   -6.6705   -6.0446    9.0984 H   0  0  0  0  0  0
   -8.6303   -5.6776    7.6216 H   0  0  0  0  0  0
  -10.7425   -3.7184   10.8443 H   0  0  0  0  0  0
   -9.3039   -4.5339   13.3419 H   0  0  0  0  0  0
   -8.6038   -2.9634   12.8034 H   0  0  0  0  0  0
   -4.2199   -3.9171   12.1947 H   0  0  0  0  0  0
   -1.9722   -4.9301   12.0673 H   0  0  0  0  0  0
   -3.7436   -8.7729   11.2493 H   0  0  0  0  0  0
   -5.9863   -7.7740   11.3812 H   0  0  0  0  0  0
   -8.5021   -4.3040   15.3186 H   0  0  0  0  0  0
   -7.5388   -4.0757   17.5619 H   0  0  0  0  0  0
   -3.5689   -4.3149   15.8928 H   0  0  0  0  0  0
   -4.5246   -4.5626   13.6463 H   0  0  0  0  0  0
  -11.5634   -4.0413    8.7654 H   0  0  0  0  0  0
   -1.5307   -8.3884   11.3949 H   0  0  0  0  0  0
  1  2  2  0  0  0
  1  6  1  0  0  0
  1 25  1  0  0  0
  2  3  1  0  0  0
  2 26  1  0  0  0
  3  4  2  0  0  0
  3 22  1  0  0  0
  4  5  1  0  0  0
  4 27  1  0  0  0
  5  6  2  0  0  0
  5  7  1  0  0  0
  6  9  1  0  0  0
  7  8  1  0  0  0
  7 28  1  0  0  0
  7 29  1  0  0  0
  8  9  2  0  0  0
  8 16  1  0  0  0
  9 10  1  0  0  0
 10 11  2  0  0  0
 10 15  1  0  0  0
 11 12  1  0  0  0
 11 30  1  0  0  0
 12 13  2  0  0  0
 12 31  1  0  0  0
 13 14  1  0  0  0
 13 23  1  0  0  0
 14 15  2  0  0  0
 14 32  1  0  0  0
 15 33  1  0  0  0
 16 17  2  0  0  0
 16 21  1  0  0  0
 17 18  1  0  0  0
 17 34  1  0  0  0
 18 19  2  0  0  0
 18 35  1  0  0  0
 19 20  1  0  0  0
 19 24  1  0  0  0
 20 21  2  0  0  0
 20 36  1  0  0  0
 21 37  1  0  0  0
 22 38  1  0  0  0
 23 39  1  0  0  0
M  END
>  <Name>
lit-341

>  <Family>
C.1

>  <RBA>
0.760000

>  <RBA_avg>
0.760000

>  <Method>
RUC

>  <set>
1

$$$$
lit-342
  Cerius2 12180216413D 1   1.00000                          
 Structure written by MMmdl.
 41 44  0  0  0  0  0  0  0  0999 V2000
   -7.5537   -5.5439    9.4849 C   0  0  0  0  0  0
   -8.6597   -5.3347    8.6539 C   0  0  0  0  0  0
   -9.7985   -4.6840    9.1437 C   0  0  0  0  0  0
   -9.8650   -4.2276   10.4576 C   0  0  0  0  0  0
   -8.7606   -4.4437   11.2682 C   0  0  0  0  0  0
   -7.6158   -5.0977   10.7970 C   0  0  0  0  0  0
   -8.5618   -4.0502   12.6974 C   0  0  0  0  0  0
   -7.1679   -4.5942   12.9623 C   0  0  0  0  0  0
   -6.6119   -5.1797   11.8716 C   0  0  0  0  0  0
   -5.2685   -5.7714   11.8024 C   0  0  0  0  0  0
   -4.1263   -4.9812   11.9933 C   0  0  0  0  0  0
   -2.8522   -5.5502   11.9213 C   0  0  0  0  0  0
   -2.7190   -6.9081   11.6551 C   0  0  0  0  0  0
   -3.8392   -7.7083   11.4584 C   0  0  0  0  0  0
   -5.1136   -7.1380   11.5309 C   0  0  0  0  0  0
   -6.5884   -4.4408   14.3047 C   0  0  0  0  0  0
   -7.4207   -4.3144   15.4263 C   0  0  0  0  0  0
   -6.8784   -4.1796   16.7098 C   0  0  0  0  0  0
   -5.4890   -4.1773   16.8777 C   0  0  0  0  0  0
   -4.6446   -4.3119   15.7702 C   0  0  0  0  0  0
   -5.1978   -4.4461   14.4916 C   0  0  0  0  0  0
  -10.8454   -4.5084    8.2854 O   0  0  0  0  0  0
   -1.4597   -7.4278   11.5918 O   0  0  0  0  0  0
   -4.9151   -4.0356   18.2218 N   0  3  0  0  0  0
   -3.6746   -4.0305   18.3380 O   0  0  0  0  0  0
   -5.6929   -3.9265   19.1889 O   0  5  0  0  0  0
   -6.6704   -6.0447    9.0989 H   0  0  0  0  0  0
   -8.6305   -5.6793    7.6222 H   0  0  0  0  0  0
  -10.7425   -3.7179   10.8437 H   0  0  0  0  0  0
   -9.3043   -4.5322   13.3415 H   0  0  0  0  0  0
   -8.6038   -2.9620   12.8028 H   0  0  0  0  0  0
   -4.2201   -3.9160   12.1980 H   0  0  0  0  0  0
   -1.9725   -4.9291   12.0727 H   0  0  0  0  0  0
   -3.7433   -8.7711   11.2494 H   0  0  0  0  0  0
   -5.9861   -7.7722   11.3800 H   0  0  0  0  0  0
   -8.5042   -4.3036   15.3160 H   0  0  0  0  0  0
   -7.5524   -4.0767   17.5573 H   0  0  0  0  0  0
   -3.5625   -4.3181   15.8784 H   0  0  0  0  0  0
   -4.5261   -4.5635   13.6424 H   0  0  0  0  0  0
  -11.5637   -4.0425    8.7649 H   0  0  0  0  0  0
   -1.5304   -8.3869   11.3980 H   0  0  0  0  0  0
  1  2  2  0  0  0
  1  6  1  0  0  0
  1 27  1  0  0  0
  2  3  1  0  0  0
  2 28  1  0  0  0
  3  4  2  0  0  0
  3 22  1  0  0  0
  4  5  1  0  0  0
  4 29  1  0  0  0
  5  6  2  0  0  0
  5  7  1  0  0  0
  6  9  1  0  0  0
  7  8  1  0  0  0
  7 30  1  0  0  0
  7 31  1  0  0  0
  8  9  2  0  0  0
  8 16  1  0  0  0
  9 10  1  0  0  0
 10 11  2  0  0  0
 10 15  1  0  0  0
 11 12  1  0  0  0
 11 32  1  0  0  0
 12 13  2  0  0  0
 12 33  1  0  0  0
 13 14  1  0  0  0
 13 23  1  0  0  0
 14 15  2  0  0  0
 14 34  1  0  0  0
 15 35  1  0  0  0
 16 17  2  0  0  0
 16 21  1  0  0  0
 17 18  1  0  0  0
 17 36  1  0  0  0
 18 19  2  0  0  0
 18 37  1  0  0  0
 19 20  1  0  0  0
 19 24  1  0  0  0
 20 21  2  0  0  0
 20 38  1  0  0  0
 21 39  1  0  0  0
 22 40  1  0  0  0
 23 41  1  0  0  0
 24 25  2  0  0  0
 24 26  1  0  0  0
M  CHG  2  24   1  26  -1
M  END
>  <Name>
lit-342

>  <Family>
C.1

>  <RBA>
0.690000

>  <RBA_avg>
0.690000

>  <Method>
RUC

>  <set>
2

$$$$
lit-343
  Cerius2 12180216413D 1   1.00000                          
 Structure written by MMmdl.
 40 43  0  0  0  0  0  0  0  0999 V2000
   -7.5540   -5.5440    9.4844 C   0  0  0  0  0  0
   -8.6601   -5.3344    8.6535 C   0  0  0  0  0  0
   -9.7987   -4.6838    9.1436 C   0  0  0  0  0  0
   -9.8651   -4.2277   10.4577 C   0  0  0  0  0  0
   -8.7605   -4.4441   11.2681 C   0  0  0  0  0  0
   -7.6158   -5.0981   10.7967 C   0  0  0  0  0  0
   -8.5614   -4.0505   12.6972 C   0  0  0  0  0  0
   -7.1674   -4.5946   12.9621 C   0  0  0  0  0  0
   -6.6118   -5.1803   11.8713 C   0  0  0  0  0  0
   -5.2685   -5.7728   11.8014 C   0  0  0  0  0  0
   -4.1261   -4.9840   11.9926 C   0  0  0  0  0  0
   -2.8524   -5.5533   11.9206 C   0  0  0  0  0  0
   -2.7102   -6.9137   11.6536 C   0  0  0  0  0  0
   -3.8397   -7.7063   11.4571 C   0  0  0  0  0  0
   -5.1139   -7.1384   11.5290 C   0  0  0  0  0  0
   -6.5880   -4.4408   14.3046 C   0  0  0  0  0  0
   -7.4205   -4.3145   15.4262 C   0  0  0  0  0  0
   -6.8786   -4.1794   16.7099 C   0  0  0  0  0  0
   -5.4893   -4.1768   16.8782 C   0  0  0  0  0  0
   -4.6446   -4.3115   15.7709 C   0  0  0  0  0  0
   -5.1975   -4.4460   14.4923 C   0  0  0  0  0  0
  -10.8457   -4.5078    8.2855 O   0  0  0  0  0  0
   -4.9156   -4.0347   18.2223 N   0  3  0  0  0  0
   -3.6753   -4.0314   18.3392 O   0  0  0  0  0  0
   -5.6938   -3.9236   19.1889 O   0  5  0  0  0  0
   -6.6707   -6.0448    9.0983 H   0  0  0  0  0  0
   -8.6308   -5.6787    7.6217 H   0  0  0  0  0  0
  -10.7426   -3.7182   10.8439 H   0  0  0  0  0  0
   -9.3038   -4.5323   13.3413 H   0  0  0  0  0  0
   -8.6034   -2.9623   12.8023 H   0  0  0  0  0  0
   -4.2194   -3.9187   12.1980 H   0  0  0  0  0  0
   -1.9711   -4.9328   12.0725 H   0  0  0  0  0  0
   -1.7174   -7.3569   11.5979 H   0  0  0  0  0  0
   -3.7298   -8.7689   11.2482 H   0  0  0  0  0  0
   -5.9859   -7.7730   11.3773 H   0  0  0  0  0  0
   -8.5039   -4.3035   15.3158 H   0  0  0  0  0  0
   -7.5528   -4.0763   17.5571 H   0  0  0  0  0  0
   -3.5625   -4.3173   15.8794 H   0  0  0  0  0  0
   -4.5253   -4.5630   13.6431 H   0  0  0  0  0  0
  -11.5640   -4.0423    8.7653 H   0  0  0  0  0  0
  1  2  2  0  0  0
  1  6  1  0  0  0
  1 26  1  0  0  0
  2  3  1  0  0  0
  2 27  1  0  0  0
  3  4  2  0  0  0
  3 22  1  0  0  0
  4  5  1  0  0  0
  4 28  1  0  0  0
  5  6  2  0  0  0
  5  7  1  0  0  0
  6  9  1  0  0  0
  7  8  1  0  0  0
  7 29  1  0  0  0
  7 30  1  0  0  0
  8  9  2  0  0  0
  8 16  1  0  0  0
  9 10  1  0  0  0
 10 11  2  0  0  0
 10 15  1  0  0  0
 11 12  1  0  0  0
 11 31  1  0  0  0
 12 13  2  0  0  0
 12 32  1  0  0  0
 13 14  1  0  0  0
 13 33  1  0  0  0
 14 15  2  0  0  0
 14 34  1  0  0  0
 15 35  1  0  0  0
 16 17  2  0  0  0
 16 21  1  0  0  0
 17 18  1  0  0  0
 17 36  1  0  0  0
 18 19  2  0  0  0
 18 37  1  0  0  0
 19 20  1  0  0  0
 19 23  1  0  0  0
 20 21  2  0  0  0
 20 38  1  0  0  0
 21 39  1  0  0  0
 22 40  1  0  0  0
 23 24  2  0  0  0
 23 25  1  0  0  0
M  CHG  2  23   1  25  -1
M  END
>  <Name>
lit-343

>  <Family>
C.1

>  <RBA>
0.460000

>  <RBA_avg>
0.460000

>  <Method>
RUC

>  <set>
0

$$$$
lit-344
  Cerius2 12180216413D 1   1.00000                          
 Structure written by MMmdl.
 41 44  0  0  0  0  0  0  0  0999 V2000
   -7.5518   -5.5423    9.4861 C   0  0  0  0  0  0
   -8.6562   -5.3336    8.6530 C   0  0  0  0  0  0
   -9.7968   -4.6844    9.1409 C   0  0  0  0  0  0
   -9.8666   -4.2291   10.4552 C   0  0  0  0  0  0
   -8.7637   -4.4446   11.2678 C   0  0  0  0  0  0
   -7.6172   -5.0969   10.7983 C   0  0  0  0  0  0
   -8.5684   -4.0524   12.6980 C   0  0  0  0  0  0
   -7.1738   -4.5940   12.9645 C   0  0  0  0  0  0
   -6.6154   -5.1785   11.8747 C   0  0  0  0  0  0
   -5.2718   -5.7697   11.8089 C   0  0  0  0  0  0
   -4.1301   -4.9781   11.9965 C   0  0  0  0  0  0
   -2.8558   -5.5469   11.9282 C   0  0  0  0  0  0
   -2.7219   -6.9062   11.6688 C   0  0  0  0  0  0
   -3.8417   -7.7078   11.4753 C   0  0  0  0  0  0
   -5.1162   -7.1376   11.5441 C   0  0  0  0  0  0
   -6.5951   -4.4415   14.3075 C   0  0  0  0  0  0
   -7.4268   -4.3141   15.4288 C   0  0  0  0  0  0
   -6.8647   -4.1793   16.7077 C   0  0  0  0  0  0
   -5.4755   -4.1773   16.8807 C   0  0  0  0  0  0
   -4.6475   -4.3127   15.7673 C   0  0  0  0  0  0
   -5.2040   -4.4463   14.4922 C   0  0  0  0  0  0
  -10.8422   -4.5093    8.2806 O   0  0  0  0  0  0
   -1.4624   -7.4257   11.6091 O   0  0  0  0  0  0
   -7.7423   -4.0380   17.8762 N   0  3  0  0  0  0
   -7.2198   -3.8186   18.9857 O   0  0  0  0  0  0
   -8.9722   -4.1441   17.7087 O   0  5  0  0  0  0
   -6.6671   -6.0421    9.1017 H   0  0  0  0  0  0
   -8.6246   -5.6775    7.6211 H   0  0  0  0  0  0
  -10.7456   -3.7210   10.8397 H   0  0  0  0  0  0
   -9.3109   -4.5368   13.3401 H   0  0  0  0  0  0
   -8.6124   -2.9645   12.8053 H   0  0  0  0  0  0
   -4.2244   -3.9118   12.1956 H   0  0  0  0  0  0
   -1.9763   -4.9249   12.0769 H   0  0  0  0  0  0
   -3.7452   -8.7715   11.2717 H   0  0  0  0  0  0
   -5.9885   -7.7727   11.3956 H   0  0  0  0  0  0
   -8.5071   -4.3028   15.3016 H   0  0  0  0  0  0
   -5.0252   -4.0756   17.8654 H   0  0  0  0  0  0
   -3.5659   -4.3173   15.8901 H   0  0  0  0  0  0
   -4.5344   -4.5629   13.6407 H   0  0  0  0  0  0
  -11.5618   -4.0446    8.7591 H   0  0  0  0  0  0
   -1.5327   -8.3859   11.4204 H   0  0  0  0  0  0
  1  2  2  0  0  0
  1  6  1  0  0  0
  1 27  1  0  0  0
  2  3  1  0  0  0
  2 28  1  0  0  0
  3  4  2  0  0  0
  3 22  1  0  0  0
  4  5  1  0  0  0
  4 29  1  0  0  0
  5  6  2  0  0  0
  5  7  1  0  0  0
  6  9  1  0  0  0
  7  8  1  0  0  0
  7 30  1  0  0  0
  7 31  1  0  0  0
  8  9  2  0  0  0
  8 16  1  0  0  0
  9 10  1  0  0  0
 10 11  2  0  0  0
 10 15  1  0  0  0
 11 12  1  0  0  0
 11 32  1  0  0  0
 12 13  2  0  0  0
 12 33  1  0  0  0
 13 14  1  0  0  0
 13 23  1  0  0  0
 14 15  2  0  0  0
 14 34  1  0  0  0
 15 35  1  0  0  0
 16 17  2  0  0  0
 16 21  1  0  0  0
 17 18  1  0  0  0
 17 36  1  0  0  0
 18 19  2  0  0  0
 18 24  1  0  0  0
 19 20  1  0  0  0
 19 37  1  0  0  0
 20 21  2  0  0  0
 20 38  1  0  0  0
 21 39  1  0  0  0
 22 40  1  0  0  0
 23 41  1  0  0  0
 24 25  2  0  0  0
 24 26  1  0  0  0
M  CHG  2  24   1  26  -1
M  END
>  <Name>
lit-344

>  <Family>
C.1

>  <RBA>
0.600000

>  <RBA_avg>
0.600000

>  <Method>
RUC

>  <set>
0

$$$$
lit-345
  Cerius2 12180216413D 1   1.00000                          
 Structure written by MMmdl.
 38 40  0  0  0  0  0  0  0  0999 V2000
   -7.5489   -5.5273    9.4958 C   0  0  0  0  0  0
   -8.6379   -5.2932    8.6493 C   0  0  0  0  0  0
   -9.7859   -4.6577    9.1347 C   0  0  0  0  0  0
   -9.8791   -4.2435   10.4607 C   0  0  0  0  0  0
   -8.7933   -4.4879   11.2920 C   0  0  0  0  0  0
   -7.6353   -5.1235   10.8203 C   0  0  0  0  0  0
   -8.6240   -4.1309   12.7459 C   0  0  0  0  0  0
   -7.2157   -4.6604   13.0045 C   0  0  0  0  0  0
   -6.6593   -5.2288   11.9108 C   0  0  0  0  0  0
   -5.2878   -5.7952   11.7131 C   0  0  0  0  0  0
   -6.5807   -4.4690   14.3135 C   0  0  0  0  0  0
   -5.1850   -4.4568   14.4404 C   0  0  0  0  0  0
   -4.5852   -4.2906   15.6918 C   0  0  0  0  0  0
   -5.3803   -4.1408   16.8213 C   0  0  0  0  0  0
   -6.7665   -4.1567   16.7204 C   0  0  0  0  0  0
   -7.3643   -4.3237   15.4670 C   0  0  0  0  0  0
  -10.8139   -4.4528    8.2604 O   0  0  0  0  0  0
   -4.7606   -3.9811   18.0252 O   0  0  0  0  0  0
   -5.2795   -7.3173   11.6615 C   0  0  0  0  0  0
   -9.6818   -4.7894   13.6272 C   0  0  0  0  0  0
   -6.6592   -6.0146    9.1077 H   0  0  0  0  0  0
   -8.5866   -5.6050    7.6080 H   0  0  0  0  0  0
  -10.7642   -3.7420   10.8403 H   0  0  0  0  0  0
   -8.6526   -3.0401   12.8526 H   0  0  0  0  0  0
   -4.6183   -5.4685   12.5169 H   0  0  0  0  0  0
   -4.8506   -5.3957   10.7899 H   0  0  0  0  0  0
   -4.5490   -4.5897   13.5675 H   0  0  0  0  0  0
   -3.5010   -4.2834   15.7760 H   0  0  0  0  0  0
   -7.3969   -4.0407   17.5987 H   0  0  0  0  0  0
   -8.4514   -4.3267   15.4032 H   0  0  0  0  0  0
  -11.5417   -4.0014    8.7393 H   0  0  0  0  0  0
   -5.4494   -3.8898   18.7180 H   0  0  0  0  0  0
   -4.2540   -7.6824   11.5446 H   0  0  0  0  0  0
   -5.8662   -7.6972   10.8194 H   0  0  0  0  0  0
   -5.6879   -7.7508   12.5798 H   0  0  0  0  0  0
   -9.5226   -4.5448   14.6828 H   0  0  0  0  0  0
   -9.6701   -5.8816   13.5299 H   0  0  0  0  0  0
  -10.6866   -4.4462   13.3574 H   0  0  0  0  0  0
  1  2  2  0  0  0
  1  6  1  0  0  0
  1 21  1  0  0  0
  2  3  1  0  0  0
  2 22  1  0  0  0
  3  4  2  0  0  0
  3 17  1  0  0  0
  4  5  1  0  0  0
  4 23  1  0  0  0
  5  6  2  0  0  0
  5  7  1  0  0  0
  6  9  1  0  0  0
  7  8  1  0  0  0
  7 20  1  0  0  0
  7 24  1  0  0  0
  8  9  2  0  0  0
  8 11  1  0  0  0
  9 10  1  0  0  0
 10 19  1  0  0  0
 10 25  1  0  0  0
 10 26  1  0  0  0
 11 12  2  0  0  0
 11 16  1  0  0  0
 12 13  1  0  0  0
 12 27  1  0  0  0
 13 14  2  0  0  0
 13 28  1  0  0  0
 14 15  1  0  0  0
 14 18  1  0  0  0
 15 16  2  0  0  0
 15 29  1  0  0  0
 16 30  1  0  0  0
 17 31  1  0  0  0
 18 32  1  0  0  0
 19 33  1  0  0  0
 19 34  1  0  0  0
 19 35  1  0  0  0
 20 36  1  0  0  0
 20 37  1  0  0  0
 20 38  1  0  0  0
M  END
>  <Name>
lit-345

>  <Family>
C.1

>  <RBA>
81.000000

>  <RBA_avg>
81.000000

>  <Method>
RUC

>  <set>
0

$$$$
lit-346
  Cerius2 12180216413D 1   1.00000                          
 Structure written by MMmdl.
 41 43  0  0  0  0  0  0  0  0999 V2000
   -7.5512   -5.5305    9.5075 C   0  0  0  0  0  0
   -8.6296   -5.2903    8.6516 C   0  0  0  0  0  0
   -9.7761   -4.6493    9.1291 C   0  0  0  0  0  0
   -9.8834   -4.2486   10.4593 C   0  0  0  0  0  0
   -8.8186   -4.5166   11.3108 C   0  0  0  0  0  0
   -7.6504   -5.1322   10.8338 C   0  0  0  0  0  0
   -8.6677   -4.1961   12.7795 C   0  0  0  0  0  0
   -7.2328   -4.6814   13.0156 C   0  0  0  0  0  0
   -6.6612   -5.2101   11.9120 C   0  0  0  0  0  0
   -5.2832   -5.7572   11.7066 C   0  0  0  0  0  0
   -6.5845   -4.4801   14.3160 C   0  0  0  0  0  0
   -7.3577   -4.3300   15.4746 C   0  0  0  0  0  0
   -6.7446   -4.1544   16.7182 C   0  0  0  0  0  0
   -5.3576   -4.1342   16.8056 C   0  0  0  0  0  0
   -4.5717   -4.2885   15.6692 C   0  0  0  0  0  0
   -5.1870   -4.4636   14.4261 C   0  0  0  0  0  0
  -10.7899   -4.4229    8.2430 O   0  0  0  0  0  0
   -4.7955   -3.9611   18.0358 O   0  0  0  0  0  0
   -4.3529   -4.7466   11.0491 C   0  0  0  0  0  0
   -9.6627   -4.9365   13.6934 C   0  0  0  0  0  0
  -11.0715   -4.3590   13.6747 C   0  0  0  0  0  0
   -6.6554   -6.0108    9.1245 H   0  0  0  0  0  0
   -8.5676   -5.5930    7.6083 H   0  0  0  0  0  0
  -10.7668   -3.7313   10.8179 H   0  0  0  0  0  0
   -8.7249   -3.1103   12.9222 H   0  0  0  0  0  0
   -5.3273   -6.6701   11.1008 H   0  0  0  0  0  0
   -4.8386   -6.0621   12.6592 H   0  0  0  0  0  0
   -8.4451   -4.3376   15.4212 H   0  0  0  0  0  0
   -7.3546   -4.0339   17.6105 H   0  0  0  0  0  0
   -3.4861   -4.2790   15.7287 H   0  0  0  0  0  0
   -4.5631   -4.5967   13.5433 H   0  0  0  0  0  0
  -11.5204   -3.9712    8.7168 H   0  0  0  0  0  0
   -3.8196   -3.9690   17.9337 H   0  0  0  0  0  0
   -3.3535   -5.1776   10.9306 H   0  0  0  0  0  0
   -4.2590   -3.8416   11.6590 H   0  0  0  0  0  0
   -4.7102   -4.4530   10.0569 H   0  0  0  0  0  0
   -9.3132   -4.8818   14.7321 H   0  0  0  0  0  0
   -9.7097   -6.0026   13.4363 H   0  0  0  0  0  0
  -11.6665   -4.8034   14.4796 H   0  0  0  0  0  0
  -11.5867   -4.5786   12.7370 H   0  0  0  0  0  0
  -11.0578   -3.2751   13.8249 H   0  0  0  0  0  0
  1  2  2  0  0  0
  1  6  1  0  0  0
  1 22  1  0  0  0
  2  3  1  0  0  0
  2 23  1  0  0  0
  3  4  2  0  0  0
  3 17  1  0  0  0
  4  5  1  0  0  0
  4 24  1  0  0  0
  5  6  2  0  0  0
  5  7  1  0  0  0
  6  9  1  0  0  0
  7  8  1  0  0  0
  7 20  1  0  0  0
  7 25  1  0  0  0
  8  9  2  0  0  0
  8 11  1  0  0  0
  9 10  1  0  0  0
 10 19  1  0  0  0
 10 26  1  0  0  0
 10 27  1  0  0  0
 11 12  2  0  0  0
 11 16  1  0  0  0
 12 13  1  0  0  0
 12 28  1  0  0  0
 13 14  2  0  0  0
 13 29  1  0  0  0
 14 15  1  0  0  0
 14 18  1  0  0  0
 15 16  2  0  0  0
 15 30  1  0  0  0
 16 31  1  0  0  0
 17 32  1  0  0  0
 18 33  1  0  0  0
 19 34  1  0  0  0
 19 35  1  0  0  0
 19 36  1  0  0  0
 20 21  1  0  0  0
 20 37  1  0  0  0
 20 38  1  0  0  0
 21 39  1  0  0  0
 21 40  1  0  0  0
 21 41  1  0  0  0
M  END
>  <Name>
lit-346

>  <Family>
C.1

>  <RBA>
78.000000

>  <RBA_avg>
78.000000

>  <Method>
RUC

>  <set>
0

$$$$
lit-347
  Cerius2 12180216413D 1   1.00000                          
 Structure written by MMmdl.
 37 40  0  0  0  0  0  0  0  0999 V2000
   -7.5508   -5.5369    9.4808 C   0  0  0  0  0  0
   -8.6535   -5.3215    8.6438 C   0  0  0  0  0  0
   -9.8008   -4.6777    9.1291 C   0  0  0  0  0  0
   -9.8793   -4.2349   10.4449 C   0  0  0  0  0  0
   -8.7715   -4.4653   11.2427 C   0  0  0  0  0  0
   -7.6235   -5.1033   10.7959 C   0  0  0  0  0  0
   -8.5467   -4.1206   12.6388 C   0  0  0  0  0  0
   -7.1778   -4.6091   12.9882 C   0  0  0  0  0  0
   -6.6404   -5.1814   11.8829 C   0  0  0  0  0  0
   -5.2945   -5.7708   11.8181 C   0  0  0  0  0  0
   -6.5862   -4.4547   14.3209 C   0  0  0  0  0  0
   -7.4106   -4.3148   15.4456 C   0  0  0  0  0  0
   -6.8553   -4.1668   16.7190 C   0  0  0  0  0  0
   -5.4714   -4.1609   16.8809 C   0  0  0  0  0  0
   -4.6414   -4.3049   15.7710 C   0  0  0  0  0  0
   -5.1954   -4.4530   14.4971 C   0  0  0  0  0  0
  -10.8396   -4.4985    8.2621 O   0  0  0  0  0  0
   -9.3399   -3.5501   13.3664 O   0  0  0  0  0  0
   -4.1532   -4.9734   11.9757 C   0  0  0  0  0  0
   -2.8791   -5.5416   11.9072 C   0  0  0  0  0  0
   -2.7357   -6.9089   11.6774 C   0  0  0  0  0  0
   -3.8649   -7.7096   11.5145 C   0  0  0  0  0  0
   -5.1397   -7.1433   11.5829 C   0  0  0  0  0  0
   -6.6636   -6.0318    9.0954 H   0  0  0  0  0  0
   -8.6151   -5.6564    7.6087 H   0  0  0  0  0  0
  -10.7546   -3.7323   10.8402 H   0  0  0  0  0  0
   -8.4948   -4.3149   15.3409 H   0  0  0  0  0  0
   -7.5052   -4.0558   17.5854 H   0  0  0  0  0  0
   -5.0392   -4.0455   17.8734 H   0  0  0  0  0  0
   -3.5599   -4.3030   15.8959 H   0  0  0  0  0  0
   -4.5282   -4.5698   13.6444 H   0  0  0  0  0  0
  -11.5663   -4.0395    8.7357 H   0  0  0  0  0  0
   -4.2455   -3.9027   12.1514 H   0  0  0  0  0  0
   -1.9978   -4.9152   12.0327 H   0  0  0  0  0  0
   -1.7423   -7.3509   11.6241 H   0  0  0  0  0  0
   -3.7537   -8.7773   11.3343 H   0  0  0  0  0  0
   -6.0107   -7.7848   11.4565 H   0  0  0  0  0  0
  1  2  2  0  0  0
  1  6  1  0  0  0
  1 24  1  0  0  0
  2  3  1  0  0  0
  2 25  1  0  0  0
  3  4  2  0  0  0
  3 17  1  0  0  0
  4  5  1  0  0  0
  4 26  1  0  0  0
  5  6  2  0  0  0
  5  7  1  0  0  0
  6  9  1  0  0  0
  7  8  1  0  0  0
  7 18  2  0  0  0
  8  9  2  0  0  0
  8 11  1  0  0  0
  9 10  1  0  0  0
 10 19  2  0  0  0
 10 23  1  0  0  0
 11 12  2  0  0  0
 11 16  1  0  0  0
 12 13  1  0  0  0
 12 27  1  0  0  0
 13 14  2  0  0  0
 13 28  1  0  0  0
 14 15  1  0  0  0
 14 29  1  0  0  0
 15 16  2  0  0  0
 15 30  1  0  0  0
 16 31  1  0  0  0
 17 32  1  0  0  0
 19 20  1  0  0  0
 19 33  1  0  0  0
 20 21  2  0  0  0
 20 34  1  0  0  0
 21 22  1  0  0  0
 21 35  1  0  0  0
 22 23  2  0  0  0
 22 36  1  0  0  0
 23 37  1  0  0  0
M  END
>  <Name>
lit-347

>  <Family>
C.1

>  <RBA>
78.000000

>  <RBA_avg>
78.000000

>  <Method>
RUC

>  <set>
0

$$$$
lit-348
  Cerius2 12180216413D 1   1.00000                          
 Structure written by MMmdl.
 41 44  0  0  0  0  0  0  0  0999 V2000
   -7.5476   -5.5324    9.4924 C   0  0  0  0  0  0
   -8.6387   -5.3155    8.6448 C   0  0  0  0  0  0
   -9.7872   -4.6754    9.1235 C   0  0  0  0  0  0
   -9.8787   -4.2403   10.4433 C   0  0  0  0  0  0
   -8.7906   -4.4682   11.2759 C   0  0  0  0  0  0
   -7.6343   -5.1068   10.8108 C   0  0  0  0  0  0
   -8.6148   -4.0959   12.7231 C   0  0  0  0  0  0
   -7.2046   -4.6251   12.9865 C   0  0  0  0  0  0
   -6.6392   -5.1949   11.8921 C   0  0  0  0  0  0
   -5.2854   -5.7624   11.8160 C   0  0  0  0  0  0
   -6.6004   -4.4504   14.3171 C   0  0  0  0  0  0
   -7.4110   -4.3159   15.4524 C   0  0  0  0  0  0
   -6.8423   -4.1682   16.7204 C   0  0  0  0  0  0
   -5.4571   -4.1587   16.8678 C   0  0  0  0  0  0
   -4.6396   -4.2984   15.7486 C   0  0  0  0  0  0
   -5.2081   -4.4462   14.4806 C   0  0  0  0  0  0
  -10.8183   -4.4874    8.2487 O   0  0  0  0  0  0
   -9.6753   -4.7417   13.6117 C   0  0  0  0  0  0
   -4.1556   -4.9504   11.9826 C   0  0  0  0  0  0
   -2.8727   -5.4971   11.9006 C   0  0  0  0  0  0
   -2.7088   -6.8580   11.6483 C   0  0  0  0  0  0
   -3.8259   -7.6737   11.4764 C   0  0  0  0  0  0
   -5.1093   -7.1284   11.5582 C   0  0  0  0  0  0
   -6.6542   -6.0215    9.1142 H   0  0  0  0  0  0
   -8.5890   -5.6434    7.6085 H   0  0  0  0  0  0
  -10.7648   -3.7362   10.8170 H   0  0  0  0  0  0
   -8.6408   -3.0039   12.8173 H   0  0  0  0  0  0
   -8.4962   -4.3121   15.3634 H   0  0  0  0  0  0
   -7.4833   -4.0593   17.5934 H   0  0  0  0  0  0
   -5.0144   -4.0437   17.8556 H   0  0  0  0  0  0
   -3.5569   -4.2955   15.8608 H   0  0  0  0  0  0
   -4.5498   -4.5666   13.6218 H   0  0  0  0  0  0
  -11.5462   -4.0307    8.7223 H   0  0  0  0  0  0
   -9.5192   -4.4829   14.6643 H   0  0  0  0  0  0
   -9.6639   -5.8351   13.5293 H   0  0  0  0  0  0
  -10.6795   -4.4016   13.3354 H   0  0  0  0  0  0
   -4.2667   -3.8847   12.1768 H   0  0  0  0  0  0
   -2.0011   -4.8588   12.0335 H   0  0  0  0  0  0
   -1.7087   -7.2835   11.5847 H   0  0  0  0  0  0
   -3.6989   -8.7366   11.2787 H   0  0  0  0  0  0
   -5.9716   -7.7799   11.4246 H   0  0  0  0  0  0
  1  2  2  0  0  0
  1  6  1  0  0  0
  1 24  1  0  0  0
  2  3  1  0  0  0
  2 25  1  0  0  0
  3  4  2  0  0  0
  3 17  1  0  0  0
  4  5  1  0  0  0
  4 26  1  0  0  0
  5  6  2  0  0  0
  5  7  1  0  0  0
  6  9  1  0  0  0
  7  8  1  0  0  0
  7 18  1  0  0  0
  7 27  1  0  0  0
  8  9  2  0  0  0
  8 11  1  0  0  0
  9 10  1  0  0  0
 10 19  2  0  0  0
 10 23  1  0  0  0
 11 12  2  0  0  0
 11 16  1  0  0  0
 12 13  1  0  0  0
 12 28  1  0  0  0
 13 14  2  0  0  0
 13 29  1  0  0  0
 14 15  1  0  0  0
 14 30  1  0  0  0
 15 16  2  0  0  0
 15 31  1  0  0  0
 16 32  1  0  0  0
 17 33  1  0  0  0
 18 34  1  0  0  0
 18 35  1  0  0  0
 18 36  1  0  0  0
 19 20  1  0  0  0
 19 37  1  0  0  0
 20 21  2  0  0  0
 20 38  1  0  0  0
 21 22  1  0  0  0
 21 39  1  0  0  0
 22 23  2  0  0  0
 22 40  1  0  0  0
 23 41  1  0  0  0
M  END
>  <Name>
lit-348

>  <Family>
C.1

>  <RBA>
12.000000

>  <RBA_avg>
12.000000

>  <Method>
RUC

>  <set>
0

$$$$
lit-349
  Cerius2 12180216413D 1   1.00000                          
 Structure written by MMmdl.
 35 37  0  0  0  0  0  0  0  0999 V2000
   -7.5618   -5.5430    9.4857 C   0  0  0  0  0  0
   -8.6662   -5.3133    8.6574 C   0  0  0  0  0  0
   -9.8020   -4.6650    9.1565 C   0  0  0  0  0  0
   -9.8671   -4.2303   10.4775 C   0  0  0  0  0  0
   -8.7643   -4.4661   11.2853 C   0  0  0  0  0  0
   -7.6207   -5.1196   10.8050 C   0  0  0  0  0  0
   -8.5686   -4.0900   12.7219 C   0  0  0  0  0  0
   -7.1743   -4.6337   12.9781 C   0  0  0  0  0  0
   -6.6336   -5.2212   11.8867 C   0  0  0  0  0  0
   -5.2745   -5.8146   11.6856 C   0  0  0  0  0  0
   -6.5565   -4.4556   14.2963 C   0  0  0  0  0  0
   -7.3537   -4.3188   15.4411 C   0  0  0  0  0  0
   -6.7697   -4.1640   16.7018 C   0  0  0  0  0  0
   -5.3857   -4.1518   16.8227 C   0  0  0  0  0  0
   -4.5750   -4.2941   15.7029 C   0  0  0  0  0  0
   -5.1621   -4.4482   14.4429 C   0  0  0  0  0  0
  -10.8470   -4.4693    8.3003 O   0  0  0  0  0  0
   -4.8519   -3.9995   18.0680 O   0  0  0  0  0  0
   -5.2926   -7.3370   11.6385 C   0  0  0  0  0  0
   -6.6835   -6.0434    9.0883 H   0  0  0  0  0  0
   -8.6378   -5.6409    7.6201 H   0  0  0  0  0  0
  -10.7416   -3.7215   10.8712 H   0  0  0  0  0  0
   -9.3094   -4.5828   13.3594 H   0  0  0  0  0  0
   -8.6144   -3.0034   12.8409 H   0  0  0  0  0  0
   -4.5963   -5.4971   12.4859 H   0  0  0  0  0  0
   -4.8343   -5.4261   10.7592 H   0  0  0  0  0  0
   -8.4399   -4.3173   15.3658 H   0  0  0  0  0  0
   -7.4006   -4.0528   17.5807 H   0  0  0  0  0  0
   -3.4909   -4.2924   15.7878 H   0  0  0  0  0  0
   -4.5149   -4.5763   13.5776 H   0  0  0  0  0  0
  -11.5632   -4.0078    8.7871 H   0  0  0  0  0  0
   -3.8739   -4.0111   17.9888 H   0  0  0  0  0  0
   -4.2735   -7.7201   11.5237 H   0  0  0  0  0  0
   -5.8845   -7.7091   10.7967 H   0  0  0  0  0  0
   -5.7096   -7.7611   12.5571 H   0  0  0  0  0  0
  1  2  2  0  0  0
  1  6  1  0  0  0
  1 20  1  0  0  0
  2  3  1  0  0  0
  2 21  1  0  0  0
  3  4  2  0  0  0
  3 17  1  0  0  0
  4  5  1  0  0  0
  4 22  1  0  0  0
  5  6  2  0  0  0
  5  7  1  0  0  0
  6  9  1  0  0  0
  7  8  1  0  0  0
  7 23  1  0  0  0
  7 24  1  0  0  0
  8  9  2  0  0  0
  8 11  1  0  0  0
  9 10  1  0  0  0
 10 19  1  0  0  0
 10 25  1  0  0  0
 10 26  1  0  0  0
 11 12  2  0  0  0
 11 16  1  0  0  0
 12 13  1  0  0  0
 12 27  1  0  0  0
 13 14  2  0  0  0
 13 28  1  0  0  0
 14 15  1  0  0  0
 14 18  1  0  0  0
 15 16  2  0  0  0
 15 29  1  0  0  0
 16 30  1  0  0  0
 17 31  1  0  0  0
 18 32  1  0  0  0
 19 33  1  0  0  0
 19 34  1  0  0  0
 19 35  1  0  0  0
M  END
>  <Name>
lit-349

>  <Family>
C.1

>  <RBA>
16.000000

>  <RBA_avg>
16.000000

>  <Method>
RUC

>  <set>
0

$$$$
lit-350
  Cerius2 12180216413D 1   1.00000                          
 Structure written by MMmdl.
 40 42  0  0  0  0  0  0  0  0999 V2000
   -7.5663   -5.5147    9.5223 C   0  0  0  0  0  0
   -8.6463   -5.2709    8.6699 C   0  0  0  0  0  0
   -9.7965   -4.6261    9.1443 C   0  0  0  0  0  0
   -9.8884   -4.2289   10.4801 C   0  0  0  0  0  0
   -8.8237   -4.4988   11.3293 C   0  0  0  0  0  0
   -7.6596   -5.1175   10.8490 C   0  0  0  0  0  0
   -8.6684   -4.1788   12.7972 C   0  0  0  0  0  0
   -7.2353   -4.6712   13.0308 C   0  0  0  0  0  0
   -6.6681   -5.2007   11.9251 C   0  0  0  0  0  0
   -5.2932   -5.7539   11.7158 C   0  0  0  0  0  0
   -6.5846   -4.4754   14.3306 C   0  0  0  0  0  0
   -5.1874   -4.4639   14.4389 C   0  0  0  0  0  0
   -4.5731   -4.2956   15.6826 C   0  0  0  0  0  0
   -5.3554   -4.1431   16.8210 C   0  0  0  0  0  0
   -6.7431   -4.1579   16.7368 C   0  0  0  0  0  0
   -7.3559   -4.3268   15.4914 C   0  0  0  0  0  0
   -4.7215   -3.9816   18.0174 O   0  0  0  0  0  0
   -4.3601   -4.7472   11.0562 C   0  0  0  0  0  0
   -9.6662   -4.9131   13.7132 C   0  0  0  0  0  0
  -11.0711   -4.3259   13.6974 C   0  0  0  0  0  0
   -6.6730   -5.9978    9.1365 H   0  0  0  0  0  0
   -8.5895   -5.5728    7.6251 H   0  0  0  0  0  0
  -10.6233   -4.4288    8.4634 H   0  0  0  0  0  0
  -10.7764   -3.7107   10.8292 H   0  0  0  0  0  0
   -8.7195   -3.0926   12.9398 H   0  0  0  0  0  0
   -5.3430   -6.6663   11.1100 H   0  0  0  0  0  0
   -4.8474   -6.0609   12.6672 H   0  0  0  0  0  0
   -4.5640   -4.5961   13.5559 H   0  0  0  0  0  0
   -3.4879   -4.2883   15.7542 H   0  0  0  0  0  0
   -7.3629   -4.0399   17.6226 H   0  0  0  0  0  0
   -8.4435   -4.3311   15.4379 H   0  0  0  0  0  0
   -5.4022   -3.8890   18.7180 H   0  0  0  0  0  0
   -3.3630   -5.1827   10.9348 H   0  0  0  0  0  0
   -4.2605   -3.8428   11.6661 H   0  0  0  0  0  0
   -4.7188   -4.4517   10.0651 H   0  0  0  0  0  0
   -9.3142   -4.8611   14.7511 H   0  0  0  0  0  0
   -9.7208   -5.9787   13.4557 H   0  0  0  0  0  0
  -11.6676   -4.7672   14.5030 H   0  0  0  0  0  0
  -11.5895   -4.5412   12.7604 H   0  0  0  0  0  0
  -11.0499   -3.2424   13.8487 H   0  0  0  0  0  0
  1  2  2  0  0  0
  1  6  1  0  0  0
  1 21  1  0  0  0
  2  3  1  0  0  0
  2 22  1  0  0  0
  3  4  2  0  0  0
  3 23  1  0  0  0
  4  5  1  0  0  0
  4 24  1  0  0  0
  5  6  2  0  0  0
  5  7  1  0  0  0
  6  9  1  0  0  0
  7  8  1  0  0  0
  7 19  1  0  0  0
  7 25  1  0  0  0
  8  9  2  0  0  0
  8 11  1  0  0  0
  9 10  1  0  0  0
 10 18  1  0  0  0
 10 26  1  0  0  0
 10 27  1  0  0  0
 11 12  2  0  0  0
 11 16  1  0  0  0
 12 13  1  0  0  0
 12 28  1  0  0  0
 13 14  2  0  0  0
 13 29  1  0  0  0
 14 15  1  0  0  0
 14 17  1  0  0  0
 15 16  2  0  0  0
 15 30  1  0  0  0
 16 31  1  0  0  0
 17 32  1  0  0  0
 18 33  1  0  0  0
 18 34  1  0  0  0
 18 35  1  0  0  0
 19 20  1  0  0  0
 19 36  1  0  0  0
 19 37  1  0  0  0
 20 38  1  0  0  0
 20 39  1  0  0  0
 20 40  1  0  0  0
M  END
>  <Name>
lit-350

>  <Family>
C.1

>  <RBA>
9.300000

>  <RBA_avg>
9.300000

>  <Method>
RUC

>  <set>
0

$$$$
lit-351
  Cerius2 12180216413D 1   1.00000                          
 Structure written by MMmdl.
 38 41  0  0  0  0  0  0  0  0999 V2000
   -7.5556   -5.5461    9.4834 C   0  0  0  0  0  0
   -8.6622   -5.3362    8.6534 C   0  0  0  0  0  0
   -9.7998   -4.6841    9.1437 C   0  0  0  0  0  0
   -9.8645   -4.2268   10.4575 C   0  0  0  0  0  0
   -8.7593   -4.4434   11.2670 C   0  0  0  0  0  0
   -7.6157   -5.0989   10.7955 C   0  0  0  0  0  0
   -8.5583   -4.0482   12.6955 C   0  0  0  0  0  0
   -7.1642   -4.5931   12.9601 C   0  0  0  0  0  0
   -6.6104   -5.1810   11.8693 C   0  0  0  0  0  0
   -5.2678   -5.7749   11.7963 C   0  0  0  0  0  0
   -6.5861   -4.4368   14.3035 C   0  0  0  0  0  0
   -7.4175   -4.3137   15.4252 C   0  0  0  0  0  0
   -6.8732   -4.1829   16.7060 C   0  0  0  0  0  0
   -5.4914   -4.1806   16.8811 C   0  0  0  0  0  0
   -4.6530   -4.3109   15.7766 C   0  0  0  0  0  0
   -5.1973   -4.4414   14.4960 C   0  0  0  0  0  0
  -10.8474   -4.5078    8.2865 O   0  0  0  0  0  0
   -4.1239   -4.9870   11.9819 C   0  0  0  0  0  0
   -2.8509   -5.5569   11.9033 C   0  0  0  0  0  0
   -2.7107   -6.9175   11.6354 C   0  0  0  0  0  0
   -3.8417   -7.7094   11.4448 C   0  0  0  0  0  0
   -5.1152   -7.1407   11.5232 C   0  0  0  0  0  0
   -6.6730   -6.0479    9.0969 H   0  0  0  0  0  0
   -8.6341   -5.6815    7.6218 H   0  0  0  0  0  0
  -10.7411   -3.7159   10.8441 H   0  0  0  0  0  0
   -9.3005   -4.5286   13.3409 H   0  0  0  0  0  0
   -8.5996   -2.9598   12.7987 H   0  0  0  0  0  0
   -8.5009   -4.3030   15.3167 H   0  0  0  0  0  0
   -7.5312   -4.0816   17.5674 H   0  0  0  0  0  0
   -5.0679   -4.0789   17.8787 H   0  0  0  0  0  0
   -3.5727   -4.3144   15.9098 H   0  0  0  0  0  0
   -4.5213   -4.5558   13.6501 H   0  0  0  0  0  0
  -11.5646   -4.0409    8.7665 H   0  0  0  0  0  0
   -4.2159   -3.9217   12.1884 H   0  0  0  0  0  0
   -1.9685   -4.9370   12.0510 H   0  0  0  0  0  0
   -1.7185   -7.3612   11.5745 H   0  0  0  0  0  0
   -3.7334   -8.7721   11.2353 H   0  0  0  0  0  0
   -5.9884   -7.7746   11.3754 H   0  0  0  0  0  0
  1  2  2  0  0  0
  1  6  1  0  0  0
  1 23  1  0  0  0
  2  3  1  0  0  0
  2 24  1  0  0  0
  3  4  2  0  0  0
  3 17  1  0  0  0
  4  5  1  0  0  0
  4 25  1  0  0  0
  5  6  2  0  0  0
  5  7  1  0  0  0
  6  9  1  0  0  0
  7  8  1  0  0  0
  7 26  1  0  0  0
  7 27  1  0  0  0
  8  9  2  0  0  0
  8 11  1  0  0  0
  9 10  1  0  0  0
 10 18  2  0  0  0
 10 22  1  0  0  0
 11 12  2  0  0  0
 11 16  1  0  0  0
 12 13  1  0  0  0
 12 28  1  0  0  0
 13 14  2  0  0  0
 13 29  1  0  0  0
 14 15  1  0  0  0
 14 30  1  0  0  0
 15 16  2  0  0  0
 15 31  1  0  0  0
 16 32  1  0  0  0
 17 33  1  0  0  0
 18 19  1  0  0  0
 18 34  1  0  0  0
 19 20  2  0  0  0
 19 35  1  0  0  0
 20 21  1  0  0  0
 20 36  1  0  0  0
 21 22  2  0  0  0
 21 37  1  0  0  0
 22 38  1  0  0  0
M  END
>  <Name>
lit-351

>  <Family>
C.1

>  <RBA>
8.900000

>  <RBA_avg>
8.900000

>  <Method>
RUC

>  <set>
0

$$$$
lit-352
  Cerius2 12180216413D 1   1.00000                          
 Structure written by MMmdl.
 33 35  0  0  0  0  0  0  0  0999 V2000
   -7.5738   -5.5219    9.5079 C   0  0  0  0  0  0
   -8.6866   -5.3156    8.6813 C   0  0  0  0  0  0
   -9.8427   -4.6828    9.1700 C   0  0  0  0  0  0
   -9.9031   -4.2474   10.4934 C   0  0  0  0  0  0
   -8.7879   -4.4657   11.2833 C   0  0  0  0  0  0
   -7.6340   -5.0876   10.8226 C   0  0  0  0  0  0
   -8.5638   -4.1291   12.6844 C   0  0  0  0  0  0
   -7.1912   -4.6100   13.0193 C   0  0  0  0  0  0
   -6.6534   -5.1547   11.9066 C   0  0  0  0  0  0
   -5.2959   -5.7584   11.7203 C   0  0  0  0  0  0
   -6.5685   -4.4563   14.3309 C   0  0  0  0  0  0
   -5.1728   -4.4542   14.4513 C   0  0  0  0  0  0
   -4.5723   -4.3105   15.7048 C   0  0  0  0  0  0
   -5.3666   -4.1666   16.8367 C   0  0  0  0  0  0
   -6.7539   -4.1637   16.7369 C   0  0  0  0  0  0
   -7.3539   -4.3081   15.4826 C   0  0  0  0  0  0
   -4.7446   -4.0283   18.0421 O   0  0  0  0  0  0
   -4.3297   -4.8015   11.0354 C   0  0  0  0  0  0
   -9.3538   -3.5708   13.4244 O   0  0  0  0  0  0
   -6.6895   -6.0132    9.1113 H   0  0  0  0  0  0
   -8.6559   -5.6502    7.6447 H   0  0  0  0  0  0
  -10.6957   -4.5333    8.5094 H   0  0  0  0  0  0
  -10.7882   -3.7586   10.8873 H   0  0  0  0  0  0
   -5.3722   -6.6865   11.1414 H   0  0  0  0  0  0
   -4.8659   -6.0492   12.6849 H   0  0  0  0  0  0
   -4.5406   -4.5674   13.5718 H   0  0  0  0  0  0
   -3.4879   -4.3118   15.7894 H   0  0  0  0  0  0
   -7.3820   -4.0503   17.6174 H   0  0  0  0  0  0
   -8.4409   -4.3019   15.4131 H   0  0  0  0  0  0
   -5.4319   -3.9363   18.7364 H   0  0  0  0  0  0
   -3.3453   -5.2699   10.9344 H   0  0  0  0  0  0
   -4.2067   -3.8812   11.6166 H   0  0  0  0  0  0
   -4.6741   -4.5275   10.0331 H   0  0  0  0  0  0
  1  2  2  0  0  0
  1  6  1  0  0  0
  1 20  1  0  0  0
  2  3  1  0  0  0
  2 21  1  0  0  0
  3  4  2  0  0  0
  3 22  1  0  0  0
  4  5  1  0  0  0
  4 23  1  0  0  0
  5  6  2  0  0  0
  5  7  1  0  0  0
  6  9  1  0  0  0
  7  8  1  0  0  0
  7 19  2  0  0  0
  8  9  2  0  0  0
  8 11  1  0  0  0
  9 10  1  0  0  0
 10 18  1  0  0  0
 10 24  1  0  0  0
 10 25  1  0  0  0
 11 12  2  0  0  0
 11 16  1  0  0  0
 12 13  1  0  0  0
 12 26  1  0  0  0
 13 14  2  0  0  0
 13 27  1  0  0  0
 14 15  1  0  0  0
 14 17  1  0  0  0
 15 16  2  0  0  0
 15 28  1  0  0  0
 16 29  1  0  0  0
 17 30  1  0  0  0
 18 31  1  0  0  0
 18 32  1  0  0  0
 18 33  1  0  0  0
M  END
>  <Name>
lit-352

>  <Family>
C.1

>  <RBA>
4.600000

>  <RBA_avg>
4.600000

>  <Method>
RUC

>  <set>
0

$$$$
lit-353
  Cerius2 12180216413D 1   1.00000                          
 Structure written by MMmdl.
 34 36  0  0  0  0  0  0  0  0999 V2000
   -7.5875   -5.5197    9.5011 C   0  0  0  0  0  0
   -8.7005   -5.2942    8.6838 C   0  0  0  0  0  0
   -9.8451   -4.6588    9.1899 C   0  0  0  0  0  0
   -9.8927   -4.2370   10.5192 C   0  0  0  0  0  0
   -8.7830   -4.4673   11.3175 C   0  0  0  0  0  0
   -7.6385   -5.1066   10.8235 C   0  0  0  0  0  0
   -8.5795   -4.0989   12.7549 C   0  0  0  0  0  0
   -7.1780   -4.6312   12.9963 C   0  0  0  0  0  0
   -6.6412   -5.2064   11.8962 C   0  0  0  0  0  0
   -5.2783   -5.7855   11.6792 C   0  0  0  0  0  0
   -6.5510   -4.4554   14.3103 C   0  0  0  0  0  0
   -7.3404   -4.3180   15.4607 C   0  0  0  0  0  0
   -6.7477   -4.1656   16.7177 C   0  0  0  0  0  0
   -5.3630   -4.1564   16.8295 C   0  0  0  0  0  0
   -4.5601   -4.2994   15.7044 C   0  0  0  0  0  0
   -5.1557   -4.4511   14.4480 C   0  0  0  0  0  0
   -4.8207   -4.0062   18.0714 O   0  0  0  0  0  0
   -5.2823   -7.3075   11.6215 C   0  0  0  0  0  0
   -6.7080   -6.0092    9.0929 H   0  0  0  0  0  0
   -8.6788   -5.6138    7.6427 H   0  0  0  0  0  0
  -10.7011   -4.4914    8.5376 H   0  0  0  0  0  0
  -10.7754   -3.7393   10.9119 H   0  0  0  0  0  0
   -9.3105   -4.6029   13.3949 H   0  0  0  0  0  0
   -8.6345   -3.0136   12.8815 H   0  0  0  0  0  0
   -4.5962   -5.4669   12.4757 H   0  0  0  0  0  0
   -4.8501   -5.3862   10.7517 H   0  0  0  0  0  0
   -8.4271   -4.3140   15.3927 H   0  0  0  0  0  0
   -7.3726   -4.0538   17.6009 H   0  0  0  0  0  0
   -3.4753   -4.3002   15.7821 H   0  0  0  0  0  0
   -4.5143   -4.5798   13.5784 H   0  0  0  0  0  0
   -3.8433   -4.0199   17.9859 H   0  0  0  0  0  0
   -4.2607   -7.6800   11.4942 H   0  0  0  0  0  0
   -5.8787   -7.6795   10.7826 H   0  0  0  0  0  0
   -5.6864   -7.7421   12.5410 H   0  0  0  0  0  0
  1  2  2  0  0  0
  1  6  1  0  0  0
  1 19  1  0  0  0
  2  3  1  0  0  0
  2 20  1  0  0  0
  3  4  2  0  0  0
  3 21  1  0  0  0
  4  5  1  0  0  0
  4 22  1  0  0  0
  5  6  2  0  0  0
  5  7  1  0  0  0
  6  9  1  0  0  0
  7  8  1  0  0  0
  7 23  1  0  0  0
  7 24  1  0  0  0
  8  9  2  0  0  0
  8 11  1  0  0  0
  9 10  1  0  0  0
 10 18  1  0  0  0
 10 25  1  0  0  0
 10 26  1  0  0  0
 11 12  2  0  0  0
 11 16  1  0  0  0
 12 13  1  0  0  0
 12 27  1  0  0  0
 13 14  2  0  0  0
 13 28  1  0  0  0
 14 15  1  0  0  0
 14 17  1  0  0  0
 15 16  2  0  0  0
 15 29  1  0  0  0
 16 30  1  0  0  0
 17 31  1  0  0  0
 18 32  1  0  0  0
 18 33  1  0  0  0
 18 34  1  0  0  0
M  END
>  <Name>
lit-353

>  <Family>
C.1

>  <RBA>
2.300000

>  <RBA_avg>
2.300000

>  <Method>
RUC

>  <set>
0

$$$$
lit-354
  Cerius2 12180216413D 1   1.00000                          
 Structure written by MMmdl.
 40 42  0  0  0  0  0  0  0  0999 V2000
   -7.5360   -5.5213    9.5069 C   0  0  0  0  0  0
   -8.6080   -5.2878    8.6412 C   0  0  0  0  0  0
   -9.7643   -4.6572    9.1091 C   0  0  0  0  0  0
   -9.8875   -4.2603   10.4392 C   0  0  0  0  0  0
   -8.8289   -4.5218   11.3002 C   0  0  0  0  0  0
   -7.6512   -5.1273   10.8332 C   0  0  0  0  0  0
   -8.6945   -4.2035   12.7711 C   0  0  0  0  0  0
   -7.2585   -4.6785   13.0201 C   0  0  0  0  0  0
   -6.6722   -5.2005   11.9210 C   0  0  0  0  0  0
   -5.2881   -5.7365   11.7282 C   0  0  0  0  0  0
   -6.6238   -4.4743   14.3269 C   0  0  0  0  0  0
   -5.2285   -4.4561   14.4518 C   0  0  0  0  0  0
   -4.6295   -4.2773   15.7011 C   0  0  0  0  0  0
   -5.4202   -4.1194   16.8375 C   0  0  0  0  0  0
   -6.8090   -4.1427   16.7261 C   0  0  0  0  0  0
   -7.4086   -4.3221   15.4769 C   0  0  0  0  0  0
  -10.7713   -4.4372    8.2140 O   0  0  0  0  0  0
   -4.3572   -4.7138   11.0907 C   0  0  0  0  0  0
   -9.6930   -4.9535   13.6734 C   0  0  0  0  0  0
  -11.1052   -4.3846   13.6440 C   0  0  0  0  0  0
   -6.6326   -5.9935    9.1315 H   0  0  0  0  0  0
   -8.5337   -5.5876    7.5979 H   0  0  0  0  0  0
  -10.7783   -3.7508   10.7903 H   0  0  0  0  0  0
   -8.7614   -3.1184   12.9155 H   0  0  0  0  0  0
   -5.3181   -6.6446   11.1146 H   0  0  0  0  0  0
   -4.8533   -6.0464   12.6837 H   0  0  0  0  0  0
   -4.5944   -4.5906   13.5766 H   0  0  0  0  0  0
   -3.5444   -4.2646   15.7863 H   0  0  0  0  0  0
   -4.9536   -3.9802   17.8111 H   0  0  0  0  0  0
   -7.4282   -4.0203   17.6130 H   0  0  0  0  0  0
   -8.4954   -4.3312   15.4120 H   0  0  0  0  0  0
  -11.5102   -3.9926    8.6818 H   0  0  0  0  0  0
   -3.3536   -5.1369   10.9802 H   0  0  0  0  0  0
   -4.2769   -3.8135   11.7093 H   0  0  0  0  0  0
   -4.7052   -4.4142   10.0969 H   0  0  0  0  0  0
   -9.3532   -4.9004   14.7153 H   0  0  0  0  0  0
   -9.7311   -6.0189   13.4120 H   0  0  0  0  0  0
  -11.7047   -4.8361   14.4416 H   0  0  0  0  0  0
  -11.6105   -4.6037   12.7007 H   0  0  0  0  0  0
  -11.0997   -3.3013   13.7986 H   0  0  0  0  0  0
  1  2  2  0  0  0
  1  6  1  0  0  0
  1 21  1  0  0  0
  2  3  1  0  0  0
  2 22  1  0  0  0
  3  4  2  0  0  0
  3 17  1  0  0  0
  4  5  1  0  0  0
  4 23  1  0  0  0
  5  6  2  0  0  0
  5  7  1  0  0  0
  6  9  1  0  0  0
  7  8  1  0  0  0
  7 19  1  0  0  0
  7 24  1  0  0  0
  8  9  2  0  0  0
  8 11  1  0  0  0
  9 10  1  0  0  0
 10 18  1  0  0  0
 10 25  1  0  0  0
 10 26  1  0  0  0
 11 12  2  0  0  0
 11 16  1  0  0  0
 12 13  1  0  0  0
 12 27  1  0  0  0
 13 14  2  0  0  0
 13 28  1  0  0  0
 14 15  1  0  0  0
 14 29  1  0  0  0
 15 16  2  0  0  0
 15 30  1  0  0  0
 16 31  1  0  0  0
 17 32  1  0  0  0
 18 33  1  0  0  0
 18 34  1  0  0  0
 18 35  1  0  0  0
 19 20  1  0  0  0
 19 36  1  0  0  0
 19 37  1  0  0  0
 20 38  1  0  0  0
 20 39  1  0  0  0
 20 40  1  0  0  0
M  END
>  <Name>
lit-354

>  <Family>
C.1

>  <RBA>
2.200000

>  <RBA_avg>
2.200000

>  <Method>
RUC

>  <set>
0

$$$$
lit-355
  Cerius2 12180216413D 1   1.00000                          
 Structure written by MMmdl.
 33 35  0  0  0  0  0  0  0  0999 V2000
   -7.5428   -5.5350    9.4899 C   0  0  0  0  0  0
   -8.6424   -5.3225    8.6476 C   0  0  0  0  0  0
   -9.7931   -4.6792    9.1254 C   0  0  0  0  0  0
   -9.8798   -4.2355   10.4401 C   0  0  0  0  0  0
   -8.7754   -4.4621   11.2436 C   0  0  0  0  0  0
   -7.6191   -5.0951   10.8021 C   0  0  0  0  0  0
   -8.5684   -4.1230   12.6467 C   0  0  0  0  0  0
   -7.2049   -4.6138   13.0041 C   0  0  0  0  0  0
   -6.6552   -5.1660   11.9007 C   0  0  0  0  0  0
   -5.2995   -5.7799   11.7344 C   0  0  0  0  0  0
   -6.6014   -4.4601   14.3252 C   0  0  0  0  0  0
   -7.4129   -4.3158   15.4575 C   0  0  0  0  0  0
   -6.8408   -4.1661   16.7230 C   0  0  0  0  0  0
   -5.4543   -4.1619   16.8666 C   0  0  0  0  0  0
   -4.6384   -4.3084   15.7462 C   0  0  0  0  0  0
   -5.2090   -4.4580   14.4801 C   0  0  0  0  0  0
  -10.8281   -4.5042    8.2528 O   0  0  0  0  0  0
   -4.3169   -4.8312   11.0614 C   0  0  0  0  0  0
   -9.3661   -3.5559   13.3717 O   0  0  0  0  0  0
   -6.6573   -6.0347    9.1075 H   0  0  0  0  0  0
   -8.5993   -5.6611    7.6137 H   0  0  0  0  0  0
  -10.7594   -3.7373   10.8312 H   0  0  0  0  0  0
   -5.3745   -6.7084   11.1561 H   0  0  0  0  0  0
   -4.8845   -6.0724   12.7050 H   0  0  0  0  0  0
   -8.4982   -4.3154   15.3646 H   0  0  0  0  0  0
   -7.4789   -4.0527   17.5977 H   0  0  0  0  0  0
   -5.0092   -4.0453   17.8532 H   0  0  0  0  0  0
   -3.5555   -4.3070   15.8574 H   0  0  0  0  0  0
   -4.5559   -4.5750   13.6162 H   0  0  0  0  0  0
  -11.5579   -4.0453    8.7218 H   0  0  0  0  0  0
   -3.3352   -5.3079   10.9730 H   0  0  0  0  0  0
   -4.1936   -3.9119   11.6440 H   0  0  0  0  0  0
   -4.6465   -4.5549   10.0547 H   0  0  0  0  0  0
  1  2  2  0  0  0
  1  6  1  0  0  0
  1 20  1  0  0  0
  2  3  1  0  0  0
  2 21  1  0  0  0
  3  4  2  0  0  0
  3 17  1  0  0  0
  4  5  1  0  0  0
  4 22  1  0  0  0
  5  6  2  0  0  0
  5  7  1  0  0  0
  6  9  1  0  0  0
  7  8  1  0  0  0
  7 19  2  0  0  0
  8  9  2  0  0  0
  8 11  1  0  0  0
  9 10  1  0  0  0
 10 18  1  0  0  0
 10 23  1  0  0  0
 10 24  1  0  0  0
 11 12  2  0  0  0
 11 16  1  0  0  0
 12 13  1  0  0  0
 12 25  1  0  0  0
 13 14  2  0  0  0
 13 26  1  0  0  0
 14 15  1  0  0  0
 14 27  1  0  0  0
 15 16  2  0  0  0
 15 28  1  0  0  0
 16 29  1  0  0  0
 17 30  1  0  0  0
 18 31  1  0  0  0
 18 32  1  0  0  0
 18 33  1  0  0  0
M  END
>  <Name>
lit-355

>  <Family>
C.1

>  <RBA>
1.200000

>  <RBA_avg>
1.200000

>  <Method>
RUC

>  <set>
0

$$$$
lit-356
  Cerius2 12180216413D 1   1.00000                          
 Structure written by MMmdl.
 34 36  0  0  0  0  0  0  0  0999 V2000
   -7.5436   -5.5318    9.4853 C   0  0  0  0  0  0
   -8.6399   -5.3076    8.6450 C   0  0  0  0  0  0
   -9.7867   -4.6702    9.1330 C   0  0  0  0  0  0
   -9.8708   -4.2415   10.4549 C   0  0  0  0  0  0
   -8.7756   -4.4716   11.2747 C   0  0  0  0  0  0
   -7.6214   -5.1140   10.8054 C   0  0  0  0  0  0
   -8.5998   -4.0994   12.7150 C   0  0  0  0  0  0
   -7.2043   -4.6326   12.9855 C   0  0  0  0  0  0
   -6.6461   -5.2117   11.8982 C   0  0  0  0  0  0
   -5.2797   -5.7929   11.7106 C   0  0  0  0  0  0
   -6.6036   -4.4541   14.3118 C   0  0  0  0  0  0
   -7.4149   -4.3177   15.4462 C   0  0  0  0  0  0
   -6.8478   -4.1629   16.7143 C   0  0  0  0  0  0
   -5.4630   -4.1493   16.8631 C   0  0  0  0  0  0
   -4.6448   -4.2927   15.7451 C   0  0  0  0  0  0
   -5.2122   -4.4467   14.4772 C   0  0  0  0  0  0
  -10.8230   -4.4793    8.2653 O   0  0  0  0  0  0
   -5.2842   -7.3150   11.6574 C   0  0  0  0  0  0
   -6.6567   -6.0236    9.0964 H   0  0  0  0  0  0
   -8.5966   -5.6309    7.6068 H   0  0  0  0  0  0
  -10.7539   -3.7412   10.8401 H   0  0  0  0  0  0
   -9.3441   -4.6009   13.3419 H   0  0  0  0  0  0
   -8.6562   -3.0137   12.8374 H   0  0  0  0  0  0
   -4.6135   -5.4726   12.5198 H   0  0  0  0  0  0
   -4.8323   -5.3970   10.7908 H   0  0  0  0  0  0
   -8.5001   -4.3162   15.3567 H   0  0  0  0  0  0
   -7.4902   -4.0518   17.5862 H   0  0  0  0  0  0
   -5.0214   -4.0295   17.8508 H   0  0  0  0  0  0
   -3.5621   -4.2891   15.8584 H   0  0  0  0  0  0
   -4.5526   -4.5745   13.6213 H   0  0  0  0  0  0
  -11.5484   -4.0253    8.7453 H   0  0  0  0  0  0
   -4.2606   -7.6890   11.5525 H   0  0  0  0  0  0
   -5.8635   -7.6890   10.8076 H   0  0  0  0  0  0
   -5.7077   -7.7465   12.5697 H   0  0  0  0  0  0
  1  2  2  0  0  0
  1  6  1  0  0  0
  1 19  1  0  0  0
  2  3  1  0  0  0
  2 20  1  0  0  0
  3  4  2  0  0  0
  3 17  1  0  0  0
  4  5  1  0  0  0
  4 21  1  0  0  0
  5  6  2  0  0  0
  5  7  1  0  0  0
  6  9  1  0  0  0
  7  8  1  0  0  0
  7 22  1  0  0  0
  7 23  1  0  0  0
  8  9  2  0  0  0
  8 11  1  0  0  0
  9 10  1  0  0  0
 10 18  1  0  0  0
 10 24  1  0  0  0
 10 25  1  0  0  0
 11 12  2  0  0  0
 11 16  1  0  0  0
 12 13  1  0  0  0
 12 26  1  0  0  0
 13 14  2  0  0  0
 13 27  1  0  0  0
 14 15  1  0  0  0
 14 28  1  0  0  0
 15 16  2  0  0  0
 15 29  1  0  0  0
 16 30  1  0  0  0
 17 31  1  0  0  0
 18 32  1  0  0  0
 18 33  1  0  0  0
 18 34  1  0  0  0
M  END
>  <Name>
lit-356

>  <Family>
C.1

>  <RBA>
0.580000

>  <RBA_avg>
0.580000

>  <Method>
RUC

>  <set>
0

$$$$
lit-357
  Cerius2 12180216413D 1   1.00000                          
 Structure written by MMmdl.
 37 40  0  0  0  0  0  0  0  0999 V2000
   -7.5651   -5.5450    9.4703 C   0  0  0  0  0  0
   -8.6768   -5.3253    8.6465 C   0  0  0  0  0  0
   -9.8209   -4.6723    9.1375 C   0  0  0  0  0  0
   -9.8681   -4.2284   10.4588 C   0  0  0  0  0  0
   -8.7539   -4.4619   11.2458 C   0  0  0  0  0  0
   -7.6171   -5.1078   10.7851 C   0  0  0  0  0  0
   -8.5093   -4.1154   12.6381 C   0  0  0  0  0  0
   -7.1390   -4.6123   12.9704 C   0  0  0  0  0  0
   -6.6199   -5.1898   11.8589 C   0  0  0  0  0  0
   -5.2789   -5.7878   11.7782 C   0  0  0  0  0  0
   -6.5280   -4.4596   14.2946 C   0  0  0  0  0  0
   -7.3363   -4.3242   15.4319 C   0  0  0  0  0  0
   -6.7620   -4.1767   16.6974 C   0  0  0  0  0  0
   -5.3784   -4.1680   16.8289 C   0  0  0  0  0  0
   -4.5579   -4.3064   15.7152 C   0  0  0  0  0  0
   -5.1338   -4.4542   14.4497 C   0  0  0  0  0  0
   -4.1311   -5.0023   11.9485 C   0  0  0  0  0  0
   -2.8616   -5.5790   11.8671 C   0  0  0  0  0  0
   -2.7293   -6.9427   11.6115 C   0  0  0  0  0  0
   -3.8649   -7.7315   11.4355 C   0  0  0  0  0  0
   -5.1353   -7.1568   11.5168 C   0  0  0  0  0  0
   -4.8546   -4.0219   18.0792 O   0  0  0  0  0  0
   -9.2883   -3.5384   13.3760 O   0  0  0  0  0  0
   -6.6858   -6.0467    9.0750 H   0  0  0  0  0  0
   -8.6546   -5.6633    7.6109 H   0  0  0  0  0  0
  -10.6736   -4.5111    8.4795 H   0  0  0  0  0  0
  -10.7421   -3.7198   10.8528 H   0  0  0  0  0  0
   -8.4220   -4.3271   15.3437 H   0  0  0  0  0  0
   -7.3992   -4.0694   17.5723 H   0  0  0  0  0  0
   -3.4746   -4.3031   15.8091 H   0  0  0  0  0  0
   -4.4799   -4.5677   13.5860 H   0  0  0  0  0  0
   -4.2149   -3.9344   12.1445 H   0  0  0  0  0  0
   -1.9752   -4.9619   12.0027 H   0  0  0  0  0  0
   -1.7394   -7.3914   11.5483 H   0  0  0  0  0  0
   -3.7623   -8.7965   11.2351 H   0  0  0  0  0  0
   -6.0114   -7.7890   11.3801 H   0  0  0  0  0  0
   -3.8761   -4.0346   18.0081 H   0  0  0  0  0  0
  1  2  2  0  0  0
  1  6  1  0  0  0
  1 24  1  0  0  0
  2  3  1  0  0  0
  2 25  1  0  0  0
  3  4  2  0  0  0
  3 26  1  0  0  0
  4  5  1  0  0  0
  4 27  1  0  0  0
  5  6  2  0  0  0
  5  7  1  0  0  0
  6  9  1  0  0  0
  7  8  1  0  0  0
  7 23  2  0  0  0
  8  9  2  0  0  0
  8 11  1  0  0  0
  9 10  1  0  0  0
 10 17  2  0  0  0
 10 21  1  0  0  0
 11 12  2  0  0  0
 11 16  1  0  0  0
 12 13  1  0  0  0
 12 28  1  0  0  0
 13 14  2  0  0  0
 13 29  1  0  0  0
 14 15  1  0  0  0
 14 22  1  0  0  0
 15 16  2  0  0  0
 15 30  1  0  0  0
 16 31  1  0  0  0
 17 18  1  0  0  0
 17 32  1  0  0  0
 18 19  2  0  0  0
 18 33  1  0  0  0
 19 20  1  0  0  0
 19 34  1  0  0  0
 20 21  2  0  0  0
 20 35  1  0  0  0
 21 36  1  0  0  0
 22 37  1  0  0  0
M  END
>  <Name>
lit-357

>  <Family>
C.1

>  <RBA>
0.450000

>  <RBA_avg>
0.450000

>  <Method>
RUC

>  <set>
0

$$$$
lit-358
  Cerius2 12180216413D 1   1.00000                          
 Structure written by MMmdl.
 38 41  0  0  0  0  0  0  0  0999 V2000
   -7.6033   -5.5330    9.4998 C   0  0  0  0  0  0
   -8.7313   -5.3317    8.6976 C   0  0  0  0  0  0
   -9.8705   -4.6921    9.2109 C   0  0  0  0  0  0
   -9.8976   -4.2422   10.5318 C   0  0  0  0  0  0
   -8.7731   -4.4492   11.3152 C   0  0  0  0  0  0
   -7.6355   -5.0912   10.8142 C   0  0  0  0  0  0
   -8.5426   -4.0565   12.7396 C   0  0  0  0  0  0
   -7.1374   -4.5886   12.9694 C   0  0  0  0  0  0
   -6.6040   -5.1671   11.8635 C   0  0  0  0  0  0
   -5.2578   -5.7476   11.7571 C   0  0  0  0  0  0
   -6.5289   -4.4321   14.2991 C   0  0  0  0  0  0
   -7.3351   -4.3066   15.4393 C   0  0  0  0  0  0
   -6.7613   -4.1748   16.7075 C   0  0  0  0  0  0
   -5.3784   -4.1748   16.8412 C   0  0  0  0  0  0
   -4.5586   -4.3067   15.7270 C   0  0  0  0  0  0
   -5.1351   -4.4382   14.4596 C   0  0  0  0  0  0
   -4.1175   -4.9494   11.9199 C   0  0  0  0  0  0
   -2.8413   -5.5069   11.8110 C   0  0  0  0  0  0
   -2.6943   -6.8652   11.5352 C   0  0  0  0  0  0
   -3.8217   -7.6672   11.3666 C   0  0  0  0  0  0
   -5.0984   -7.1108   11.4755 C   0  0  0  0  0  0
   -4.8551   -4.0449   18.0934 O   0  0  0  0  0  0
   -6.7252   -6.0249    9.0905 H   0  0  0  0  0  0
   -8.7259   -5.6733    7.6634 H   0  0  0  0  0  0
  -10.7391   -4.5436    8.5706 H   0  0  0  0  0  0
  -10.7769   -3.7423   10.9295 H   0  0  0  0  0  0
   -9.2647   -4.5461   13.4006 H   0  0  0  0  0  0
   -8.5919   -2.9689   12.8477 H   0  0  0  0  0  0
   -8.4205   -4.2948   15.3556 H   0  0  0  0  0  0
   -7.3993   -4.0717   17.5821 H   0  0  0  0  0  0
   -3.4753   -4.3130   15.8213 H   0  0  0  0  0  0
   -4.4796   -4.5547   13.5978 H   0  0  0  0  0  0
   -4.2147   -3.8857   12.1320 H   0  0  0  0  0  0
   -1.9616   -4.8792   11.9411 H   0  0  0  0  0  0
   -1.6995   -7.2993   11.4505 H   0  0  0  0  0  0
   -3.7082   -8.7280   11.1507 H   0  0  0  0  0  0
   -5.9687   -7.7524   11.3449 H   0  0  0  0  0  0
   -3.8766   -4.0628   18.0229 H   0  0  0  0  0  0
  1  2  2  0  0  0
  1  6  1  0  0  0
  1 23  1  0  0  0
  2  3  1  0  0  0
  2 24  1  0  0  0
  3  4  2  0  0  0
  3 25  1  0  0  0
  4  5  1  0  0  0
  4 26  1  0  0  0
  5  6  2  0  0  0
  5  7  1  0  0  0
  6  9  1  0  0  0
  7  8  1  0  0  0
  7 27  1  0  0  0
  7 28  1  0  0  0
  8  9  2  0  0  0
  8 11  1  0  0  0
  9 10  1  0  0  0
 10 17  2  0  0  0
 10 21  1  0  0  0
 11 12  2  0  0  0
 11 16  1  0  0  0
 12 13  1  0  0  0
 12 29  1  0  0  0
 13 14  2  0  0  0
 13 30  1  0  0  0
 14 15  1  0  0  0
 14 22  1  0  0  0
 15 16  2  0  0  0
 15 31  1  0  0  0
 16 32  1  0  0  0
 17 18  1  0  0  0
 17 33  1  0  0  0
 18 19  2  0  0  0
 18 34  1  0  0  0
 19 20  1  0  0  0
 19 35  1  0  0  0
 20 21  2  0  0  0
 20 36  1  0  0  0
 21 37  1  0  0  0
 22 38  1  0  0  0
M  END
>  <Name>
lit-358

>  <Family>
C.1

>  <RBA>
0.360000

>  <RBA_avg>
0.360000

>  <Method>
RUC

>  <set>
0

$$$$
lit-359
  Cerius2 12180216413D 1   1.00000                          
 Structure written by MMmdl.
 38 41  0  0  0  0  0  0  0  0999 V2000
   -7.5762   -5.5605    9.4834 C   0  0  0  0  0  0
   -8.6920   -5.3467    8.6673 C   0  0  0  0  0  0
   -9.8250   -4.6821    9.1624 C   0  0  0  0  0  0
   -9.8580   -4.2195   10.4788 C   0  0  0  0  0  0
   -8.7457   -4.4390   11.2760 C   0  0  0  0  0  0
   -7.6145   -5.1057   10.7932 C   0  0  0  0  0  0
   -8.5234   -4.0372   12.6993 C   0  0  0  0  0  0
   -7.1303   -4.5916   12.9488 C   0  0  0  0  0  0
   -6.5957   -5.1897   11.8540 C   0  0  0  0  0  0
   -5.2587   -5.7940   11.7675 C   0  0  0  0  0  0
   -6.5331   -4.4327   14.2834 C   0  0  0  0  0  0
   -7.3486   -4.3082   15.4164 C   0  0  0  0  0  0
   -6.7861   -4.1746   16.6890 C   0  0  0  0  0  0
   -5.4018   -4.1707   16.8442 C   0  0  0  0  0  0
   -4.5793   -4.3024   15.7281 C   0  0  0  0  0  0
   -5.1417   -4.4358   14.4556 C   0  0  0  0  0  0
   -4.1064   -5.0129   11.9329 C   0  0  0  0  0  0
   -2.8386   -5.5935   11.8422 C   0  0  0  0  0  0
   -2.7219   -6.9542   11.5826 C   0  0  0  0  0  0
   -3.8523   -7.7458   11.4110 C   0  0  0  0  0  0
   -5.1202   -7.1638   11.5020 C   0  0  0  0  0  0
   -1.4685   -7.4852   11.5007 O   0  0  0  0  0  0
   -6.7030   -6.0718    9.0879 H   0  0  0  0  0  0
   -8.6818   -5.6980    7.6364 H   0  0  0  0  0  0
  -10.6839   -4.5242    8.5113 H   0  0  0  0  0  0
  -10.7323   -3.7002   10.8624 H   0  0  0  0  0  0
   -9.2609   -4.5081   13.3570 H   0  0  0  0  0  0
   -8.5547   -2.9480   12.7969 H   0  0  0  0  0  0
   -8.4333   -4.2988   15.3233 H   0  0  0  0  0  0
   -7.4316   -4.0720   17.5596 H   0  0  0  0  0  0
   -4.9641   -4.0669   17.8354 H   0  0  0  0  0  0
   -3.4971   -4.3050   15.8459 H   0  0  0  0  0  0
   -4.4779   -4.5517   13.6003 H   0  0  0  0  0  0
   -4.1875   -3.9457   12.1330 H   0  0  0  0  0  0
   -1.9511   -4.9791   11.9740 H   0  0  0  0  0  0
   -3.7693   -8.8107   11.2074 H   0  0  0  0  0  0
   -6.0008   -7.7911   11.3701 H   0  0  0  0  0  0
   -1.5510   -8.4452   11.3150 H   0  0  0  0  0  0
  1  2  2  0  0  0
  1  6  1  0  0  0
  1 23  1  0  0  0
  2  3  1  0  0  0
  2 24  1  0  0  0
  3  4  2  0  0  0
  3 25  1  0  0  0
  4  5  1  0  0  0
  4 26  1  0  0  0
  5  6  2  0  0  0
  5  7  1  0  0  0
  6  9  1  0  0  0
  7  8  1  0  0  0
  7 27  1  0  0  0
  7 28  1  0  0  0
  8  9  2  0  0  0
  8 11  1  0  0  0
  9 10  1  0  0  0
 10 17  2  0  0  0
 10 21  1  0  0  0
 11 12  2  0  0  0
 11 16  1  0  0  0
 12 13  1  0  0  0
 12 29  1  0  0  0
 13 14  2  0  0  0
 13 30  1  0  0  0
 14 15  1  0  0  0
 14 31  1  0  0  0
 15 16  2  0  0  0
 15 32  1  0  0  0
 16 33  1  0  0  0
 17 18  1  0  0  0
 17 34  1  0  0  0
 18 19  2  0  0  0
 18 35  1  0  0  0
 19 20  1  0  0  0
 19 22  1  0  0  0
 20 21  2  0  0  0
 20 36  1  0  0  0
 21 37  1  0  0  0
 22 38  1  0  0  0
M  END
>  <Name>
lit-359

>  <Family>
C.1

>  <RBA>
0.020000

>  <RBA_avg>
0.020000

>  <Method>
RUC

>  <set>
0

$$$$
lit-360
  Cerius2 12180216413D 1   1.00000                          
 Structure written by MMmdl.
 36 39  0  0  0  0  0  0  0  0999 V2000
   -7.5666   -5.5486    9.4724 C   0  0  0  0  0  0
   -8.6792   -5.3297    8.6496 C   0  0  0  0  0  0
   -9.8221   -4.6751    9.1407 C   0  0  0  0  0  0
   -9.8675   -4.2286   10.4613 C   0  0  0  0  0  0
   -8.7525   -4.4614   11.2472 C   0  0  0  0  0  0
   -7.6167   -5.1089   10.7865 C   0  0  0  0  0  0
   -8.5060   -4.1124   12.6386 C   0  0  0  0  0  0
   -7.1355   -4.6093   12.9703 C   0  0  0  0  0  0
   -6.6181   -5.1895   11.8593 C   0  0  0  0  0  0
   -5.2775   -5.7886   11.7772 C   0  0  0  0  0  0
   -6.5237   -4.4546   14.2938 C   0  0  0  0  0  0
   -7.3309   -4.3187   15.4313 C   0  0  0  0  0  0
   -6.7564   -4.1708   16.6963 C   0  0  0  0  0  0
   -5.3702   -4.1612   16.8365 C   0  0  0  0  0  0
   -4.5570   -4.3011   15.7137 C   0  0  0  0  0  0
   -5.1305   -4.4492   14.4483 C   0  0  0  0  0  0
   -4.1289   -5.0040   11.9456 C   0  0  0  0  0  0
   -2.8599   -5.5812   11.8603 C   0  0  0  0  0  0
   -2.7289   -6.9447   11.6028 C   0  0  0  0  0  0
   -3.8655   -7.7327   11.4291 C   0  0  0  0  0  0
   -5.1352   -7.1574   11.5142 C   0  0  0  0  0  0
   -9.2843   -3.5338   13.3760 O   0  0  0  0  0  0
   -6.6882   -6.0517    9.0769 H   0  0  0  0  0  0
   -8.6584   -5.6696    7.6145 H   0  0  0  0  0  0
  -10.6757   -4.5145    8.4834 H   0  0  0  0  0  0
  -10.7407   -3.7188   10.8552 H   0  0  0  0  0  0
   -8.4167   -4.3219   15.3435 H   0  0  0  0  0  0
   -7.3930   -4.0630   17.5727 H   0  0  0  0  0  0
   -4.9228   -4.0458   17.8223 H   0  0  0  0  0  0
   -3.4738   -4.2963   15.8217 H   0  0  0  0  0  0
   -4.4762   -4.5629   13.5852 H   0  0  0  0  0  0
   -4.2117   -3.9362   12.1430 H   0  0  0  0  0  0
   -1.9729   -4.9647   11.9943 H   0  0  0  0  0  0
   -1.7394   -7.3939   11.5365 H   0  0  0  0  0  0
   -3.7640   -8.7976   11.2273 H   0  0  0  0  0  0
   -6.0121   -7.7890   11.3787 H   0  0  0  0  0  0
  1  2  2  0  0  0
  1  6  1  0  0  0
  1 23  1  0  0  0
  2  3  1  0  0  0
  2 24  1  0  0  0
  3  4  2  0  0  0
  3 25  1  0  0  0
  4  5  1  0  0  0
  4 26  1  0  0  0
  5  6  2  0  0  0
  5  7  1  0  0  0
  6  9  1  0  0  0
  7  8  1  0  0  0
  7 22  2  0  0  0
  8  9  2  0  0  0
  8 11  1  0  0  0
  9 10  1  0  0  0
 10 17  2  0  0  0
 10 21  1  0  0  0
 11 12  2  0  0  0
 11 16  1  0  0  0
 12 13  1  0  0  0
 12 27  1  0  0  0
 13 14  2  0  0  0
 13 28  1  0  0  0
 14 15  1  0  0  0
 14 29  1  0  0  0
 15 16  2  0  0  0
 15 30  1  0  0  0
 16 31  1  0  0  0
 17 18  1  0  0  0
 17 32  1  0  0  0
 18 19  2  0  0  0
 18 33  1  0  0  0
 19 20  1  0  0  0
 19 34  1  0  0  0
 20 21  2  0  0  0
 20 35  1  0  0  0
 21 36  1  0  0  0
M  END
>  <Name>
lit-360

>  <Family>
C.1

>  <RBA>
0.010000

>  <RBA_avg>
0.010000

>  <Method>
RUC

>  <set>
0

$$$$
lit-361
  Cerius2 12180216413D 1   1.00000                          
 Structure written by MMmdl.
 37 39  0  0  0  0  0  0  0  0999 V2000
   -7.5824   -5.5641    9.4466 C   0  0  0  0  0  0
   -8.7129   -5.3319    8.6561 C   0  0  0  0  0  0
   -9.8102   -4.6731    9.1893 C   0  0  0  0  0  0
   -9.8258   -4.2250   10.5106 C   0  0  0  0  0  0
   -8.6813   -4.4622   11.2962 C   0  0  0  0  0  0
   -7.5608   -5.1242   10.7886 C   0  0  0  0  0  0
   -8.4047   -4.1480   12.6163 N   0  0  0  0  0  0
   -7.1419   -4.5948   12.9602 C   0  0  0  0  0  0
   -6.5925   -5.2032   11.8376 C   0  0  0  0  0  0
   -6.5528   -4.4397   14.2895 C   0  0  0  0  0  0
   -5.1620   -4.4413   14.4514 C   0  0  0  0  0  0
   -4.6022   -4.2994   15.7233 C   0  0  0  0  0  0
   -5.4337   -4.1619   16.8297 C   0  0  0  0  0  0
   -6.8177   -4.1652   16.6868 C   0  0  0  0  0  0
   -7.3769   -4.3068   15.4139 C   0  0  0  0  0  0
   -4.8508   -4.0258   18.0551 O   0  0  0  0  0  0
  -10.8878   -4.4751    8.3731 O   0  0  0  0  0  0
   -9.3268   -3.4454   13.5025 C   0  0  0  0  0  0
   -5.2441   -5.8354   11.7505 C   0  0  0  0  0  0
  -10.2899   -4.3883   14.2034 C   0  0  0  0  0  0
   -6.7271   -6.0844    9.0206 H   0  0  0  0  0  0
   -8.7250   -5.6727    7.6230 H   0  0  0  0  0  0
  -10.6912   -3.7137   10.9216 H   0  0  0  0  0  0
   -4.5071   -4.5522   13.5890 H   0  0  0  0  0  0
   -3.5213   -4.2987   15.8427 H   0  0  0  0  0  0
   -7.4737   -4.0607   17.5477 H   0  0  0  0  0  0
   -8.4603   -4.3114   15.3050 H   0  0  0  0  0  0
   -5.5603   -3.9404   18.7275 H   0  0  0  0  0  0
  -11.5791   -4.0009    8.8828 H   0  0  0  0  0  0
   -9.8737   -2.7097   12.9030 H   0  0  0  0  0  0
   -8.7444   -2.8775   14.2339 H   0  0  0  0  0  0
   -4.4917   -5.2242   12.2590 H   0  0  0  0  0  0
   -4.9226   -5.9537   10.7113 H   0  0  0  0  0  0
   -5.2615   -6.8251   12.2179 H   0  0  0  0  0  0
  -10.9634   -3.8247   14.8564 H   0  0  0  0  0  0
   -9.7549   -5.1205   14.8164 H   0  0  0  0  0  0
  -10.8999   -4.9413   13.4816 H   0  0  0  0  0  0
  1  2  2  0  0  0
  1  6  1  0  0  0
  1 21  1  0  0  0
  2  3  1  0  0  0
  2 22  1  0  0  0
  3  4  2  0  0  0
  3 17  1  0  0  0
  4  5  1  0  0  0
  4 23  1  0  0  0
  5  6  2  0  0  0
  5  7  1  0  0  0
  6  9  1  0  0  0
  7  8  1  0  0  0
  7 18  1  0  0  0
  8  9  2  0  0  0
  8 10  1  0  0  0
  9 19  1  0  0  0
 10 11  2  0  0  0
 10 15  1  0  0  0
 11 12  1  0  0  0
 11 24  1  0  0  0
 12 13  2  0  0  0
 12 25  1  0  0  0
 13 14  1  0  0  0
 13 16  1  0  0  0
 14 15  2  0  0  0
 14 26  1  0  0  0
 15 27  1  0  0  0
 16 28  1  0  0  0
 17 29  1  0  0  0
 18 20  1  0  0  0
 18 30  1  0  0  0
 18 31  1  0  0  0
 19 32  1  0  0  0
 19 33  1  0  0  0
 19 34  1  0  0  0
 20 35  1  0  0  0
 20 36  1  0  0  0
 20 37  1  0  0  0
M  END
>  <Name>
lit-361

>  <Family>
C.2

>  <RBA>
33.000000

>  <RBA_avg>
33.000000

>  <Method>
RUC

>  <set>
0

$$$$
lit-362
  Cerius2 12180216413D 1   1.00000                          
 Structure written by MMmdl.
 40 42  0  0  0  0  0  0  0  0999 V2000
   -7.6179   -5.5298    9.4607 C   0  0  0  0  0  0
   -8.7587   -5.2868    8.6960 C   0  0  0  0  0  0
   -9.8671   -4.6496    9.2349 C   0  0  0  0  0  0
   -9.8619   -4.2347   10.5703 C   0  0  0  0  0  0
   -8.7124   -4.4812   11.3432 C   0  0  0  0  0  0
   -7.5906   -5.1203   10.8119 C   0  0  0  0  0  0
   -8.4256   -4.1869   12.6651 N   0  0  0  0  0  0
   -7.1526   -4.6215   12.9879 C   0  0  0  0  0  0
   -6.6090   -5.2077   11.8497 C   0  0  0  0  0  0
   -6.5452   -4.4562   14.3076 C   0  0  0  0  0  0
   -7.3526   -4.3144   15.4427 C   0  0  0  0  0  0
   -6.7720   -4.1613   16.7038 C   0  0  0  0  0  0
   -5.3867   -4.1544   16.8273 C   0  0  0  0  0  0
   -4.5703   -4.2997   15.7101 C   0  0  0  0  0  0
   -5.1521   -4.4528   14.4487 C   0  0  0  0  0  0
   -4.8562   -4.0029   18.0745 O   0  0  0  0  0  0
   -9.3540   -3.5259   13.5763 C   0  0  0  0  0  0
   -5.2448   -5.8205   11.7200 C   0  0  0  0  0  0
   -4.2109   -4.8298   11.2070 C   0  0  0  0  0  0
   -9.2865   -2.0112   13.4772 C   0  0  0  0  0  0
   -8.7474   -5.6976    7.3935 O   0  0  0  0  0  0
   -6.7595   -6.0282    9.0182 H   0  0  0  0  0  0
  -10.7529   -4.4624    8.6311 H   0  0  0  0  0  0
  -10.7314   -3.7325   10.9875 H   0  0  0  0  0  0
   -8.4374   -4.3217   15.3513 H   0  0  0  0  0  0
   -7.4041   -4.0494   17.5817 H   0  0  0  0  0  0
   -3.4866   -4.2978   15.7995 H   0  0  0  0  0  0
   -4.5110   -4.5700   13.5765 H   0  0  0  0  0  0
   -3.8781   -4.0194   17.9987 H   0  0  0  0  0  0
   -9.1358   -3.8540   14.5971 H   0  0  0  0  0  0
  -10.3628   -3.8838   13.3438 H   0  0  0  0  0  0
   -5.2919   -6.6793   11.0396 H   0  0  0  0  0  0
   -4.9164   -6.2176   12.6876 H   0  0  0  0  0  0
   -3.2321   -5.3125   11.1237 H   0  0  0  0  0  0
   -4.1113   -3.9739   11.8827 H   0  0  0  0  0  0
   -4.4855   -4.4460   10.2186 H   0  0  0  0  0  0
   -9.9954   -1.5546   14.1748 H   0  0  0  0  0  0
   -9.5339   -1.6674   12.4676 H   0  0  0  0  0  0
   -8.2852   -1.6407   13.7180 H   0  0  0  0  0  0
   -9.6085   -5.4608    6.9870 H   0  0  0  0  0  0
  1  2  2  0  0  0
  1  6  1  0  0  0
  1 22  1  0  0  0
  2  3  1  0  0  0
  2 21  1  0  0  0
  3  4  2  0  0  0
  3 23  1  0  0  0
  4  5  1  0  0  0
  4 24  1  0  0  0
  5  6  2  0  0  0
  5  7  1  0  0  0
  6  9  1  0  0  0
  7  8  1  0  0  0
  7 17  1  0  0  0
  8  9  2  0  0  0
  8 10  1  0  0  0
  9 18  1  0  0  0
 10 11  2  0  0  0
 10 15  1  0  0  0
 11 12  1  0  0  0
 11 25  1  0  0  0
 12 13  2  0  0  0
 12 26  1  0  0  0
 13 14  1  0  0  0
 13 16  1  0  0  0
 14 15  2  0  0  0
 14 27  1  0  0  0
 15 28  1  0  0  0
 16 29  1  0  0  0
 17 20  1  0  0  0
 17 30  1  0  0  0
 17 31  1  0  0  0
 18 19  1  0  0  0
 18 32  1  0  0  0
 18 33  1  0  0  0
 19 34  1  0  0  0
 19 35  1  0  0  0
 19 36  1  0  0  0
 20 37  1  0  0  0
 20 38  1  0  0  0
 20 39  1  0  0  0
 21 40  1  0  0  0
M  END
>  <Name>
lit-362

>  <Family>
C.2

>  <RBA>
23.000000

>  <RBA_avg>
23.000000

>  <Method>
RUC

>  <set>
1

$$$$
lit-363
  Cerius2 12180216413D 1   1.00000                          
 Structure written by MMmdl.
 40 42  0  0  0  0  0  0  0  0999 V2000
   -7.5814   -5.5596    9.4431 C   0  0  0  0  0  0
   -8.7091   -5.3188    8.6516 C   0  0  0  0  0  0
   -9.8070   -4.6632    9.1877 C   0  0  0  0  0  0
   -9.8267   -4.2284   10.5135 C   0  0  0  0  0  0
   -8.6865   -4.4782   11.3012 C   0  0  0  0  0  0
   -7.5646   -5.1333   10.7895 C   0  0  0  0  0  0
   -8.4117   -4.1747   12.6241 N   0  0  0  0  0  0
   -7.1465   -4.6185   12.9654 C   0  0  0  0  0  0
   -6.5957   -5.2201   11.8388 C   0  0  0  0  0  0
   -6.5556   -4.4535   14.2925 C   0  0  0  0  0  0
   -5.1648   -4.4484   14.4511 C   0  0  0  0  0  0
   -4.6023   -4.2940   15.7203 C   0  0  0  0  0  0
   -5.4314   -4.1502   16.8276 C   0  0  0  0  0  0
   -6.8157   -4.1593   16.6883 C   0  0  0  0  0  0
   -7.3776   -4.3128   15.4178 C   0  0  0  0  0  0
   -4.8460   -4.0020   18.0504 O   0  0  0  0  0  0
  -10.8808   -4.4533    8.3692 O   0  0  0  0  0  0
   -9.3454   -3.5011   13.5207 C   0  0  0  0  0  0
   -5.2365   -5.8475   11.7303 C   0  0  0  0  0  0
   -5.2659   -7.3450   11.9963 C   0  0  0  0  0  0
   -9.2715   -1.9878   13.4074 C   0  0  0  0  0  0
   -6.7237   -6.0747    9.0159 H   0  0  0  0  0  0
   -8.7180   -5.6486    7.6149 H   0  0  0  0  0  0
  -10.6899   -3.7136   10.9250 H   0  0  0  0  0  0
   -4.5115   -4.5650   13.5882 H   0  0  0  0  0  0
   -3.5211   -4.2888   15.8369 H   0  0  0  0  0  0
   -7.4700   -4.0497   17.5497 H   0  0  0  0  0  0
   -8.4610   -4.3210   15.3113 H   0  0  0  0  0  0
   -5.5541   -3.9126   18.7236 H   0  0  0  0  0  0
  -11.5737   -3.9850    8.8819 H   0  0  0  0  0  0
   -9.1374   -3.8198   14.5465 H   0  0  0  0  0  0
  -10.3534   -3.8578   13.2829 H   0  0  0  0  0  0
   -4.5432   -5.3691   12.4319 H   0  0  0  0  0  0
   -4.8283   -5.6660   10.7288 H   0  0  0  0  0  0
   -4.2597   -7.7660   11.9056 H   0  0  0  0  0  0
   -5.9159   -7.8621   11.2825 H   0  0  0  0  0  0
   -5.6355   -7.5624   13.0039 H   0  0  0  0  0  0
   -9.9841   -1.5218   14.0949 H   0  0  0  0  0  0
   -9.5099   -1.6529   12.3925 H   0  0  0  0  0  0
   -8.2708   -1.6184   13.6521 H   0  0  0  0  0  0
  1  2  2  0  0  0
  1  6  1  0  0  0
  1 22  1  0  0  0
  2  3  1  0  0  0
  2 23  1  0  0  0
  3  4  2  0  0  0
  3 17  1  0  0  0
  4  5  1  0  0  0
  4 24  1  0  0  0
  5  6  2  0  0  0
  5  7  1  0  0  0
  6  9  1  0  0  0
  7  8  1  0  0  0
  7 18  1  0  0  0
  8  9  2  0  0  0
  8 10  1  0  0  0
  9 19  1  0  0  0
 10 11  2  0  0  0
 10 15  1  0  0  0
 11 12  1  0  0  0
 11 25  1  0  0  0
 12 13  2  0  0  0
 12 26  1  0  0  0
 13 14  1  0  0  0
 13 16  1  0  0  0
 14 15  2  0  0  0
 14 27  1  0  0  0
 15 28  1  0  0  0
 16 29  1  0  0  0
 17 30  1  0  0  0
 18 21  1  0  0  0
 18 31  1  0  0  0
 18 32  1  0  0  0
 19 20  1  0  0  0
 19 33  1  0  0  0
 19 34  1  0  0  0
 20 35  1  0  0  0
 20 36  1  0  0  0
 20 37  1  0  0  0
 21 38  1  0  0  0
 21 39  1  0  0  0
 21 40  1  0  0  0
M  END
>  <Name>
lit-363

>  <Family>
C.2

>  <RBA>
21.000000

>  <RBA_avg>
21.000000

>  <Method>
RUC

>  <set>
0

$$$$
lit-364
  Cerius2 12180216413D 1   1.00000                          
 Structure written by MMmdl.
 43 45  0  0  0  0  0  0  0  0999 V2000
   -7.5814   -5.5595    9.4430 C   0  0  0  0  0  0
   -8.7103   -5.3210    8.6524 C   0  0  0  0  0  0
   -9.8084   -4.6657    9.1889 C   0  0  0  0  0  0
   -9.8263   -4.2275   10.5136 C   0  0  0  0  0  0
   -8.6833   -4.4717   11.2992 C   0  0  0  0  0  0
   -7.5628   -5.1299   10.7882 C   0  0  0  0  0  0
   -8.4071   -4.1662   12.6209 N   0  0  0  0  0  0
   -7.1436   -4.6133   12.9633 C   0  0  0  0  0  0
   -6.5940   -5.2175   11.8378 C   0  0  0  0  0  0
   -6.5553   -4.4523   14.2923 C   0  0  0  0  0  0
   -5.1642   -4.4491   14.4518 C   0  0  0  0  0  0
   -4.6027   -4.2967   15.7216 C   0  0  0  0  0  0
   -5.4326   -4.1522   16.8282 C   0  0  0  0  0  0
   -6.8168   -4.1591   16.6875 C   0  0  0  0  0  0
   -7.3778   -4.3117   15.4166 C   0  0  0  0  0  0
   -4.8481   -4.0059   18.0516 O   0  0  0  0  0  0
  -10.8843   -4.4607    8.3722 O   0  0  0  0  0  0
   -9.3257   -3.4585   13.5088 C   0  0  0  0  0  0
   -5.2375   -5.8510   11.7313 C   0  0  0  0  0  0
   -5.2713   -7.3446   12.0175 C   0  0  0  0  0  0
  -10.3171   -4.4003   14.1882 C   0  0  0  0  0  0
  -11.2382   -3.6448   15.1317 C   0  0  0  0  0  0
   -6.7246   -6.0764    9.0160 H   0  0  0  0  0  0
   -8.7208   -5.6536    7.6167 H   0  0  0  0  0  0
  -10.6917   -3.7181   10.9271 H   0  0  0  0  0  0
   -4.5106   -4.5639   13.5889 H   0  0  0  0  0  0
   -3.5216   -4.2927   15.8392 H   0  0  0  0  0  0
   -7.4717   -4.0494   17.5485 H   0  0  0  0  0  0
   -8.4611   -4.3202   15.3097 H   0  0  0  0  0  0
   -5.5567   -3.9173   18.7244 H   0  0  0  0  0  0
  -11.5765   -3.9907    8.8843 H   0  0  0  0  0  0
   -9.8476   -2.7029   12.9105 H   0  0  0  0  0  0
   -8.7350   -2.9100   14.2496 H   0  0  0  0  0  0
   -4.5396   -5.3656   12.4234 H   0  0  0  0  0  0
   -4.8328   -5.6844   10.7257 H   0  0  0  0  0  0
   -4.2671   -7.7705   11.9277 H   0  0  0  0  0  0
   -5.9268   -7.8686   11.3137 H   0  0  0  0  0  0
   -5.6369   -7.5469   13.0297 H   0  0  0  0  0  0
   -9.7824   -5.1739   14.7507 H   0  0  0  0  0  0
  -10.9203   -4.9212   13.4354 H   0  0  0  0  0  0
  -11.9429   -4.3344   15.6069 H   0  0  0  0  0  0
  -11.8155   -2.8868   14.5928 H   0  0  0  0  0  0
  -10.6669   -3.1457   15.9211 H   0  0  0  0  0  0
  1  2  2  0  0  0
  1  6  1  0  0  0
  1 23  1  0  0  0
  2  3  1  0  0  0
  2 24  1  0  0  0
  3  4  2  0  0  0
  3 17  1  0  0  0
  4  5  1  0  0  0
  4 25  1  0  0  0
  5  6  2  0  0  0
  5  7  1  0  0  0
  6  9  1  0  0  0
  7  8  1  0  0  0
  7 18  1  0  0  0
  8  9  2  0  0  0
  8 10  1  0  0  0
  9 19  1  0  0  0
 10 11  2  0  0  0
 10 15  1  0  0  0
 11 12  1  0  0  0
 11 26  1  0  0  0
 12 13  2  0  0  0
 12 27  1  0  0  0
 13 14  1  0  0  0
 13 16  1  0  0  0
 14 15  2  0  0  0
 14 28  1  0  0  0
 15 29  1  0  0  0
 16 30  1  0  0  0
 17 31  1  0  0  0
 18 21  1  0  0  0
 18 32  1  0  0  0
 18 33  1  0  0  0
 19 20  1  0  0  0
 19 34  1  0  0  0
 19 35  1  0  0  0
 20 36  1  0  0  0
 20 37  1  0  0  0
 20 38  1  0  0  0
 21 22  1  0  0  0
 21 39  1  0  0  0
 21 40  1  0  0  0
 22 41  1  0  0  0
 22 42  1  0  0  0
 22 43  1  0  0  0
M  END
>  <Name>
lit-364

>  <Family>
C.2

>  <RBA>
19.000000

>  <RBA_avg>
19.000000

>  <Method>
RUC

>  <set>
0

$$$$
lit-365
  Cerius2 12180216413D 1   1.00000                          
 Structure written by MMmdl.
 37 39  0  0  0  0  0  0  0  0999 V2000
   -7.5978   -5.5292    9.4732 C   0  0  0  0  0  0
   -8.7362   -5.3047    8.6993 C   0  0  0  0  0  0
   -9.8572   -4.6765    9.2255 C   0  0  0  0  0  0
   -9.8687   -4.2485   10.5576 C   0  0  0  0  0  0
   -8.7204   -4.4707   11.3382 C   0  0  0  0  0  0
   -7.5906   -5.1053   10.8172 C   0  0  0  0  0  0
   -8.4428   -4.1659   12.6622 N   0  0  0  0  0  0
   -7.1680   -4.5907   12.9922 C   0  0  0  0  0  0
   -6.6314   -5.1770   11.8603 C   0  0  0  0  0  0
   -6.5570   -4.4428   14.3094 C   0  0  0  0  0  0
   -5.1639   -4.4498   14.4491 C   0  0  0  0  0  0
   -4.5829   -4.3088   15.7116 C   0  0  0  0  0  0
   -5.3955   -4.1666   16.8312 C   0  0  0  0  0  0
   -6.7814   -4.1649   16.7107 C   0  0  0  0  0  0
   -7.3619   -4.3062   15.4472 C   0  0  0  0  0  0
   -4.7922   -4.0315   18.0468 O   0  0  0  0  0  0
   -9.3756   -3.4980   13.5649 C   0  0  0  0  0  0
  -10.2947   -4.4854   14.2798 C   0  0  0  0  0  0
  -11.2425   -3.7699   15.2279 C   0  0  0  0  0  0
   -8.7119   -5.7272    7.4007 O   0  0  0  0  0  0
   -6.7297   -6.0249    9.0468 H   0  0  0  0  0  0
  -10.7416   -4.5080    8.6139 H   0  0  0  0  0  0
  -10.7504   -3.7604   10.9656 H   0  0  0  0  0  0
   -5.6423   -5.6153   11.7919 H   0  0  0  0  0  0
   -4.5228   -4.5638   13.5765 H   0  0  0  0  0  0
   -3.5002   -4.3123   15.8133 H   0  0  0  0  0  0
   -7.4231   -4.0566   17.5818 H   0  0  0  0  0  0
   -8.4469   -4.3049   15.3564 H   0  0  0  0  0  0
   -5.4903   -3.9436   18.7306 H   0  0  0  0  0  0
   -9.9540   -2.7793   12.9737 H   0  0  0  0  0  0
   -8.7963   -2.9102   14.2839 H   0  0  0  0  0  0
   -9.7025   -5.2143   14.8451 H   0  0  0  0  0  0
  -10.8784   -5.0557   13.5475 H   0  0  0  0  0  0
  -11.8944   -4.4921   15.7293 H   0  0  0  0  0  0
  -11.8754   -3.0591   14.6872 H   0  0  0  0  0  0
  -10.6882   -3.2219   15.9966 H   0  0  0  0  0  0
   -9.5727   -5.5031    6.9862 H   0  0  0  0  0  0
  1  2  2  0  0  0
  1  6  1  0  0  0
  1 21  1  0  0  0
  2  3  1  0  0  0
  2 20  1  0  0  0
  3  4  2  0  0  0
  3 22  1  0  0  0
  4  5  1  0  0  0
  4 23  1  0  0  0
  5  6  2  0  0  0
  5  7  1  0  0  0
  6  9  1  0  0  0
  7  8  1  0  0  0
  7 17  1  0  0  0
  8  9  2  0  0  0
  8 10  1  0  0  0
  9 24  1  0  0  0
 10 11  2  0  0  0
 10 15  1  0  0  0
 11 12  1  0  0  0
 11 25  1  0  0  0
 12 13  2  0  0  0
 12 26  1  0  0  0
 13 14  1  0  0  0
 13 16  1  0  0  0
 14 15  2  0  0  0
 14 27  1  0  0  0
 15 28  1  0  0  0
 16 29  1  0  0  0
 17 18  1  0  0  0
 17 30  1  0  0  0
 17 31  1  0  0  0
 18 19  1  0  0  0
 18 32  1  0  0  0
 18 33  1  0  0  0
 19 34  1  0  0  0
 19 35  1  0  0  0
 19 36  1  0  0  0
 20 37  1  0  0  0
M  END
>  <Name>
lit-365

>  <Family>
C.2

>  <RBA>
18.000000

>  <RBA_avg>
18.000000

>  <Method>
RUC

>  <set>
0

$$$$
lit-366
  Cerius2 12180216413D 1   1.00000                          
 Structure written by MMmdl.
 34 36  0  0  0  0  0  0  0  0999 V2000
   -7.5688   -5.5565    9.4574 C   0  0  0  0  0  0
   -8.6923   -5.3267    8.6566 C   0  0  0  0  0  0
   -9.8001   -4.6756    9.1810 C   0  0  0  0  0  0
   -9.8347   -4.2310   10.5040 C   0  0  0  0  0  0
   -8.6974   -4.4641   11.2999 C   0  0  0  0  0  0
   -7.5710   -5.1202   10.7977 C   0  0  0  0  0  0
   -8.4299   -4.1519   12.6248 N   0  0  0  0  0  0
   -7.1648   -4.5921   12.9722 C   0  0  0  0  0  0
   -6.6249   -5.1966   11.8516 C   0  0  0  0  0  0
   -6.5639   -4.4403   14.2937 C   0  0  0  0  0  0
   -5.1719   -4.4447   14.4435 C   0  0  0  0  0  0
   -4.6003   -4.3032   15.7104 C   0  0  0  0  0  0
   -5.4213   -4.1635   16.8242 C   0  0  0  0  0  0
   -6.8064   -4.1644   16.6934 C   0  0  0  0  0  0
   -7.3774   -4.3058   15.4256 C   0  0  0  0  0  0
   -4.8272   -4.0279   18.0442 O   0  0  0  0  0  0
  -10.8693   -4.4811    8.3527 O   0  0  0  0  0  0
   -9.3614   -3.4628   13.5110 C   0  0  0  0  0  0
  -10.3038   -4.4216   14.2183 C   0  0  0  0  0  0
   -6.7025   -6.0693    9.0450 H   0  0  0  0  0  0
   -8.6919   -5.6632    7.6220 H   0  0  0  0  0  0
  -10.7073   -3.7254   10.9066 H   0  0  0  0  0  0
   -5.6416   -5.6498   11.7981 H   0  0  0  0  0  0
   -4.5242   -4.5573   13.5757 H   0  0  0  0  0  0
   -3.5183   -4.3046   15.8199 H   0  0  0  0  0  0
   -7.4546   -4.0581   17.5600 H   0  0  0  0  0  0
   -8.4617   -4.3071   15.3269 H   0  0  0  0  0  0
   -5.5305   -3.9413   18.7229 H   0  0  0  0  0  0
  -11.5695   -4.0129    8.8559 H   0  0  0  0  0  0
   -9.9240   -2.7395   12.9113 H   0  0  0  0  0  0
   -8.7861   -2.8826   14.2385 H   0  0  0  0  0  0
  -10.9871   -3.8689   14.8702 H   0  0  0  0  0  0
   -9.7524   -5.1398   14.8334 H   0  0  0  0  0  0
  -10.9036   -4.9901   13.5001 H   0  0  0  0  0  0
  1  2  2  0  0  0
  1  6  1  0  0  0
  1 20  1  0  0  0
  2  3  1  0  0  0
  2 21  1  0  0  0
  3  4  2  0  0  0
  3 17  1  0  0  0
  4  5  1  0  0  0
  4 22  1  0  0  0
  5  6  2  0  0  0
  5  7  1  0  0  0
  6  9  1  0  0  0
  7  8  1  0  0  0
  7 18  1  0  0  0
  8  9  2  0  0  0
  8 10  1  0  0  0
  9 23  1  0  0  0
 10 11  2  0  0  0
 10 15  1  0  0  0
 11 12  1  0  0  0
 11 24  1  0  0  0
 12 13  2  0  0  0
 12 25  1  0  0  0
 13 14  1  0  0  0
 13 16  1  0  0  0
 14 15  2  0  0  0
 14 26  1  0  0  0
 15 27  1  0  0  0
 16 28  1  0  0  0
 17 29  1  0  0  0
 18 19  1  0  0  0
 18 30  1  0  0  0
 18 31  1  0  0  0
 19 32  1  0  0  0
 19 33  1  0  0  0
 19 34  1  0  0  0
M  END
>  <Name>
lit-366

>  <Family>
C.2

>  <RBA>
16.000000

>  <RBA_avg>
16.000000

>  <Method>
RUC

>  <set>
0

$$$$
lit-367
  Cerius2 12180216413D 1   1.00000                          
 Structure written by MMmdl.
 40 42  0  0  0  0  0  0  0  0999 V2000
   -7.6137   -5.5307    9.4624 C   0  0  0  0  0  0
   -8.7570   -5.2978    8.6980 C   0  0  0  0  0  0
   -9.8682   -4.6644    9.2350 C   0  0  0  0  0  0
   -9.8628   -4.2414   10.5679 C   0  0  0  0  0  0
   -8.7092   -4.4738   11.3389 C   0  0  0  0  0  0
   -7.5846   -5.1122   10.8110 C   0  0  0  0  0  0
   -8.4248   -4.1730   12.6598 N   0  0  0  0  0  0
   -7.1524   -4.6050   12.9857 C   0  0  0  0  0  0
   -6.6053   -5.1918   11.8505 C   0  0  0  0  0  0
   -6.5504   -4.4493   14.3088 C   0  0  0  0  0  0
   -5.1579   -4.4510   14.4550 C   0  0  0  0  0  0
   -4.5840   -4.3039   15.7200 C   0  0  0  0  0  0
   -5.4030   -4.1601   16.8348 C   0  0  0  0  0  0
   -6.7884   -4.1629   16.7072 C   0  0  0  0  0  0
   -7.3619   -4.3104   15.4414 C   0  0  0  0  0  0
   -4.8062   -4.0187   18.0529 O   0  0  0  0  0  0
   -9.3455   -3.4871   13.5620 C   0  0  0  0  0  0
  -10.3083   -4.4513   14.2513 C   0  0  0  0  0  0
  -11.2366   -3.7167   15.2040 C   0  0  0  0  0  0
   -8.7461   -5.7172    7.3983 O   0  0  0  0  0  0
   -5.2464   -5.7983   11.7475 C   0  0  0  0  0  0
   -6.7559   -6.0307    9.0201 H   0  0  0  0  0  0
  -10.7571   -4.4878    8.6325 H   0  0  0  0  0  0
  -10.7373   -3.7484   10.9857 H   0  0  0  0  0  0
   -4.5128   -4.5652   13.5857 H   0  0  0  0  0  0
   -3.5017   -4.3034   15.8273 H   0  0  0  0  0  0
   -7.4347   -4.0537   17.5748 H   0  0  0  0  0  0
   -8.4464   -4.3152   15.3448 H   0  0  0  0  0  0
   -5.5082   -3.9294   18.7326 H   0  0  0  0  0  0
   -9.8907   -2.7402   12.9738 H   0  0  0  0  0  0
   -8.7561   -2.9294   14.2969 H   0  0  0  0  0  0
   -9.7499   -5.2122   14.8082 H   0  0  0  0  0  0
  -10.9069   -4.9860   13.5045 H   0  0  0  0  0  0
  -11.9201   -4.4222   15.6866 H   0  0  0  0  0  0
  -11.8370   -2.9727   14.6708 H   0  0  0  0  0  0
  -10.6688   -3.2040   15.9872 H   0  0  0  0  0  0
   -9.6089   -5.4872    6.9917 H   0  0  0  0  0  0
   -4.4819   -5.0875   12.0783 H   0  0  0  0  0  0
   -5.0076   -6.0872   10.7199 H   0  0  0  0  0  0
   -5.1828   -6.6940   12.3736 H   0  0  0  0  0  0
  1  2  2  0  0  0
  1  6  1  0  0  0
  1 22  1  0  0  0
  2  3  1  0  0  0
  2 20  1  0  0  0
  3  4  2  0  0  0
  3 23  1  0  0  0
  4  5  1  0  0  0
  4 24  1  0  0  0
  5  6  2  0  0  0
  5  7  1  0  0  0
  6  9  1  0  0  0
  7  8  1  0  0  0
  7 17  1  0  0  0
  8  9  2  0  0  0
  8 10  1  0  0  0
  9 21  1  0  0  0
 10 11  2  0  0  0
 10 15  1  0  0  0
 11 12  1  0  0  0
 11 25  1  0  0  0
 12 13  2  0  0  0
 12 26  1  0  0  0
 13 14  1  0  0  0
 13 16  1  0  0  0
 14 15  2  0  0  0
 14 27  1  0  0  0
 15 28  1  0  0  0
 16 29  1  0  0  0
 17 18  1  0  0  0
 17 30  1  0  0  0
 17 31  1  0  0  0
 18 19  1  0  0  0
 18 32  1  0  0  0
 18 33  1  0  0  0
 19 34  1  0  0  0
 19 35  1  0  0  0
 19 36  1  0  0  0
 20 37  1  0  0  0
 21 38  1  0  0  0
 21 39  1  0  0  0
 21 40  1  0  0  0
M  END
>  <Name>
lit-367

>  <Family>
C.2

>  <RBA>
16.000000

>  <RBA_avg>
16.000000

>  <Method>
RUC

>  <set>
0

$$$$
lit-368
  Cerius2 12180216413D 1   1.00000                          
 Structure written by MMmdl.
 40 42  0  0  0  0  0  0  0  0999 V2000
   -7.5823   -5.5630    9.4454 C   0  0  0  0  0  0
   -8.7128   -5.3291    8.6553 C   0  0  0  0  0  0
   -9.8101   -4.6712    9.1899 C   0  0  0  0  0  0
   -9.8259   -4.2259   10.5120 C   0  0  0  0  0  0
   -8.6812   -4.4644   11.2969 C   0  0  0  0  0  0
   -7.5606   -5.1253   10.7882 C   0  0  0  0  0  0
   -8.4044   -4.1524   12.6172 N   0  0  0  0  0  0
   -7.1413   -4.5990   12.9604 C   0  0  0  0  0  0
   -6.5920   -5.2056   11.8370 C   0  0  0  0  0  0
   -6.5529   -4.4438   14.2899 C   0  0  0  0  0  0
   -5.1622   -4.4448   14.4519 C   0  0  0  0  0  0
   -4.6025   -4.2998   15.7233 C   0  0  0  0  0  0
   -5.4341   -4.1591   16.8294 C   0  0  0  0  0  0
   -6.8180   -4.1632   16.6863 C   0  0  0  0  0  0
   -7.3772   -4.3084   15.4138 C   0  0  0  0  0  0
   -4.8512   -4.0197   18.0544 O   0  0  0  0  0  0
  -10.8875   -4.4716    8.3739 O   0  0  0  0  0  0
   -9.3264   -3.4513   13.5067 C   0  0  0  0  0  0
   -5.2434   -5.8373   11.7490 C   0  0  0  0  0  0
  -10.2885   -4.4046   14.2116 C   0  0  0  0  0  0
  -11.2156   -3.6558   15.1546 C   0  0  0  0  0  0
   -6.7270   -6.0824    9.0185 H   0  0  0  0  0  0
   -8.7249   -5.6678    7.6216 H   0  0  0  0  0  0
  -10.6913   -3.7154   10.9241 H   0  0  0  0  0  0
   -4.5071   -4.5575   13.5897 H   0  0  0  0  0  0
   -3.5216   -4.2986   15.8429 H   0  0  0  0  0  0
   -7.4741   -4.0564   17.5468 H   0  0  0  0  0  0
   -8.4605   -4.3134   15.3050 H   0  0  0  0  0  0
   -5.5608   -3.9322   18.7264 H   0  0  0  0  0  0
  -11.5788   -3.9981    8.8840 H   0  0  0  0  0  0
   -9.8720   -2.7149   12.9060 H   0  0  0  0  0  0
   -8.7379   -2.8807   14.2320 H   0  0  0  0  0  0
   -4.4904   -5.2239   12.2541 H   0  0  0  0  0  0
   -4.9238   -5.9586   10.7097 H   0  0  0  0  0  0
   -5.2592   -6.8255   12.2196 H   0  0  0  0  0  0
   -9.7299   -5.1574   14.7795 H   0  0  0  0  0  0
  -10.8879   -4.9503   13.4733 H   0  0  0  0  0  0
  -11.8990   -4.3538   15.6482 H   0  0  0  0  0  0
  -11.8160   -2.9194   14.6111 H   0  0  0  0  0  0
  -10.6468   -3.1320   15.9295 H   0  0  0  0  0  0
  1  2  2  0  0  0
  1  6  1  0  0  0
  1 22  1  0  0  0
  2  3  1  0  0  0
  2 23  1  0  0  0
  3  4  2  0  0  0
  3 17  1  0  0  0
  4  5  1  0  0  0
  4 24  1  0  0  0
  5  6  2  0  0  0
  5  7  1  0  0  0
  6  9  1  0  0  0
  7  8  1  0  0  0
  7 18  1  0  0  0
  8  9  2  0  0  0
  8 10  1  0  0  0
  9 19  1  0  0  0
 10 11  2  0  0  0
 10 15  1  0  0  0
 11 12  1  0  0  0
 11 25  1  0  0  0
 12 13  2  0  0  0
 12 26  1  0  0  0
 13 14  1  0  0  0
 13 16  1  0  0  0
 14 15  2  0  0  0
 14 27  1  0  0  0
 15 28  1  0  0  0
 16 29  1  0  0  0
 17 30  1  0  0  0
 18 20  1  0  0  0
 18 31  1  0  0  0
 18 32  1  0  0  0
 19 33  1  0  0  0
 19 34  1  0  0  0
 19 35  1  0  0  0
 20 21  1  0  0  0
 20 36  1  0  0  0
 20 37  1  0  0  0
 21 38  1  0  0  0
 21 39  1  0  0  0
 21 40  1  0  0  0
M  END
>  <Name>
lit-368

>  <Family>
C.2

>  <RBA>
13.000000

>  <RBA_avg>
13.000000

>  <Method>
RUC

>  <set>
1

$$$$
lit-369
  Cerius2 12180216413D 1   1.00000                          
 Structure written by MMmdl.
 40 42  0  0  0  0  0  0  0  0999 V2000
   -7.5765   -5.5525    9.4575 C   0  0  0  0  0  0
   -8.6923   -5.3213    8.6492 C   0  0  0  0  0  0
   -9.7981   -4.6713    9.1702 C   0  0  0  0  0  0
   -9.8358   -4.2359   10.4960 C   0  0  0  0  0  0
   -8.7086   -4.4730   11.3096 C   0  0  0  0  0  0
   -7.5772   -5.1232   10.8041 C   0  0  0  0  0  0
   -8.4496   -4.1755   12.6423 N   0  0  0  0  0  0
   -7.1723   -4.6075   12.9777 C   0  0  0  0  0  0
   -6.6146   -5.2031   11.8542 C   0  0  0  0  0  0
   -6.5670   -4.4482   14.3004 C   0  0  0  0  0  0
   -5.1739   -4.4476   14.4442 C   0  0  0  0  0  0
   -4.5985   -4.2998   15.7083 C   0  0  0  0  0  0
   -5.4163   -4.1572   16.8243 C   0  0  0  0  0  0
   -6.8022   -4.1611   16.6987 C   0  0  0  0  0  0
   -7.3777   -4.3087   15.4339 C   0  0  0  0  0  0
   -4.8182   -4.0153   18.0417 O   0  0  0  0  0  0
  -10.8625   -4.4680    8.3381 O   0  0  0  0  0  0
   -9.3757   -3.5182   13.5768 C   0  0  0  0  0  0
   -5.2579   -5.8183   11.7653 C   0  0  0  0  0  0
  -10.6439   -4.3357   13.8285 C   0  0  0  0  0  0
   -9.6767   -2.0708   13.1861 C   0  0  0  0  0  0
   -6.7106   -6.0629    9.0411 H   0  0  0  0  0  0
   -8.6851   -5.6531    7.6135 H   0  0  0  0  0  0
  -10.7135   -3.7292   10.8818 H   0  0  0  0  0  0
   -4.5300   -4.5621   13.5740 H   0  0  0  0  0  0
   -3.5162   -4.2982   15.8144 H   0  0  0  0  0  0
   -7.4472   -4.0521   17.5673 H   0  0  0  0  0  0
   -8.4622   -4.3125   15.3381 H   0  0  0  0  0  0
   -5.5194   -3.9269   18.7223 H   0  0  0  0  0  0
  -11.5640   -4.0007    8.8398 H   0  0  0  0  0  0
   -8.8641   -3.4672   14.5435 H   0  0  0  0  0  0
   -4.5147   -5.2052   12.2853 H   0  0  0  0  0  0
   -4.9293   -5.9190   10.7265 H   0  0  0  0  0  0
   -5.2659   -6.8142   12.2196 H   0  0  0  0  0  0
  -11.2223   -3.8978   14.6493 H   0  0  0  0  0  0
  -10.3946   -5.3659   14.1062 H   0  0  0  0  0  0
  -11.2983   -4.3756   12.9541 H   0  0  0  0  0  0
  -10.2386   -1.5697   13.9818 H   0  0  0  0  0  0
  -10.2707   -1.9994   12.2713 H   0  0  0  0  0  0
   -8.7495   -1.5096   13.0256 H   0  0  0  0  0  0
  1  2  2  0  0  0
  1  6  1  0  0  0
  1 22  1  0  0  0
  2  3  1  0  0  0
  2 23  1  0  0  0
  3  4  2  0  0  0
  3 17  1  0  0  0
  4  5  1  0  0  0
  4 24  1  0  0  0
  5  6  2  0  0  0
  5  7  1  0  0  0
  6  9  1  0  0  0
  7  8  1  0  0  0
  7 18  1  0  0  0
  8  9  2  0  0  0
  8 10  1  0  0  0
  9 19  1  0  0  0
 10 11  2  0  0  0
 10 15  1  0  0  0
 11 12  1  0  0  0
 11 25  1  0  0  0
 12 13  2  0  0  0
 12 26  1  0  0  0
 13 14  1  0  0  0
 13 16  1  0  0  0
 14 15  2  0  0  0
 14 27  1  0  0  0
 15 28  1  0  0  0
 16 29  1  0  0  0
 17 30  1  0  0  0
 18 20  1  0  0  0
 18 21  1  0  0  0
 18 31  1  0  0  0
 19 32  1  0  0  0
 19 33  1  0  0  0
 19 34  1  0  0  0
 20 35  1  0  0  0
 20 36  1  0  0  0
 20 37  1  0  0  0
 21 38  1  0  0  0
 21 39  1  0  0  0
 21 40  1  0  0  0
M  END
>  <Name>
lit-369

>  <Family>
C.2

>  <RBA>
13.000000

>  <RBA_avg>
13.000000

>  <Method>
RUC

>  <set>
0

$$$$
lit-370
  Cerius2 12180216413D 1   1.00000                          
 Structure written by MMmdl.
 37 39  0  0  0  0  0  0  0  0999 V2000
   -7.5891   -5.5660    9.4404 C   0  0  0  0  0  0
   -8.7259   -5.3357    8.6587 C   0  0  0  0  0  0
   -9.8181   -4.6738    9.1990 C   0  0  0  0  0  0
   -9.8223   -4.2199   10.5185 C   0  0  0  0  0  0
   -8.6709   -4.4537   11.2943 C   0  0  0  0  0  0
   -7.5567   -5.1207   10.7803 C   0  0  0  0  0  0
   -8.3775   -4.1278   12.6057 N   0  0  0  0  0  0
   -7.1229   -4.5953   12.9504 C   0  0  0  0  0  0
   -6.5814   -5.2065   11.8245 C   0  0  0  0  0  0
   -6.5403   -4.4447   14.2837 C   0  0  0  0  0  0
   -7.3674   -4.3053   15.4050 C   0  0  0  0  0  0
   -6.8094   -4.1633   16.6776 C   0  0  0  0  0  0
   -5.4265   -4.1623   16.8266 C   0  0  0  0  0  0
   -4.5905   -4.3025   15.7234 C   0  0  0  0  0  0
   -5.1497   -4.4446   14.4505 C   0  0  0  0  0  0
   -4.9183   -4.0208   18.0840 O   0  0  0  0  0  0
  -10.9024   -4.4787    8.3911 O   0  0  0  0  0  0
   -9.2713   -3.4019   13.4894 C   0  0  0  0  0  0
   -5.2358   -5.8634   11.7178 C   0  0  0  0  0  0
   -5.2834   -7.3391   12.0836 C   0  0  0  0  0  0
   -6.7382   -6.0909    9.0113 H   0  0  0  0  0  0
   -8.7474   -5.6815    7.6274 H   0  0  0  0  0  0
  -10.6838   -3.7062   10.9345 H   0  0  0  0  0  0
   -8.4506   -4.3100   15.2956 H   0  0  0  0  0  0
   -7.4572   -4.0554   17.5443 H   0  0  0  0  0  0
   -3.5087   -4.3042   15.8323 H   0  0  0  0  0  0
   -4.4928   -4.5535   13.5891 H   0  0  0  0  0  0
   -3.9389   -4.0383   18.0252 H   0  0  0  0  0  0
  -11.5887   -4.0008    8.9043 H   0  0  0  0  0  0
   -8.6885   -2.8040   14.1940 H   0  0  0  0  0  0
   -9.8877   -4.1323   14.0192 H   0  0  0  0  0  0
   -9.8971   -2.7263   12.9023 H   0  0  0  0  0  0
   -4.5143   -5.3529   12.3658 H   0  0  0  0  0  0
   -4.8532   -5.7565   10.6957 H   0  0  0  0  0  0
   -4.2882   -7.7852   11.9911 H   0  0  0  0  0  0
   -5.9649   -7.8886   11.4254 H   0  0  0  0  0  0
   -5.6254   -7.4821   13.1143 H   0  0  0  0  0  0
  1  2  2  0  0  0
  1  6  1  0  0  0
  1 21  1  0  0  0
  2  3  1  0  0  0
  2 22  1  0  0  0
  3  4  2  0  0  0
  3 17  1  0  0  0
  4  5  1  0  0  0
  4 23  1  0  0  0
  5  6  2  0  0  0
  5  7  1  0  0  0
  6  9  1  0  0  0
  7  8  1  0  0  0
  7 18  1  0  0  0
  8  9  2  0  0  0
  8 10  1  0  0  0
  9 19  1  0  0  0
 10 11  2  0  0  0
 10 15  1  0  0  0
 11 12  1  0  0  0
 11 24  1  0  0  0
 12 13  2  0  0  0
 12 25  1  0  0  0
 13 14  1  0  0  0
 13 16  1  0  0  0
 14 15  2  0  0  0
 14 26  1  0  0  0
 15 27  1  0  0  0
 16 28  1  0  0  0
 17 29  1  0  0  0
 18 30  1  0  0  0
 18 31  1  0  0  0
 18 32  1  0  0  0
 19 20  1  0  0  0
 19 33  1  0  0  0
 19 34  1  0  0  0
 20 35  1  0  0  0
 20 36  1  0  0  0
 20 37  1  0  0  0
M  END
>  <Name>
lit-370

>  <Family>
C.2

>  <RBA>
5.900000

>  <RBA_avg>
5.900000

>  <Method>
RUC

>  <set>
0

$$$$
lit-371
  Cerius2 12180216413D 1   1.00000                          
 Structure written by MMmdl.
 37 39  0  0  0  0  0  0  0  0999 V2000
   -7.6131   -5.5312    9.4631 C   0  0  0  0  0  0
   -8.7557   -5.2981    8.6976 C   0  0  0  0  0  0
   -9.8672   -4.6644    9.2335 C   0  0  0  0  0  0
   -9.8628   -4.2415   10.5664 C   0  0  0  0  0  0
   -8.7100   -4.4741   11.3388 C   0  0  0  0  0  0
   -7.5851   -5.1126   10.8116 C   0  0  0  0  0  0
   -8.4268   -4.1734   12.6602 N   0  0  0  0  0  0
   -7.1542   -4.6046   12.9864 C   0  0  0  0  0  0
   -6.6066   -5.1920   11.8517 C   0  0  0  0  0  0
   -6.5513   -4.4475   14.3091 C   0  0  0  0  0  0
   -5.1587   -4.4490   14.4544 C   0  0  0  0  0  0
   -4.5839   -4.3031   15.7190 C   0  0  0  0  0  0
   -5.4021   -4.1608   16.8347 C   0  0  0  0  0  0
   -6.7876   -4.1637   16.7081 C   0  0  0  0  0  0
   -7.3621   -4.3099   15.4424 C   0  0  0  0  0  0
   -4.8047   -4.0207   18.0526 O   0  0  0  0  0  0
   -9.3478   -3.4869   13.5599 C   0  0  0  0  0  0
  -10.3144   -4.4409   14.2411 C   0  0  0  0  0  0
   -8.7435   -5.7174    7.3979 O   0  0  0  0  0  0
   -5.2476   -5.7987   11.7492 C   0  0  0  0  0  0
   -6.7552   -6.0314    9.0216 H   0  0  0  0  0  0
  -10.7555   -4.4875    8.6303 H   0  0  0  0  0  0
  -10.7375   -3.7481   10.9834 H   0  0  0  0  0  0
   -4.5142   -4.5623   13.5845 H   0  0  0  0  0  0
   -3.5016   -4.3026   15.8256 H   0  0  0  0  0  0
   -7.4334   -4.0556   17.5763 H   0  0  0  0  0  0
   -8.4466   -4.3152   15.3466 H   0  0  0  0  0  0
   -5.5062   -3.9333   18.7330 H   0  0  0  0  0  0
   -9.8919   -2.7380   12.9744 H   0  0  0  0  0  0
   -8.7643   -2.9357   14.3035 H   0  0  0  0  0  0
  -10.9853   -3.8886   14.9063 H   0  0  0  0  0  0
   -9.7821   -5.1880   14.8381 H   0  0  0  0  0  0
  -10.9270   -4.9763   13.5085 H   0  0  0  0  0  0
   -9.6057   -5.4867    6.9902 H   0  0  0  0  0  0
   -4.4831   -5.0871   12.0777 H   0  0  0  0  0  0
   -5.0096   -6.0901   10.7221 H   0  0  0  0  0  0
   -5.1836   -6.6930   12.3775 H   0  0  0  0  0  0
  1  2  2  0  0  0
  1  6  1  0  0  0
  1 21  1  0  0  0
  2  3  1  0  0  0
  2 19  1  0  0  0
  3  4  2  0  0  0
  3 22  1  0  0  0
  4  5  1  0  0  0
  4 23  1  0  0  0
  5  6  2  0  0  0
  5  7  1  0  0  0
  6  9  1  0  0  0
  7  8  1  0  0  0
  7 17  1  0  0  0
  8  9  2  0  0  0
  8 10  1  0  0  0
  9 20  1  0  0  0
 10 11  2  0  0  0
 10 15  1  0  0  0
 11 12  1  0  0  0
 11 24  1  0  0  0
 12 13  2  0  0  0
 12 25  1  0  0  0
 13 14  1  0  0  0
 13 16  1  0  0  0
 14 15  2  0  0  0
 14 26  1  0  0  0
 15 27  1  0  0  0
 16 28  1  0  0  0
 17 18  1  0  0  0
 17 29  1  0  0  0
 17 30  1  0  0  0
 18 31  1  0  0  0
 18 32  1  0  0  0
 18 33  1  0  0  0
 19 34  1  0  0  0
 20 35  1  0  0  0
 20 36  1  0  0  0
 20 37  1  0  0  0
M  END
>  <Name>
lit-371

>  <Family>
C.2

>  <RBA>
9.500000

>  <RBA_avg>
9.500000

>  <Method>
RUC

>  <set>
0

$$$$
lit-372
  Cerius2 12180216413D 1   1.00000                          
 Structure written by MMmdl.
 37 39  0  0  0  0  0  0  0  0999 V2000
   -7.5691   -5.5561    9.4565 C   0  0  0  0  0  0
   -8.6933   -5.3262    8.6567 C   0  0  0  0  0  0
   -9.8007   -4.6753    9.1820 C   0  0  0  0  0  0
   -9.8345   -4.2309   10.5050 C   0  0  0  0  0  0
   -8.6963   -4.4639   11.2999 C   0  0  0  0  0  0
   -7.5703   -5.1200   10.7968 C   0  0  0  0  0  0
   -8.4278   -4.1521   12.6243 N   0  0  0  0  0  0
   -7.1628   -4.5926   12.9712 C   0  0  0  0  0  0
   -6.6235   -5.1969   11.8502 C   0  0  0  0  0  0
   -6.5629   -4.4423   14.2932 C   0  0  0  0  0  0
   -5.1709   -4.4468   14.4444 C   0  0  0  0  0  0
   -4.6004   -4.3040   15.7116 C   0  0  0  0  0  0
   -5.4224   -4.1626   16.8243 C   0  0  0  0  0  0
   -6.8073   -4.1631   16.6925 C   0  0  0  0  0  0
   -7.3773   -4.3062   15.4243 C   0  0  0  0  0  0
   -4.8293   -4.0258   18.0448 O   0  0  0  0  0  0
  -10.8707   -4.4809    8.3546 O   0  0  0  0  0  0
   -9.3591   -3.4633   13.5127 C   0  0  0  0  0  0
  -10.2985   -4.4314   14.2275 C   0  0  0  0  0  0
  -11.2439   -3.6947   15.1618 C   0  0  0  0  0  0
   -6.7032   -6.0691    9.0434 H   0  0  0  0  0  0
   -8.6937   -5.6624    7.6219 H   0  0  0  0  0  0
  -10.7069   -3.7256   10.9085 H   0  0  0  0  0  0
   -5.6403   -5.6504   11.7959 H   0  0  0  0  0  0
   -4.5225   -4.5602   13.5772 H   0  0  0  0  0  0
   -3.5185   -4.3055   15.8220 H   0  0  0  0  0  0
   -7.4562   -4.0554   17.5583 H   0  0  0  0  0  0
   -8.4616   -4.3070   15.3248 H   0  0  0  0  0  0
   -5.5332   -3.9388   18.7228 H   0  0  0  0  0  0
  -11.5707   -4.0131    8.8583 H   0  0  0  0  0  0
   -9.9218   -2.7415   12.9103 H   0  0  0  0  0  0
   -8.7781   -2.8774   14.2320 H   0  0  0  0  0  0
   -9.7218   -5.1642   14.8036 H   0  0  0  0  0  0
  -10.8842   -4.9991   13.4948 H   0  0  0  0  0  0
  -11.9103   -4.4035   15.6631 H   0  0  0  0  0  0
  -11.8618   -2.9791   14.6102 H   0  0  0  0  0  0
  -10.6883   -3.1486   15.9309 H   0  0  0  0  0  0
  1  2  2  0  0  0
  1  6  1  0  0  0
  1 21  1  0  0  0
  2  3  1  0  0  0
  2 22  1  0  0  0
  3  4  2  0  0  0
  3 17  1  0  0  0
  4  5  1  0  0  0
  4 23  1  0  0  0
  5  6  2  0  0  0
  5  7  1  0  0  0
  6  9  1  0  0  0
  7  8  1  0  0  0
  7 18  1  0  0  0
  8  9  2  0  0  0
  8 10  1  0  0  0
  9 24  1  0  0  0
 10 11  2  0  0  0
 10 15  1  0  0  0
 11 12  1  0  0  0
 11 25  1  0  0  0
 12 13  2  0  0  0
 12 26  1  0  0  0
 13 14  1  0  0  0
 13 16  1  0  0  0
 14 15  2  0  0  0
 14 27  1  0  0  0
 15 28  1  0  0  0
 16 29  1  0  0  0
 17 30  1  0  0  0
 18 19  1  0  0  0
 18 31  1  0  0  0
 18 32  1  0  0  0
 19 20  1  0  0  0
 19 33  1  0  0  0
 19 34  1  0  0  0
 20 35  1  0  0  0
 20 36  1  0  0  0
 20 37  1  0  0  0
M  END
>  <Name>
lit-372

>  <Family>
C.2

>  <RBA>
8.500000

>  <RBA_avg>
8.500000

>  <Method>
RUC

>  <set>
0

$$$$
lit-373
  Cerius2 12180216413D 1   1.00000                          
 Structure written by MMmdl.
 40 42  0  0  0  0  0  0  0  0999 V2000
   -7.5908   -5.5213    9.4582 C   0  0  0  0  0  0
   -8.7225   -5.2833    8.6781 C   0  0  0  0  0  0
   -9.8430   -4.6564    9.2033 C   0  0  0  0  0  0
   -9.8591   -4.2450   10.5398 C   0  0  0  0  0  0
   -8.7175   -4.4834   11.3270 C   0  0  0  0  0  0
   -7.5844   -5.1165   10.8112 C   0  0  0  0  0  0
   -8.4526   -4.1905   12.6536 N   0  0  0  0  0  0
   -7.1835   -4.6213   12.9946 C   0  0  0  0  0  0
   -6.6211   -5.2041   11.8648 C   0  0  0  0  0  0
   -6.5948   -4.4580   14.3234 C   0  0  0  0  0  0
   -5.2043   -4.4540   14.4816 C   0  0  0  0  0  0
   -4.6534   -4.2974   15.7504 C   0  0  0  0  0  0
   -5.4665   -4.1479   16.8698 C   0  0  0  0  0  0
   -6.8533   -4.1588   16.7165 C   0  0  0  0  0  0
   -7.4166   -4.3160   15.4479 C   0  0  0  0  0  0
   -9.3821   -3.4988   13.5425 C   0  0  0  0  0  0
  -10.3773   -4.4527   14.1991 C   0  0  0  0  0  0
  -11.3074   -3.7133   15.1464 C   0  0  0  0  0  0
   -8.6902   -5.6904    7.3748 O   0  0  0  0  0  0
   -5.2578   -5.8024   11.7721 C   0  0  0  0  0  0
   -3.2934   -4.2949   15.8619 O   0  0  0  0  0  0
   -6.7246   -6.0143    9.0247 H   0  0  0  0  0  0
  -10.7225   -4.4752    8.5885 H   0  0  0  0  0  0
  -10.7400   -3.7554   10.9479 H   0  0  0  0  0  0
   -4.5524   -4.5698   13.6187 H   0  0  0  0  0  0
   -5.0410   -4.0252   17.8631 H   0  0  0  0  0  0
   -7.4977   -4.0462   17.5865 H   0  0  0  0  0  0
   -8.5004   -4.3275   15.3431 H   0  0  0  0  0  0
   -9.9007   -2.7366   12.9495 H   0  0  0  0  0  0
   -8.8003   -2.9591   14.2968 H   0  0  0  0  0  0
   -9.8460   -5.2340   14.7541 H   0  0  0  0  0  0
  -10.9733   -4.9633   13.4335 H   0  0  0  0  0  0
  -12.0146   -4.4113   15.6053 H   0  0  0  0  0  0
  -11.8818   -2.9483   14.6142 H   0  0  0  0  0  0
  -10.7436   -3.2252   15.9478 H   0  0  0  0  0  0
   -9.5471   -5.4586    6.9569 H   0  0  0  0  0  0
   -4.4993   -5.0132   11.7643 H   0  0  0  0  0  0
   -5.1390   -6.3974   10.8618 H   0  0  0  0  0  0
   -5.0646   -6.4620   12.6242 H   0  0  0  0  0  0
   -3.0607   -4.1780   16.8078 H   0  0  0  0  0  0
  1  2  2  0  0  0
  1  6  1  0  0  0
  1 22  1  0  0  0
  2  3  1  0  0  0
  2 19  1  0  0  0
  3  4  2  0  0  0
  3 23  1  0  0  0
  4  5  1  0  0  0
  4 24  1  0  0  0
  5  6  2  0  0  0
  5  7  1  0  0  0
  6  9  1  0  0  0
  7  8  1  0  0  0
  7 16  1  0  0  0
  8  9  2  0  0  0
  8 10  1  0  0  0
  9 20  1  0  0  0
 10 11  2  0  0  0
 10 15  1  0  0  0
 11 12  1  0  0  0
 11 25  1  0  0  0
 12 13  2  0  0  0
 12 21  1  0  0  0
 13 14  1  0  0  0
 13 26  1  0  0  0
 14 15  2  0  0  0
 14 27  1  0  0  0
 15 28  1  0  0  0
 16 17  1  0  0  0
 16 29  1  0  0  0
 16 30  1  0  0  0
 17 18  1  0  0  0
 17 31  1  0  0  0
 17 32  1  0  0  0
 18 33  1  0  0  0
 18 34  1  0  0  0
 18 35  1  0  0  0
 19 36  1  0  0  0
 20 37  1  0  0  0
 20 38  1  0  0  0
 20 39  1  0  0  0
 21 40  1  0  0  0
M  END
>  <Name>
lit-373

>  <Family>
C.2

>  <RBA>
7.400000

>  <RBA_avg>
7.400000

>  <Method>
RUC

>  <set>
0

$$$$
lit-374
  Cerius2 12180216413D 1   1.00000                          
 Structure written by MMmdl.
 34 36  0  0  0  0  0  0  0  0999 V2000
   -7.5860   -5.5622    9.4398 C   0  0  0  0  0  0
   -8.7188   -5.3282    8.6531 C   0  0  0  0  0  0
   -9.8146   -4.6706    9.1911 C   0  0  0  0  0  0
   -9.8253   -4.2227   10.5125 C   0  0  0  0  0  0
   -8.6776   -4.4598   11.2932 C   0  0  0  0  0  0
   -7.5615   -5.1264   10.7831 C   0  0  0  0  0  0
   -8.3878   -4.1311   12.6051 N   0  0  0  0  0  0
   -7.1368   -4.6044   12.9571 C   0  0  0  0  0  0
   -6.5935   -5.2163   11.8322 C   0  0  0  0  0  0
   -6.5479   -4.4457   14.2888 C   0  0  0  0  0  0
   -7.3672   -4.3083   15.4169 C   0  0  0  0  0  0
   -6.8015   -4.1626   16.6860 C   0  0  0  0  0  0
   -5.4182   -4.1582   16.8266 C   0  0  0  0  0  0
   -4.5890   -4.2983   15.7185 C   0  0  0  0  0  0
   -5.1561   -4.4438   14.4492 C   0  0  0  0  0  0
   -4.9027   -4.0141   18.0809 O   0  0  0  0  0  0
  -10.8951   -4.4720    8.3790 O   0  0  0  0  0  0
   -9.2753   -3.3795   13.4739 C   0  0  0  0  0  0
   -5.2508   -5.8598   11.7353 C   0  0  0  0  0  0
   -6.7320   -6.0822    9.0107 H   0  0  0  0  0  0
   -8.7341   -5.6671    7.6194 H   0  0  0  0  0  0
  -10.6883   -3.7092   10.9261 H   0  0  0  0  0  0
   -8.4512   -4.3189   15.3165 H   0  0  0  0  0  0
   -7.4443   -4.0560   17.5567 H   0  0  0  0  0  0
   -3.5065   -4.2971   15.8207 H   0  0  0  0  0  0
   -4.5027   -4.5516   13.5847 H   0  0  0  0  0  0
   -3.9237   -4.0312   18.0168 H   0  0  0  0  0  0
  -11.5852   -3.9995    8.8919 H   0  0  0  0  0  0
   -8.6868   -2.7810   14.1730 H   0  0  0  0  0  0
   -9.9067   -4.0926   14.0093 H   0  0  0  0  0  0
   -9.8869   -2.7016   12.8742 H   0  0  0  0  0  0
   -4.4844   -5.1033   11.5392 H   0  0  0  0  0  0
   -5.2189   -6.5975   10.9278 H   0  0  0  0  0  0
   -4.9955   -6.3809   12.6638 H   0  0  0  0  0  0
  1  2  2  0  0  0
  1  6  1  0  0  0
  1 20  1  0  0  0
  2  3  1  0  0  0
  2 21  1  0  0  0
  3  4  2  0  0  0
  3 17  1  0  0  0
  4  5  1  0  0  0
  4 22  1  0  0  0
  5  6  2  0  0  0
  5  7  1  0  0  0
  6  9  1  0  0  0
  7  8  1  0  0  0
  7 18  1  0  0  0
  8  9  2  0  0  0
  8 10  1  0  0  0
  9 19  1  0  0  0
 10 11  2  0  0  0
 10 15  1  0  0  0
 11 12  1  0  0  0
 11 23  1  0  0  0
 12 13  2  0  0  0
 12 24  1  0  0  0
 13 14  1  0  0  0
 13 16  1  0  0  0
 14 15  2  0  0  0
 14 25  1  0  0  0
 15 26  1  0  0  0
 16 27  1  0  0  0
 17 28  1  0  0  0
 18 29  1  0  0  0
 18 30  1  0  0  0
 18 31  1  0  0  0
 19 32  1  0  0  0
 19 33  1  0  0  0
 19 34  1  0  0  0
M  END
>  <Name>
lit-374

>  <Family>
C.2

>  <RBA>
10.000000

>  <RBA_avg>
10.000000

>  <Method>
RUC

>  <set>
2

$$$$
lit-375
  Cerius2 12180216413D 1   1.00000                          
 Structure written by MMmdl.
 34 36  0  0  0  0  0  0  0  0999 V2000
   -7.5971   -5.5295    9.4739 C   0  0  0  0  0  0
   -8.7343   -5.3040    8.6986 C   0  0  0  0  0  0
   -9.8554   -4.6750    9.2236 C   0  0  0  0  0  0
   -9.8685   -4.2481   10.5560 C   0  0  0  0  0  0
   -8.7214   -4.4717   11.3383 C   0  0  0  0  0  0
   -7.5912   -5.1062   10.8181 C   0  0  0  0  0  0
   -8.4459   -4.1686   12.6633 N   0  0  0  0  0  0
   -7.1706   -4.5922   12.9936 C   0  0  0  0  0  0
   -6.6329   -5.1780   11.8619 C   0  0  0  0  0  0
   -6.5588   -4.4423   14.3101 C   0  0  0  0  0  0
   -5.1653   -4.4487   14.4482 C   0  0  0  0  0  0
   -4.5828   -4.3079   15.7102 C   0  0  0  0  0  0
   -5.3943   -4.1666   16.8308 C   0  0  0  0  0  0
   -6.7804   -4.1654   16.7118 C   0  0  0  0  0  0
   -7.3624   -4.3062   15.4488 C   0  0  0  0  0  0
   -4.7896   -4.0314   18.0456 O   0  0  0  0  0  0
   -9.3798   -3.5032   13.5647 C   0  0  0  0  0  0
   -8.7087   -5.7258    7.3998 O   0  0  0  0  0  0
  -10.3029   -4.4835   14.2680 C   0  0  0  0  0  0
   -6.7285   -6.0253    9.0483 H   0  0  0  0  0  0
  -10.7388   -4.5052    8.6109 H   0  0  0  0  0  0
  -10.7501   -3.7593   10.9632 H   0  0  0  0  0  0
   -5.6432   -5.6152   11.7940 H   0  0  0  0  0  0
   -4.5253   -4.5620   13.5749 H   0  0  0  0  0  0
   -3.5000   -4.3109   15.8105 H   0  0  0  0  0  0
   -7.4211   -4.0577   17.5838 H   0  0  0  0  0  0
   -8.4476   -4.3057   15.3591 H   0  0  0  0  0  0
   -5.4871   -3.9432   18.7302 H   0  0  0  0  0  0
   -9.9575   -2.7813   12.9779 H   0  0  0  0  0  0
   -8.8071   -2.9235   14.2946 H   0  0  0  0  0  0
   -9.5691   -5.5018    6.9846 H   0  0  0  0  0  0
  -10.9879   -3.9481   14.9325 H   0  0  0  0  0  0
   -9.7364   -5.2016   14.8694 H   0  0  0  0  0  0
  -10.9013   -5.0514   13.5480 H   0  0  0  0  0  0
  1  2  2  0  0  0
  1  6  1  0  0  0
  1 20  1  0  0  0
  2  3  1  0  0  0
  2 18  1  0  0  0
  3  4  2  0  0  0
  3 21  1  0  0  0
  4  5  1  0  0  0
  4 22  1  0  0  0
  5  6  2  0  0  0
  5  7  1  0  0  0
  6  9  1  0  0  0
  7  8  1  0  0  0
  7 17  1  0  0  0
  8  9  2  0  0  0
  8 10  1  0  0  0
  9 23  1  0  0  0
 10 11  2  0  0  0
 10 15  1  0  0  0
 11 12  1  0  0  0
 11 24  1  0  0  0
 12 13  2  0  0  0
 12 25  1  0  0  0
 13 14  1  0  0  0
 13 16  1  0  0  0
 14 15  2  0  0  0
 14 26  1  0  0  0
 15 27  1  0  0  0
 16 28  1  0  0  0
 17 19  1  0  0  0
 17 29  1  0  0  0
 17 30  1  0  0  0
 18 31  1  0  0  0
 19 32  1  0  0  0
 19 33  1  0  0  0
 19 34  1  0  0  0
M  END
>  <Name>
lit-375

>  <Family>
C.2

>  <RBA>
5.800000

>  <RBA_avg>
5.800000

>  <Method>
RUC

>  <set>
1

$$$$
lit-376
  Cerius2 12180216413D 1   1.00000                          
 Structure written by MMmdl.
 34 36  0  0  0  0  0  0  0  0999 V2000
   -7.6201   -5.5312    9.4578 C   0  0  0  0  0  0
   -8.7679   -5.3033    8.6987 C   0  0  0  0  0  0
   -9.8777   -4.6710    9.2401 C   0  0  0  0  0  0
   -9.8654   -4.2413   10.5709 C   0  0  0  0  0  0
   -8.7064   -4.4667   11.3357 C   0  0  0  0  0  0
   -7.5859   -5.1093   10.8050 C   0  0  0  0  0  0
   -8.4070   -4.1466   12.6472 N   0  0  0  0  0  0
   -7.1440   -4.6023   12.9796 C   0  0  0  0  0  0
   -6.6040   -5.1936   11.8421 C   0  0  0  0  0  0
   -6.5423   -4.4465   14.3059 C   0  0  0  0  0  0
   -7.3507   -4.3082   15.4417 C   0  0  0  0  0  0
   -6.7729   -4.1643   16.7055 C   0  0  0  0  0  0
   -5.3883   -4.1629   16.8332 C   0  0  0  0  0  0
   -4.5698   -4.3044   15.7174 C   0  0  0  0  0  0
   -5.1491   -4.4479   14.4532 C   0  0  0  0  0  0
   -4.8607   -4.0203   18.0826 O   0  0  0  0  0  0
   -9.2970   -3.4192   13.5334 C   0  0  0  0  0  0
   -8.7632   -5.7274    7.4006 O   0  0  0  0  0  0
   -5.2519   -5.8134   11.7227 C   0  0  0  0  0  0
   -6.7634   -6.0317    9.0138 H   0  0  0  0  0  0
  -10.7706   -4.4990    8.6420 H   0  0  0  0  0  0
  -10.7380   -3.7467   10.9906 H   0  0  0  0  0  0
   -8.4357   -4.3162   15.3515 H   0  0  0  0  0  0
   -7.4073   -4.0568   17.5824 H   0  0  0  0  0  0
   -3.4864   -4.3053   15.8094 H   0  0  0  0  0  0
   -4.5039   -4.5564   13.5827 H   0  0  0  0  0  0
   -3.8824   -4.0385   18.0093 H   0  0  0  0  0  0
   -8.7106   -2.8148   14.2294 H   0  0  0  0  0  0
   -9.9072   -4.1483   14.0717 H   0  0  0  0  0  0
   -9.9297   -2.7487   12.9475 H   0  0  0  0  0  0
   -9.6289   -5.5007    6.9978 H   0  0  0  0  0  0
   -4.5010   -5.0424   11.5233 H   0  0  0  0  0  0
   -5.2183   -6.5436   10.9083 H   0  0  0  0  0  0
   -4.9761   -6.3380   12.6432 H   0  0  0  0  0  0
  1  2  2  0  0  0
  1  6  1  0  0  0
  1 20  1  0  0  0
  2  3  1  0  0  0
  2 18  1  0  0  0
  3  4  2  0  0  0
  3 21  1  0  0  0
  4  5  1  0  0  0
  4 22  1  0  0  0
  5  6  2  0  0  0
  5  7  1  0  0  0
  6  9  1  0  0  0
  7  8  1  0  0  0
  7 17  1  0  0  0
  8  9  2  0  0  0
  8 10  1  0  0  0
  9 19  1  0  0  0
 10 11  2  0  0  0
 10 15  1  0  0  0
 11 12  1  0  0  0
 11 23  1  0  0  0
 12 13  2  0  0  0
 12 24  1  0  0  0
 13 14  1  0  0  0
 13 16  1  0  0  0
 14 15  2  0  0  0
 14 25  1  0  0  0
 15 26  1  0  0  0
 16 27  1  0  0  0
 17 28  1  0  0  0
 17 29  1  0  0  0
 17 30  1  0  0  0
 18 31  1  0  0  0
 19 32  1  0  0  0
 19 33  1  0  0  0
 19 34  1  0  0  0
M  END
>  <Name>
lit-376

>  <Family>
C.2

>  <RBA>
4.600000

>  <RBA_avg>
4.600000

>  <Method>
RUC

>  <set>
0

$$$$
lit-377
  Cerius2 12180216413D 1   1.00000                          
 Structure written by MMmdl.
 43 45  0  0  0  0  0  0  0  0999 V2000
   -7.6141   -5.5262    9.4608 C   0  0  0  0  0  0
   -8.7531   -5.2818    8.6937 C   0  0  0  0  0  0
   -9.8638   -4.6480    9.2314 C   0  0  0  0  0  0
   -9.8620   -4.2359   10.5677 C   0  0  0  0  0  0
   -8.7132   -4.4809   11.3418 C   0  0  0  0  0  0
   -7.5901   -5.1210   10.8134 C   0  0  0  0  0  0
   -8.4306   -4.1883   12.6651 N   0  0  0  0  0  0
   -7.1597   -4.6254   12.9913 C   0  0  0  0  0  0
   -6.6149   -5.2135   11.8554 C   0  0  0  0  0  0
   -6.5512   -4.4591   14.3105 C   0  0  0  0  0  0
   -7.3542   -4.3160   15.4482 C   0  0  0  0  0  0
   -6.7689   -4.1595   16.7068 C   0  0  0  0  0  0
   -5.3833   -4.1521   16.8255 C   0  0  0  0  0  0
   -4.5708   -4.3002   15.7058 C   0  0  0  0  0  0
   -5.1572   -4.4561   14.4468 C   0  0  0  0  0  0
   -4.8485   -3.9976   18.0705 O   0  0  0  0  0  0
   -9.3447   -3.4856   13.5613 C   0  0  0  0  0  0
   -8.7381   -5.6895    7.3901 O   0  0  0  0  0  0
   -5.2565   -5.8192   11.7417 C   0  0  0  0  0  0
  -10.3553   -4.4258   14.2171 C   0  0  0  0  0  0
  -11.2822   -3.6649   15.1636 C   0  0  0  0  0  0
  -12.2921   -4.5927   15.8195 C   0  0  0  0  0  0
   -6.7553   -6.0242    9.0181 H   0  0  0  0  0  0
  -10.7491   -4.4618    8.6265 H   0  0  0  0  0  0
  -10.7351   -3.7403   10.9856 H   0  0  0  0  0  0
   -8.4392   -4.3278   15.3624 H   0  0  0  0  0  0
   -7.3980   -4.0467   17.5867 H   0  0  0  0  0  0
   -3.4869   -4.2978   15.7914 H   0  0  0  0  0  0
   -4.5192   -4.5730   13.5723 H   0  0  0  0  0  0
   -3.8706   -4.0143   17.9913 H   0  0  0  0  0  0
   -9.8517   -2.7117   12.9734 H   0  0  0  0  0  0
   -8.7514   -2.9600   14.3168 H   0  0  0  0  0  0
   -9.5983   -5.4525    6.9819 H   0  0  0  0  0  0
   -4.5053   -5.0351   11.6039 H   0  0  0  0  0  0
   -5.1942   -6.5063   10.8924 H   0  0  0  0  0  0
   -5.0038   -6.3880   12.6423 H   0  0  0  0  0  0
   -9.8305   -5.2135   14.7703 H   0  0  0  0  0  0
  -10.9506   -4.9311   13.4466 H   0  0  0  0  0  0
  -11.8171   -2.8830   14.6120 H   0  0  0  0  0  0
  -10.6922   -3.1677   15.9422 H   0  0  0  0  0  0
  -12.9447   -4.0277   16.4925 H   0  0  0  0  0  0
  -11.7891   -5.3683   16.4058 H   0  0  0  0  0  0
  -12.9204   -5.0823   15.0686 H   0  0  0  0  0  0
  1  2  2  0  0  0
  1  6  1  0  0  0
  1 23  1  0  0  0
  2  3  1  0  0  0
  2 18  1  0  0  0
  3  4  2  0  0  0
  3 24  1  0  0  0
  4  5  1  0  0  0
  4 25  1  0  0  0
  5  6  2  0  0  0
  5  7  1  0  0  0
  6  9  1  0  0  0
  7  8  1  0  0  0
  7 17  1  0  0  0
  8  9  2  0  0  0
  8 10  1  0  0  0
  9 19  1  0  0  0
 10 11  2  0  0  0
 10 15  1  0  0  0
 11 12  1  0  0  0
 11 26  1  0  0  0
 12 13  2  0  0  0
 12 27  1  0  0  0
 13 14  1  0  0  0
 13 16  1  0  0  0
 14 15  2  0  0  0
 14 28  1  0  0  0
 15 29  1  0  0  0
 16 30  1  0  0  0
 17 20  1  0  0  0
 17 31  1  0  0  0
 17 32  1  0  0  0
 18 33  1  0  0  0
 19 34  1  0  0  0
 19 35  1  0  0  0
 19 36  1  0  0  0
 20 21  1  0  0  0
 20 37  1  0  0  0
 20 38  1  0  0  0
 21 22  1  0  0  0
 21 39  1  0  0  0
 21 40  1  0  0  0
 22 41  1  0  0  0
 22 42  1  0  0  0
 22 43  1  0  0  0
M  END
>  <Name>
lit-377

>  <Family>
C.2

>  <RBA>
4.600000

>  <RBA_avg>
4.600000

>  <Method>
RUC

>  <set>
0

$$$$
lit-378
  Cerius2 12180216413D 1   1.00000                          
 Structure written by MMmdl.
 40 42  0  0  0  0  0  0  0  0999 V2000
   -7.5686   -5.5534    9.4558 C   0  0  0  0  0  0
   -8.6900   -5.3174    8.6538 C   0  0  0  0  0  0
   -9.7981   -4.6674    9.1791 C   0  0  0  0  0  0
   -9.8357   -4.2314   10.5047 C   0  0  0  0  0  0
   -8.7020   -4.4746   11.3028 C   0  0  0  0  0  0
   -7.5743   -5.1267   10.7991 C   0  0  0  0  0  0
   -8.4377   -4.1700   12.6301 N   0  0  0  0  0  0
   -7.1750   -4.6154   12.9794 C   0  0  0  0  0  0
   -6.6283   -5.2035   11.8531 C   0  0  0  0  0  0
   -6.5692   -4.4545   14.2978 C   0  0  0  0  0  0
   -7.3714   -4.3128   15.4362 C   0  0  0  0  0  0
   -6.7859   -4.1591   16.6953 C   0  0  0  0  0  0
   -5.4003   -4.1539   16.8142 C   0  0  0  0  0  0
   -4.5885   -4.3020   15.6942 C   0  0  0  0  0  0
   -5.1753   -4.4550   14.4349 C   0  0  0  0  0  0
   -4.8652   -4.0020   18.0592 O   0  0  0  0  0  0
   -9.3546   -3.4422   13.5029 C   0  0  0  0  0  0
  -10.4042   -4.3535   14.1380 C   0  0  0  0  0  0
  -11.3288   -3.5660   15.0649 C   0  0  0  0  0  0
  -12.3778   -4.4643   15.7001 C   0  0  0  0  0  0
  -10.8641   -4.4648    8.3487 O   0  0  0  0  0  0
   -6.7010   -6.0624    9.0416 H   0  0  0  0  0  0
   -8.6870   -5.6466    7.6167 H   0  0  0  0  0  0
  -10.7073   -3.7248   10.9083 H   0  0  0  0  0  0
   -5.6414   -5.6487   11.7965 H   0  0  0  0  0  0
   -8.4565   -4.3247   15.3519 H   0  0  0  0  0  0
   -7.4149   -4.0472   17.5753 H   0  0  0  0  0  0
   -3.5045   -4.3017   15.7796 H   0  0  0  0  0  0
   -4.5366   -4.5706   13.5606 H   0  0  0  0  0  0
   -3.8874   -4.0193   17.9799 H   0  0  0  0  0  0
   -9.8279   -2.6585   12.9002 H   0  0  0  0  0  0
   -8.7651   -2.9297   14.2704 H   0  0  0  0  0  0
   -9.9135   -5.1550   14.7023 H   0  0  0  0  0  0
  -10.9974   -4.8429   13.3559 H   0  0  0  0  0  0
  -11.8299   -2.7699   14.5021 H   0  0  0  0  0  0
  -10.7414   -3.0848   15.8556 H   0  0  0  0  0  0
  -13.0281   -3.8805   16.3590 H   0  0  0  0  0  0
  -11.9093   -5.2532   16.2971 H   0  0  0  0  0  0
  -13.0040   -4.9368   14.9365 H   0  0  0  0  0  0
  -11.5650   -3.9987    8.8528 H   0  0  0  0  0  0
  1  2  2  0  0  0
  1  6  1  0  0  0
  1 22  1  0  0  0
  2  3  1  0  0  0
  2 23  1  0  0  0
  3  4  2  0  0  0
  3 21  1  0  0  0
  4  5  1  0  0  0
  4 24  1  0  0  0
  5  6  2  0  0  0
  5  7  1  0  0  0
  6  9  1  0  0  0
  7  8  1  0  0  0
  7 17  1  0  0  0
  8  9  2  0  0  0
  8 10  1  0  0  0
  9 25  1  0  0  0
 10 11  2  0  0  0
 10 15  1  0  0  0
 11 12  1  0  0  0
 11 26  1  0  0  0
 12 13  2  0  0  0
 12 27  1  0  0  0
 13 14  1  0  0  0
 13 16  1  0  0  0
 14 15  2  0  0  0
 14 28  1  0  0  0
 15 29  1  0  0  0
 16 30  1  0  0  0
 17 18  1  0  0  0
 17 31  1  0  0  0
 17 32  1  0  0  0
 18 19  1  0  0  0
 18 33  1  0  0  0
 18 34  1  0  0  0
 19 20  1  0  0  0
 19 35  1  0  0  0
 19 36  1  0  0  0
 20 37  1  0  0  0
 20 38  1  0  0  0
 20 39  1  0  0  0
 21 40  1  0  0  0
M  END
>  <Name>
lit-378

>  <Family>
C.2

>  <RBA>
4.300000

>  <RBA_avg>
4.300000

>  <Method>
RUC

>  <set>
2

$$$$
lit-379
  Cerius2 12180216413D 1   1.00000                          
 Structure written by MMmdl.
 31 33  0  0  0  0  0  0  0  0999 V2000
   -7.5739   -5.5651    9.4576 C   0  0  0  0  0  0
   -8.7022   -5.3494    8.6595 C   0  0  0  0  0  0
   -9.8071   -4.6895    9.1789 C   0  0  0  0  0  0
   -9.8337   -4.2208   10.4938 C   0  0  0  0  0  0
   -8.6916   -4.4406   11.2866 C   0  0  0  0  0  0
   -7.5694   -5.1067   10.7903 C   0  0  0  0  0  0
   -8.4102   -4.0928   12.5983 N   0  0  0  0  0  0
   -7.1634   -4.5691   12.9664 C   0  0  0  0  0  0
   -6.6200   -5.1679   11.8423 C   0  0  0  0  0  0
   -6.5643   -4.4247   14.2942 C   0  0  0  0  0  0
   -7.3676   -4.2997   15.4358 C   0  0  0  0  0  0
   -6.7863   -4.1728   16.7005 C   0  0  0  0  0  0
   -5.4019   -4.1777   16.8253 C   0  0  0  0  0  0
   -4.5873   -4.3104   15.7062 C   0  0  0  0  0  0
   -5.1705   -4.4373   14.4416 C   0  0  0  0  0  0
   -4.8710   -4.0521   18.0750 O   0  0  0  0  0  0
   -9.2971   -3.3121   13.4409 C   0  0  0  0  0  0
  -10.8815   -4.5100    8.3540 O   0  0  0  0  0  0
   -6.7103   -6.0859    9.0494 H   0  0  0  0  0  0
   -8.7079   -5.7040    7.6308 H   0  0  0  0  0  0
  -10.7032   -3.7067   10.8925 H   0  0  0  0  0  0
   -5.6401   -5.6291   11.7915 H   0  0  0  0  0  0
   -8.4530   -4.3088   15.3525 H   0  0  0  0  0  0
   -7.4187   -4.0751   17.5799 H   0  0  0  0  0  0
   -3.5035   -4.3181   15.7953 H   0  0  0  0  0  0
   -4.5255   -4.5398   13.5701 H   0  0  0  0  0  0
   -3.8929   -4.0744   17.9994 H   0  0  0  0  0  0
   -8.7085   -2.7165   14.1424 H   0  0  0  0  0  0
   -9.9540   -4.0041   13.9732 H   0  0  0  0  0  0
   -9.8828   -2.6298   12.8203 H   0  0  0  0  0  0
  -11.5791   -4.0340    8.8535 H   0  0  0  0  0  0
  1  2  2  0  0  0
  1  6  1  0  0  0
  1 19  1  0  0  0
  2  3  1  0  0  0
  2 20  1  0  0  0
  3  4  2  0  0  0
  3 18  1  0  0  0
  4  5  1  0  0  0
  4 21  1  0  0  0
  5  6  2  0  0  0
  5  7  1  0  0  0
  6  9  1  0  0  0
  7  8  1  0  0  0
  7 17  1  0  0  0
  8  9  2  0  0  0
  8 10  1  0  0  0
  9 22  1  0  0  0
 10 11  2  0  0  0
 10 15  1  0  0  0
 11 12  1  0  0  0
 11 23  1  0  0  0
 12 13  2  0  0  0
 12 24  1  0  0  0
 13 14  1  0  0  0
 13 16  1  0  0  0
 14 15  2  0  0  0
 14 25  1  0  0  0
 15 26  1  0  0  0
 16 27  1  0  0  0
 17 28  1  0  0  0
 17 29  1  0  0  0
 17 30  1  0  0  0
 18 31  1  0  0  0
M  END
>  <Name>
lit-379

>  <Family>
C.2

>  <RBA>
3.800000

>  <RBA_avg>
3.800000

>  <Method>
RUC

>  <set>
1

$$$$
lit-380
  Cerius2 12180216413D 1   1.00000                          
 Structure written by MMmdl.
 40 42  0  0  0  0  0  0  0  0999 V2000
   -7.6044   -5.5274    9.4741 C   0  0  0  0  0  0
   -8.7338   -5.3000    8.6908 C   0  0  0  0  0  0
   -9.8516   -4.6690    9.2110 C   0  0  0  0  0  0
   -9.8660   -4.2470   10.5448 C   0  0  0  0  0  0
   -8.7290   -4.4741   11.3448 C   0  0  0  0  0  0
   -7.5956   -5.1077   10.8235 C   0  0  0  0  0  0
   -8.4599   -4.1792   12.6758 N   0  0  0  0  0  0
   -7.1765   -4.6026   12.9971 C   0  0  0  0  0  0
   -6.6221   -5.1838   11.8644 C   0  0  0  0  0  0
   -6.5613   -4.4469   14.3155 C   0  0  0  0  0  0
   -5.1672   -4.4491   14.4485 C   0  0  0  0  0  0
   -4.5821   -4.3054   15.7086 C   0  0  0  0  0  0
   -5.3912   -4.1634   16.8310 C   0  0  0  0  0  0
   -6.7779   -4.1639   16.7160 C   0  0  0  0  0  0
   -7.3632   -4.3076   15.4552 C   0  0  0  0  0  0
   -4.7835   -4.0254   18.0442 O   0  0  0  0  0  0
   -9.3812   -3.5294   13.6197 C   0  0  0  0  0  0
   -8.7012   -5.7201    7.3921 O   0  0  0  0  0  0
   -5.2588   -5.7820   11.7620 C   0  0  0  0  0  0
  -10.6379   -4.3595   13.8873 C   0  0  0  0  0  0
   -9.7023   -2.0859   13.2301 C   0  0  0  0  0  0
   -6.7376   -6.0241    9.0457 H   0  0  0  0  0  0
  -10.7317   -4.4923    8.5958 H   0  0  0  0  0  0
  -10.7525   -3.7545   10.9332 H   0  0  0  0  0  0
   -4.5303   -4.5628   13.5731 H   0  0  0  0  0  0
   -3.4990   -4.3062   15.8063 H   0  0  0  0  0  0
   -7.4160   -4.0551   17.5897 H   0  0  0  0  0  0
   -8.4484   -4.3092   15.3676 H   0  0  0  0  0  0
   -5.4793   -3.9366   18.7303 H   0  0  0  0  0  0
   -8.8584   -3.4703   14.5799 H   0  0  0  0  0  0
   -9.5586   -5.4935    6.9721 H   0  0  0  0  0  0
   -4.5102   -5.1236   12.2147 H   0  0  0  0  0  0
   -4.9658   -5.9443   10.7206 H   0  0  0  0  0  0
   -5.2308   -6.7471   12.2780 H   0  0  0  0  0  0
  -11.2126   -3.9253   14.7127 H   0  0  0  0  0  0
  -10.3747   -5.3860   14.1655 H   0  0  0  0  0  0
  -11.3006   -4.4092   13.0197 H   0  0  0  0  0  0
  -10.2584   -1.5889   14.0324 H   0  0  0  0  0  0
  -10.3095   -2.0224   12.3234 H   0  0  0  0  0  0
   -8.7831   -1.5158   13.0560 H   0  0  0  0  0  0
  1  2  2  0  0  0
  1  6  1  0  0  0
  1 22  1  0  0  0
  2  3  1  0  0  0
  2 18  1  0  0  0
  3  4  2  0  0  0
  3 23  1  0  0  0
  4  5  1  0  0  0
  4 24  1  0  0  0
  5  6  2  0  0  0
  5  7  1  0  0  0
  6  9  1  0  0  0
  7  8  1  0  0  0
  7 17  1  0  0  0
  8  9  2  0  0  0
  8 10  1  0  0  0
  9 19  1  0  0  0
 10 11  2  0  0  0
 10 15  1  0  0  0
 11 12  1  0  0  0
 11 25  1  0  0  0
 12 13  2  0  0  0
 12 26  1  0  0  0
 13 14  1  0  0  0
 13 16  1  0  0  0
 14 15  2  0  0  0
 14 27  1  0  0  0
 15 28  1  0  0  0
 16 29  1  0  0  0
 17 20  1  0  0  0
 17 21  1  0  0  0
 17 30  1  0  0  0
 18 31  1  0  0  0
 19 32  1  0  0  0
 19 33  1  0  0  0
 19 34  1  0  0  0
 20 35  1  0  0  0
 20 36  1  0  0  0
 20 37  1  0  0  0
 21 38  1  0  0  0
 21 39  1  0  0  0
 21 40  1  0  0  0
M  END
>  <Name>
lit-380

>  <Family>
C.2

>  <RBA>
3.500000

>  <RBA_avg>
3.500000

>  <Method>
RUC

>  <set>
0

$$$$
lit-381
  Cerius2 12180216413D 1   1.00000                          
 Structure written by MMmdl.
 40 42  0  0  0  0  0  0  0  0999 V2000
   -7.5638   -5.5503    9.4425 C   0  0  0  0  0  0
   -8.6858   -5.3180    8.6400 C   0  0  0  0  0  0
   -9.7943   -4.6717    9.1654 C   0  0  0  0  0  0
   -9.8297   -4.2365   10.4904 C   0  0  0  0  0  0
   -8.6935   -4.4737   11.2881 C   0  0  0  0  0  0
   -7.5619   -5.1234   10.7891 C   0  0  0  0  0  0
   -8.4356   -4.1682   12.6136 N   0  0  0  0  0  0
   -7.1738   -4.6076   12.9696 C   0  0  0  0  0  0
   -6.6065   -5.2046   11.8499 C   0  0  0  0  0  0
   -6.6007   -4.4504   14.3059 C   0  0  0  0  0  0
   -5.2123   -4.4485   14.4826 C   0  0  0  0  0  0
   -4.6783   -4.2981   15.7594 C   0  0  0  0  0  0
   -5.5061   -4.1532   16.8684 C   0  0  0  0  0  0
   -6.8908   -4.1622   16.6966 C   0  0  0  0  0  0
   -7.4374   -4.3128   15.4198 C   0  0  0  0  0  0
   -9.3712   -3.4732   13.4936 C   0  0  0  0  0  0
  -10.8625   -4.4728    8.3372 O   0  0  0  0  0  0
  -10.3521   -4.4295   14.1682 C   0  0  0  0  0  0
  -11.2943   -3.6864   15.1006 C   0  0  0  0  0  0
   -5.2511   -5.8236   11.7793 C   0  0  0  0  0  0
   -3.3199   -4.2972   15.8890 O   0  0  0  0  0  0
   -6.6998   -6.0603    9.0218 H   0  0  0  0  0  0
   -8.6823   -5.6485    7.6035 H   0  0  0  0  0  0
  -10.7034   -3.7346   10.8953 H   0  0  0  0  0  0
   -4.5492   -4.5617   13.6280 H   0  0  0  0  0  0
   -5.0939   -4.0353   17.8679 H   0  0  0  0  0  0
   -7.5468   -4.0527   17.5584 H   0  0  0  0  0  0
   -8.5196   -4.3204   15.2999 H   0  0  0  0  0  0
   -9.9010   -2.7268   12.8907 H   0  0  0  0  0  0
   -8.7940   -2.9144   14.2373 H   0  0  0  0  0  0
  -11.5635   -4.0082    8.8423 H   0  0  0  0  0  0
   -9.8087   -5.1914   14.7385 H   0  0  0  0  0  0
  -10.9394   -4.9637   13.4122 H   0  0  0  0  0  0
  -11.9915   -4.3863   15.5716 H   0  0  0  0  0  0
  -11.8793   -2.9400   14.5537 H   0  0  0  0  0  0
  -10.7388   -3.1751   15.8933 H   0  0  0  0  0  0
   -4.4919   -5.1350   12.1643 H   0  0  0  0  0  0
   -4.9751   -6.0789   10.7520 H   0  0  0  0  0  0
   -5.2230   -6.7412   12.3756 H   0  0  0  0  0  0
   -3.0998   -4.1838   16.8384 H   0  0  0  0  0  0
  1  2  2  0  0  0
  1  6  1  0  0  0
  1 22  1  0  0  0
  2  3  1  0  0  0
  2 23  1  0  0  0
  3  4  2  0  0  0
  3 17  1  0  0  0
  4  5  1  0  0  0
  4 24  1  0  0  0
  5  6  2  0  0  0
  5  7  1  0  0  0
  6  9  1  0  0  0
  7  8  1  0  0  0
  7 16  1  0  0  0
  8  9  2  0  0  0
  8 10  1  0  0  0
  9 20  1  0  0  0
 10 11  2  0  0  0
 10 15  1  0  0  0
 11 12  1  0  0  0
 11 25  1  0  0  0
 12 13  2  0  0  0
 12 21  1  0  0  0
 13 14  1  0  0  0
 13 26  1  0  0  0
 14 15  2  0  0  0
 14 27  1  0  0  0
 15 28  1  0  0  0
 16 18  1  0  0  0
 16 29  1  0  0  0
 16 30  1  0  0  0
 17 31  1  0  0  0
 18 19  1  0  0  0
 18 32  1  0  0  0
 18 33  1  0  0  0
 19 34  1  0  0  0
 19 35  1  0  0  0
 19 36  1  0  0  0
 20 37  1  0  0  0
 20 38  1  0  0  0
 20 39  1  0  0  0
 21 40  1  0  0  0
M  END
>  <Name>
lit-381

>  <Family>
C.2

>  <RBA>
3.500000

>  <RBA_avg>
3.500000

>  <Method>
RUC

>  <set>
0

$$$$
lit-382
  Cerius2 12180216413D 1   1.00000                          
 Structure written by MMmdl.
 37 39  0  0  0  0  0  0  0  0999 V2000
   -7.5595   -5.5445    9.4436 C   0  0  0  0  0  0
   -8.6763   -5.3060    8.6357 C   0  0  0  0  0  0
   -9.7888   -4.6656    9.1596 C   0  0  0  0  0  0
   -9.8333   -4.2419   10.4882 C   0  0  0  0  0  0
   -8.7027   -4.4862   11.2916 C   0  0  0  0  0  0
   -7.5683   -5.1318   10.7943 C   0  0  0  0  0  0
   -8.4512   -4.1869   12.6203 N   0  0  0  0  0  0
   -7.1896   -4.6258   12.9790 C   0  0  0  0  0  0
   -6.6191   -5.2209   11.8598 C   0  0  0  0  0  0
   -6.6116   -4.4546   14.3116 C   0  0  0  0  0  0
   -7.4399   -4.3139   15.4304 C   0  0  0  0  0  0
   -6.8757   -4.1566   16.6933 C   0  0  0  0  0  0
   -5.4946   -4.1412   16.8629 C   0  0  0  0  0  0
   -4.6654   -4.2884   15.7505 C   0  0  0  0  0  0
   -5.2211   -4.4470   14.4785 C   0  0  0  0  0  0
   -9.3833   -3.4771   13.4903 C   0  0  0  0  0  0
  -10.8515   -4.4595    8.3260 O   0  0  0  0  0  0
  -10.4057   -4.4026   14.1280 C   0  0  0  0  0  0
   -5.2596   -5.8300   11.7823 C   0  0  0  0  0  0
   -7.7181   -4.0195   17.7580 O   0  0  0  0  0  0
   -6.6907   -6.0472    9.0241 H   0  0  0  0  0  0
   -8.6652   -5.6262    7.5960 H   0  0  0  0  0  0
  -10.7090   -3.7418   10.8912 H   0  0  0  0  0  0
   -8.5217   -4.3290   15.3193 H   0  0  0  0  0  0
   -5.0491   -4.0186   17.8474 H   0  0  0  0  0  0
   -3.5838   -4.2806   15.8732 H   0  0  0  0  0  0
   -4.5628   -4.5624   13.6189 H   0  0  0  0  0  0
   -9.8802   -2.7079   12.8891 H   0  0  0  0  0  0
   -8.8113   -2.9490   14.2593 H   0  0  0  0  0  0
  -11.5562   -4.0002    8.8308 H   0  0  0  0  0  0
  -11.0819   -3.8323   14.7722 H   0  0  0  0  0  0
   -9.9215   -5.1711   14.7383 H   0  0  0  0  0  0
  -11.0086   -4.9125   13.3698 H   0  0  0  0  0  0
   -4.5028   -5.0475   11.6665 H   0  0  0  0  0  0
   -5.1753   -6.5160   10.9339 H   0  0  0  0  0  0
   -5.0332   -6.4008   12.6887 H   0  0  0  0  0  0
   -7.1766   -3.9209   18.5703 H   0  0  0  0  0  0
  1  2  2  0  0  0
  1  6  1  0  0  0
  1 21  1  0  0  0
  2  3  1  0  0  0
  2 22  1  0  0  0
  3  4  2  0  0  0
  3 17  1  0  0  0
  4  5  1  0  0  0
  4 23  1  0  0  0
  5  6  2  0  0  0
  5  7  1  0  0  0
  6  9  1  0  0  0
  7  8  1  0  0  0
  7 16  1  0  0  0
  8  9  2  0  0  0
  8 10  1  0  0  0
  9 19  1  0  0  0
 10 11  2  0  0  0
 10 15  1  0  0  0
 11 12  1  0  0  0
 11 24  1  0  0  0
 12 13  2  0  0  0
 12 20  1  0  0  0
 13 14  1  0  0  0
 13 25  1  0  0  0
 14 15  2  0  0  0
 14 26  1  0  0  0
 15 27  1  0  0  0
 16 18  1  0  0  0
 16 28  1  0  0  0
 16 29  1  0  0  0
 17 30  1  0  0  0
 18 31  1  0  0  0
 18 32  1  0  0  0
 18 33  1  0  0  0
 19 34  1  0  0  0
 19 35  1  0  0  0
 19 36  1  0  0  0
 20 37  1  0  0  0
M  END
>  <Name>
lit-382

>  <Family>
C.2

>  <RBA>
3.000000

>  <RBA_avg>
3.000000

>  <Method>
RUC

>  <set>
1

$$$$
lit-383
  Cerius2 12180216413D 1   1.00000                          
 Structure written by MMmdl.
 46 48  0  0  0  0  0  0  0  0999 V2000
   -7.6139   -5.5258    9.4606 C   0  0  0  0  0  0
   -8.7527   -5.2806    8.6933 C   0  0  0  0  0  0
   -9.8634   -4.6468    9.2312 C   0  0  0  0  0  0
   -9.8619   -4.2355   10.5677 C   0  0  0  0  0  0
   -8.7133   -4.4814   11.3420 C   0  0  0  0  0  0
   -7.5902   -5.1215   10.8134 C   0  0  0  0  0  0
   -8.4308   -4.1896   12.6654 N   0  0  0  0  0  0
   -7.1601   -4.6270   12.9916 C   0  0  0  0  0  0
   -6.6153   -5.2147   11.8557 C   0  0  0  0  0  0
   -6.5516   -4.4602   14.3108 C   0  0  0  0  0  0
   -7.3543   -4.3166   15.4485 C   0  0  0  0  0  0
   -6.7688   -4.1590   16.7070 C   0  0  0  0  0  0
   -5.3831   -4.1513   16.8253 C   0  0  0  0  0  0
   -4.5709   -4.3002   15.7056 C   0  0  0  0  0  0
   -5.1576   -4.4570   14.4468 C   0  0  0  0  0  0
   -4.8480   -3.9958   18.0700 O   0  0  0  0  0  0
   -9.3452   -3.4875   13.5620 C   0  0  0  0  0  0
   -8.7375   -5.6871    7.3895 O   0  0  0  0  0  0
   -5.2569   -5.8206   11.7416 C   0  0  0  0  0  0
  -10.3568   -4.4282   14.2157 C   0  0  0  0  0  0
  -11.2833   -3.6681   15.1649 C   0  0  0  0  0  0
  -12.2965   -4.6052   15.8212 C   0  0  0  0  0  0
  -13.2200   -3.8531   16.7658 C   0  0  0  0  0  0
   -6.7552   -6.0236    9.0178 H   0  0  0  0  0  0
  -10.7485   -4.4600    8.6262 H   0  0  0  0  0  0
  -10.7349   -3.7400   10.9856 H   0  0  0  0  0  0
   -8.4394   -4.3286   15.3630 H   0  0  0  0  0  0
   -7.3977   -4.0456   17.5869 H   0  0  0  0  0  0
   -3.4870   -4.2976   15.7909 H   0  0  0  0  0  0
   -4.5197   -4.5742   13.5722 H   0  0  0  0  0  0
   -3.8701   -4.0125   17.9906 H   0  0  0  0  0  0
   -9.8514   -2.7126   12.9747 H   0  0  0  0  0  0
   -8.7521   -2.9633   14.3185 H   0  0  0  0  0  0
   -9.5971   -5.4487    6.9811 H   0  0  0  0  0  0
   -4.5065   -5.0370   11.5966 H   0  0  0  0  0  0
   -5.1971   -6.5130   10.8963 H   0  0  0  0  0  0
   -5.0010   -6.3837   12.6448 H   0  0  0  0  0  0
   -9.8324   -5.2174   14.7671 H   0  0  0  0  0  0
  -10.9526   -4.9310   13.4441 H   0  0  0  0  0  0
  -11.8131   -2.8835   14.6108 H   0  0  0  0  0  0
  -10.6874   -3.1707   15.9398 H   0  0  0  0  0  0
  -11.7715   -5.3890   16.3799 H   0  0  0  0  0  0
  -12.8974   -5.1027   15.0511 H   0  0  0  0  0  0
  -13.9359   -4.5421   17.2247 H   0  0  0  0  0  0
  -13.7848   -3.0826   16.2314 H   0  0  0  0  0  0
  -12.6523   -3.3695   17.5673 H   0  0  0  0  0  0
  1  2  2  0  0  0
  1  6  1  0  0  0
  1 24  1  0  0  0
  2  3  1  0  0  0
  2 18  1  0  0  0
  3  4  2  0  0  0
  3 25  1  0  0  0
  4  5  1  0  0  0
  4 26  1  0  0  0
  5  6  2  0  0  0
  5  7  1  0  0  0
  6  9  1  0  0  0
  7  8  1  0  0  0
  7 17  1  0  0  0
  8  9  2  0  0  0
  8 10  1  0  0  0
  9 19  1  0  0  0
 10 11  2  0  0  0
 10 15  1  0  0  0
 11 12  1  0  0  0
 11 27  1  0  0  0
 12 13  2  0  0  0
 12 28  1  0  0  0
 13 14  1  0  0  0
 13 16  1  0  0  0
 14 15  2  0  0  0
 14 29  1  0  0  0
 15 30  1  0  0  0
 16 31  1  0  0  0
 17 20  1  0  0  0
 17 32  1  0  0  0
 17 33  1  0  0  0
 18 34  1  0  0  0
 19 35  1  0  0  0
 19 36  1  0  0  0
 19 37  1  0  0  0
 20 21  1  0  0  0
 20 38  1  0  0  0
 20 39  1  0  0  0
 21 22  1  0  0  0
 21 40  1  0  0  0
 21 41  1  0  0  0
 22 23  1  0  0  0
 22 42  1  0  0  0
 22 43  1  0  0  0
 23 44  1  0  0  0
 23 45  1  0  0  0
 23 46  1  0  0  0
M  END
>  <Name>
lit-383

>  <Family>
C.2

>  <RBA>
2.300000

>  <RBA_avg>
2.300000

>  <Method>
RUC

>  <set>
1

$$$$
lit-384
  Cerius2 12180216413D 1   1.00000                          
 Structure written by MMmdl.
 37 39  0  0  0  0  0  0  0  0999 V2000
   -7.5887   -5.5210    9.4598 C   0  0  0  0  0  0
   -8.7184   -5.2826    8.6768 C   0  0  0  0  0  0
   -9.8402   -4.6561    9.1997 C   0  0  0  0  0  0
   -9.8596   -4.2453   10.5361 C   0  0  0  0  0  0
   -8.7203   -4.4842   11.3264 C   0  0  0  0  0  0
   -7.5862   -5.1171   10.8131 C   0  0  0  0  0  0
   -8.4581   -4.1908   12.6539 N   0  0  0  0  0  0
   -7.1897   -4.6220   12.9974 C   0  0  0  0  0  0
   -6.6254   -5.2050   11.8685 C   0  0  0  0  0  0
   -6.6007   -4.4555   14.3258 C   0  0  0  0  0  0
   -7.4201   -4.3151   15.4512 C   0  0  0  0  0  0
   -6.8459   -4.1614   16.7101 C   0  0  0  0  0  0
   -5.4635   -4.1496   16.8692 C   0  0  0  0  0  0
   -4.6432   -4.2969   15.7501 C   0  0  0  0  0  0
   -5.2090   -4.4516   14.4821 C   0  0  0  0  0  0
   -9.3874   -3.4926   13.5361 C   0  0  0  0  0  0
  -10.3974   -4.4286   14.1779 C   0  0  0  0  0  0
   -5.2616   -5.8023   11.7735 C   0  0  0  0  0  0
   -7.6797   -4.0240   17.7815 O   0  0  0  0  0  0
   -8.6827   -5.6889    7.3734 O   0  0  0  0  0  0
   -6.7210   -6.0135    9.0287 H   0  0  0  0  0  0
  -10.7180   -4.4745    8.5826 H   0  0  0  0  0  0
  -10.7412   -3.7552   10.9421 H   0  0  0  0  0  0
   -8.5027   -4.3270   15.3484 H   0  0  0  0  0  0
   -5.0101   -4.0300   17.8504 H   0  0  0  0  0  0
   -3.5607   -4.2918   15.8645 H   0  0  0  0  0  0
   -4.5575   -4.5667   13.6172 H   0  0  0  0  0  0
   -9.8951   -2.7237   12.9437 H   0  0  0  0  0  0
   -8.8121   -2.9646   14.3029 H   0  0  0  0  0  0
  -11.0715   -3.8666   14.8315 H   0  0  0  0  0  0
   -9.9024   -5.1972   14.7794 H   0  0  0  0  0  0
  -11.0040   -4.9384   13.4223 H   0  0  0  0  0  0
   -4.5128   -5.0129   11.6540 H   0  0  0  0  0  0
   -5.1808   -6.4830   10.9206 H   0  0  0  0  0  0
   -5.0209   -6.3759   12.6744 H   0  0  0  0  0  0
   -7.1319   -3.9274   18.5896 H   0  0  0  0  0  0
   -9.5384   -5.4566    6.9534 H   0  0  0  0  0  0
  1  2  2  0  0  0
  1  6  1  0  0  0
  1 21  1  0  0  0
  2  3  1  0  0  0
  2 20  1  0  0  0
  3  4  2  0  0  0
  3 22  1  0  0  0
  4  5  1  0  0  0
  4 23  1  0  0  0
  5  6  2  0  0  0
  5  7  1  0  0  0
  6  9  1  0  0  0
  7  8  1  0  0  0
  7 16  1  0  0  0
  8  9  2  0  0  0
  8 10  1  0  0  0
  9 18  1  0  0  0
 10 11  2  0  0  0
 10 15  1  0  0  0
 11 12  1  0  0  0
 11 24  1  0  0  0
 12 13  2  0  0  0
 12 19  1  0  0  0
 13 14  1  0  0  0
 13 25  1  0  0  0
 14 15  2  0  0  0
 14 26  1  0  0  0
 15 27  1  0  0  0
 16 17  1  0  0  0
 16 28  1  0  0  0
 16 29  1  0  0  0
 17 30  1  0  0  0
 17 31  1  0  0  0
 17 32  1  0  0  0
 18 33  1  0  0  0
 18 34  1  0  0  0
 18 35  1  0  0  0
 19 36  1  0  0  0
 20 37  1  0  0  0
M  END
>  <Name>
lit-384

>  <Family>
C.2

>  <RBA>
2.200000

>  <RBA_avg>
2.200000

>  <Method>
RUC

>  <set>
0

$$$$
lit-385
  Cerius2 12180216413D 1   1.00000                          
 Structure written by MMmdl.
 46 48  0  0  0  0  0  0  0  0999 V2000
   -7.6143   -5.5305    9.4618 C   0  0  0  0  0  0
   -8.7572   -5.2961    8.6975 C   0  0  0  0  0  0
   -9.8680   -4.6619    9.2352 C   0  0  0  0  0  0
   -9.8628   -4.2403   10.5686 C   0  0  0  0  0  0
   -8.7096   -4.4745   11.3395 C   0  0  0  0  0  0
   -7.5863   -5.1127   10.8102 C   0  0  0  0  0  0
   -8.4237   -4.1769   12.6608 N   0  0  0  0  0  0
   -7.1503   -4.6084   12.9854 C   0  0  0  0  0  0
   -6.6053   -5.1963   11.8489 C   0  0  0  0  0  0
   -6.5495   -4.4506   14.3089 C   0  0  0  0  0  0
   -5.1571   -4.4509   14.4558 C   0  0  0  0  0  0
   -4.5837   -4.3024   15.7208 C   0  0  0  0  0  0
   -5.4033   -4.1588   16.8353 C   0  0  0  0  0  0
   -6.7887   -4.1627   16.7071 C   0  0  0  0  0  0
   -7.3615   -4.3108   15.4410 C   0  0  0  0  0  0
   -4.8074   -4.0164   18.0536 O   0  0  0  0  0  0
   -9.3447   -3.4934   13.5648 C   0  0  0  0  0  0
   -8.7465   -5.7145    7.3975 O   0  0  0  0  0  0
   -5.2408   -5.8119   11.7235 C   0  0  0  0  0  0
  -10.3091   -4.4594   14.2493 C   0  0  0  0  0  0
  -11.2362   -3.7285   15.2062 C   0  0  0  0  0  0
   -5.2583   -7.3167   11.9965 C   0  0  0  0  0  0
   -3.8683   -7.9205   11.8768 C   0  0  0  0  0  0
   -6.7561   -6.0314    9.0216 H   0  0  0  0  0  0
  -10.7566   -4.4842    8.6327 H   0  0  0  0  0  0
  -10.7370   -3.7471   10.9868 H   0  0  0  0  0  0
   -4.5115   -4.5652   13.5868 H   0  0  0  0  0  0
   -3.5016   -4.3009   15.8286 H   0  0  0  0  0  0
   -7.4356   -4.0535   17.5743 H   0  0  0  0  0  0
   -8.4459   -4.3164   15.3437 H   0  0  0  0  0  0
   -5.5098   -3.9275   18.7329 H   0  0  0  0  0  0
   -9.8886   -2.7438   12.9789 H   0  0  0  0  0  0
   -8.7555   -2.9392   14.3026 H   0  0  0  0  0  0
   -9.6090   -5.4832    6.9909 H   0  0  0  0  0  0
   -4.5459   -5.3182   12.4139 H   0  0  0  0  0  0
   -4.8500   -5.6233   10.7157 H   0  0  0  0  0  0
   -9.7521   -5.2244   14.8021 H   0  0  0  0  0  0
  -10.9088   -4.9893   13.4999 H   0  0  0  0  0  0
  -11.9208   -4.4355   15.6849 H   0  0  0  0  0  0
  -11.8352   -2.9806   14.6770 H   0  0  0  0  0  0
  -10.6676   -3.2212   15.9921 H   0  0  0  0  0  0
   -5.9310   -7.8198   11.2914 H   0  0  0  0  0  0
   -5.6498   -7.5141   13.0016 H   0  0  0  0  0  0
   -3.9040   -8.9963   12.0747 H   0  0  0  0  0  0
   -3.1799   -7.4655   12.5963 H   0  0  0  0  0  0
   -3.4620   -7.7733   10.8711 H   0  0  0  0  0  0
  1  2  2  0  0  0
  1  6  1  0  0  0
  1 24  1  0  0  0
  2  3  1  0  0  0
  2 18  1  0  0  0
  3  4  2  0  0  0
  3 25  1  0  0  0
  4  5  1  0  0  0
  4 26  1  0  0  0
  5  6  2  0  0  0
  5  7  1  0  0  0
  6  9  1  0  0  0
  7  8  1  0  0  0
  7 17  1  0  0  0
  8  9  2  0  0  0
  8 10  1  0  0  0
  9 19  1  0  0  0
 10 11  2  0  0  0
 10 15  1  0  0  0
 11 12  1  0  0  0
 11 27  1  0  0  0
 12 13  2  0  0  0
 12 28  1  0  0  0
 13 14  1  0  0  0
 13 16  1  0  0  0
 14 15  2  0  0  0
 14 29  1  0  0  0
 15 30  1  0  0  0
 16 31  1  0  0  0
 17 20  1  0  0  0
 17 32  1  0  0  0
 17 33  1  0  0  0
 18 34  1  0  0  0
 19 22  1  0  0  0
 19 35  1  0  0  0
 19 36  1  0  0  0
 20 21  1  0  0  0
 20 37  1  0  0  0
 20 38  1  0  0  0
 21 39  1  0  0  0
 21 40  1  0  0  0
 21 41  1  0  0  0
 22 23  1  0  0  0
 22 42  1  0  0  0
 22 43  1  0  0  0
 23 44  1  0  0  0
 23 45  1  0  0  0
 23 46  1  0  0  0
M  END
>  <Name>
lit-385

>  <Family>
C.2

>  <RBA>
1.700000

>  <RBA_avg>
1.700000

>  <Method>
RUC

>  <set>
0

$$$$
lit-386
  Cerius2 12180216413D 1   1.00000                          
 Structure written by MMmdl.
 34 36  0  0  0  0  0  0  0  0999 V2000
   -7.5528   -5.5457    9.4546 C   0  0  0  0  0  0
   -8.6688   -5.3171    8.6427 C   0  0  0  0  0  0
   -9.7860   -4.6757    9.1587 C   0  0  0  0  0  0
   -9.8383   -4.2405   10.4841 C   0  0  0  0  0  0
   -8.7085   -4.4724   11.2913 C   0  0  0  0  0  0
   -7.5723   -5.1179   10.7974 C   0  0  0  0  0  0
   -8.4581   -4.1679   12.6213 N   0  0  0  0  0  0
   -7.1932   -4.5995   12.9790 C   0  0  0  0  0  0
   -6.6367   -5.1935   11.8610 C   0  0  0  0  0  0
   -6.6074   -4.4477   14.3074 C   0  0  0  0  0  0
   -5.2176   -4.4502   14.4720 C   0  0  0  0  0  0
   -4.6716   -4.3047   15.7444 C   0  0  0  0  0  0
   -5.4889   -4.1607   16.8615 C   0  0  0  0  0  0
   -6.8751   -4.1656   16.7019 C   0  0  0  0  0  0
   -7.4335   -4.3113   15.4294 C   0  0  0  0  0  0
   -9.4039   -3.4908   13.5015 C   0  0  0  0  0  0
  -10.8469   -4.4815    8.3196 O   0  0  0  0  0  0
  -10.3564   -4.4591   14.1818 C   0  0  0  0  0  0
   -3.3121   -4.3074   15.8614 O   0  0  0  0  0  0
   -6.6789   -6.0506    9.0484 H   0  0  0  0  0  0
   -8.6547   -5.6463    7.6058 H   0  0  0  0  0  0
  -10.7181   -3.7426   10.8805 H   0  0  0  0  0  0
   -5.6492   -5.6383   11.8152 H   0  0  0  0  0  0
   -4.5619   -4.5634   13.6115 H   0  0  0  0  0  0
   -5.0674   -4.0464   17.8573 H   0  0  0  0  0  0
   -7.5230   -4.0564   17.5697 H   0  0  0  0  0  0
   -8.5169   -4.3141   15.3193 H   0  0  0  0  0  0
   -9.9575   -2.7604   12.9020 H   0  0  0  0  0  0
   -8.8407   -2.9195   14.2453 H   0  0  0  0  0  0
  -11.5542   -4.0177    8.8168 H   0  0  0  0  0  0
  -11.0496   -3.9153   14.8308 H   0  0  0  0  0  0
   -9.8138   -5.1853   14.7953 H   0  0  0  0  0  0
  -10.9453   -5.0182   13.4474 H   0  0  0  0  0  0
   -3.0828   -4.1985   16.8093 H   0  0  0  0  0  0
  1  2  2  0  0  0
  1  6  1  0  0  0
  1 20  1  0  0  0
  2  3  1  0  0  0
  2 21  1  0  0  0
  3  4  2  0  0  0
  3 17  1  0  0  0
  4  5  1  0  0  0
  4 22  1  0  0  0
  5  6  2  0  0  0
  5  7  1  0  0  0
  6  9  1  0  0  0
  7  8  1  0  0  0
  7 16  1  0  0  0
  8  9  2  0  0  0
  8 10  1  0  0  0
  9 23  1  0  0  0
 10 11  2  0  0  0
 10 15  1  0  0  0
 11 12  1  0  0  0
 11 24  1  0  0  0
 12 13  2  0  0  0
 12 19  1  0  0  0
 13 14  1  0  0  0
 13 25  1  0  0  0
 14 15  2  0  0  0
 14 26  1  0  0  0
 15 27  1  0  0  0
 16 18  1  0  0  0
 16 28  1  0  0  0
 16 29  1  0  0  0
 17 30  1  0  0  0
 18 31  1  0  0  0
 18 32  1  0  0  0
 18 33  1  0  0  0
 19 34  1  0  0  0
M  END
>  <Name>
lit-386

>  <Family>
C.2

>  <RBA>
1.700000

>  <RBA_avg>
1.700000

>  <Method>
RUC

>  <set>
0

$$$$
lit-387
  Cerius2 12180216413D 1   1.00000                          
 Structure written by MMmdl.
 34 36  0  0  0  0  0  0  0  0999 V2000
   -7.5785   -5.5232    9.4700 C   0  0  0  0  0  0
   -8.7074   -5.2976    8.6829 C   0  0  0  0  0  0
   -9.8359   -4.6733    9.1976 C   0  0  0  0  0  0
   -9.8650   -4.2517   10.5314 C   0  0  0  0  0  0
   -8.7264   -4.4756   11.3257 C   0  0  0  0  0  0
   -7.5886   -5.1051   10.8158 C   0  0  0  0  0  0
   -8.4670   -4.1774   12.6550 N   0  0  0  0  0  0
   -7.1944   -4.5984   12.9978 C   0  0  0  0  0  0
   -6.6419   -5.1780   11.8700 C   0  0  0  0  0  0
   -6.5978   -4.4491   14.3216 C   0  0  0  0  0  0
   -5.2068   -4.4539   14.4750 C   0  0  0  0  0  0
   -4.6501   -4.3103   15.7430 C   0  0  0  0  0  0
   -5.4581   -4.1665   16.8667 C   0  0  0  0  0  0
   -6.8455   -4.1687   16.7184 C   0  0  0  0  0  0
   -7.4146   -4.3119   15.4504 C   0  0  0  0  0  0
   -9.4117   -3.5159   13.5480 C   0  0  0  0  0  0
  -10.3489   -4.4982   14.2297 C   0  0  0  0  0  0
   -3.2897   -4.3150   15.8490 O   0  0  0  0  0  0
   -8.6661   -5.7146    7.3829 O   0  0  0  0  0  0
   -6.7040   -6.0152    9.0520 H   0  0  0  0  0  0
  -10.7128   -4.5035    8.5757 H   0  0  0  0  0  0
  -10.7525   -3.7667   10.9305 H   0  0  0  0  0  0
   -5.6501   -5.6120   11.8115 H   0  0  0  0  0  0
   -4.5583   -4.5671   13.6091 H   0  0  0  0  0  0
   -5.0282   -4.0545   17.8594 H   0  0  0  0  0  0
   -7.4862   -4.0591   17.5917 H   0  0  0  0  0  0
   -8.4988   -4.3122   15.3491 H   0  0  0  0  0  0
   -9.9778   -2.7870   12.9583 H   0  0  0  0  0  0
   -8.8477   -2.9444   14.2910 H   0  0  0  0  0  0
  -11.0412   -3.9657   14.8889 H   0  0  0  0  0  0
   -9.7941   -5.2235   14.8334 H   0  0  0  0  0  0
  -10.9393   -5.0578   13.4967 H   0  0  0  0  0  0
   -3.0524   -4.2024   16.7944 H   0  0  0  0  0  0
   -9.5221   -5.4904    6.9586 H   0  0  0  0  0  0
  1  2  2  0  0  0
  1  6  1  0  0  0
  1 20  1  0  0  0
  2  3  1  0  0  0
  2 19  1  0  0  0
  3  4  2  0  0  0
  3 21  1  0  0  0
  4  5  1  0  0  0
  4 22  1  0  0  0
  5  6  2  0  0  0
  5  7  1  0  0  0
  6  9  1  0  0  0
  7  8  1  0  0  0
  7 16  1  0  0  0
  8  9  2  0  0  0
  8 10  1  0  0  0
  9 23  1  0  0  0
 10 11  2  0  0  0
 10 15  1  0  0  0
 11 12  1  0  0  0
 11 24  1  0  0  0
 12 13  2  0  0  0
 12 18  1  0  0  0
 13 14  1  0  0  0
 13 25  1  0  0  0
 14 15  2  0  0  0
 14 26  1  0  0  0
 15 27  1  0  0  0
 16 17  1  0  0  0
 16 28  1  0  0  0
 16 29  1  0  0  0
 17 30  1  0  0  0
 17 31  1  0  0  0
 17 32  1  0  0  0
 18 33  1  0  0  0
 19 34  1  0  0  0
M  END
>  <Name>
lit-387

>  <Family>
C.2

>  <RBA>
1.700000

>  <RBA_avg>
1.700000

>  <Method>
RUC

>  <set>
2

$$$$
lit-388
  Cerius2 12180216413D 1   1.00000                          
 Structure written by MMmdl.
 34 36  0  0  0  0  0  0  0  0999 V2000
   -7.5937   -5.5245    9.4564 C   0  0  0  0  0  0
   -8.7310   -5.3000    8.6806 C   0  0  0  0  0  0
   -9.8519   -4.6743    9.2067 C   0  0  0  0  0  0
   -9.8617   -4.2482   10.5387 C   0  0  0  0  0  0
   -8.7134   -4.4702   11.3204 C   0  0  0  0  0  0
   -7.5820   -5.1061   10.8052 C   0  0  0  0  0  0
   -8.4354   -4.1523   12.6372 N   0  0  0  0  0  0
   -7.1754   -4.6028   12.9874 C   0  0  0  0  0  0
   -6.6155   -5.1886   11.8566 C   0  0  0  0  0  0
   -6.5941   -4.4476   14.3232 C   0  0  0  0  0  0
   -7.4192   -4.3115   15.4464 C   0  0  0  0  0  0
   -6.8526   -4.1702   16.7105 C   0  0  0  0  0  0
   -5.4717   -4.1652   16.8791 C   0  0  0  0  0  0
   -4.6451   -4.3059   15.7642 C   0  0  0  0  0  0
   -5.2035   -4.4482   14.4910 C   0  0  0  0  0  0
   -9.3421   -3.4312   13.5116 C   0  0  0  0  0  0
   -7.6934   -4.0382   17.7772 O   0  0  0  0  0  0
   -8.7046   -5.7205    7.3815 O   0  0  0  0  0  0
   -5.2588   -5.8017   11.7560 C   0  0  0  0  0  0
   -6.7280   -6.0197    9.0241 H   0  0  0  0  0  0
  -10.7363   -4.5050    8.5956 H   0  0  0  0  0  0
  -10.7430   -3.7588   10.9464 H   0  0  0  0  0  0
   -8.5016   -4.3201   15.3390 H   0  0  0  0  0  0
   -5.0243   -4.0553   17.8642 H   0  0  0  0  0  0
   -3.5634   -4.3047   15.8852 H   0  0  0  0  0  0
   -4.5448   -4.5551   13.6304 H   0  0  0  0  0  0
   -8.7691   -2.8256   14.2176 H   0  0  0  0  0  0
   -9.9567   -4.1645   14.0391 H   0  0  0  0  0  0
   -9.9694   -2.7624   12.9178 H   0  0  0  0  0  0
   -7.1508   -3.9503   18.5900 H   0  0  0  0  0  0
   -9.5650   -5.4968    6.9662 H   0  0  0  0  0  0
   -4.5085   -5.0265   11.5710 H   0  0  0  0  0  0
   -5.2090   -6.5288   10.9398 H   0  0  0  0  0  0
   -4.9948   -6.3282   12.6789 H   0  0  0  0  0  0
  1  2  2  0  0  0
  1  6  1  0  0  0
  1 20  1  0  0  0
  2  3  1  0  0  0
  2 18  1  0  0  0
  3  4  2  0  0  0
  3 21  1  0  0  0
  4  5  1  0  0  0
  4 22  1  0  0  0
  5  6  2  0  0  0
  5  7  1  0  0  0
  6  9  1  0  0  0
  7  8  1  0  0  0
  7 16  1  0  0  0
  8  9  2  0  0  0
  8 10  1  0  0  0
  9 19  1  0  0  0
 10 11  2  0  0  0
 10 15  1  0  0  0
 11 12  1  0  0  0
 11 23  1  0  0  0
 12 13  2  0  0  0
 12 17  1  0  0  0
 13 14  1  0  0  0
 13 24  1  0  0  0
 14 15  2  0  0  0
 14 25  1  0  0  0
 15 26  1  0  0  0
 16 27  1  0  0  0
 16 28  1  0  0  0
 16 29  1  0  0  0
 17 30  1  0  0  0
 18 31  1  0  0  0
 19 32  1  0  0  0
 19 33  1  0  0  0
 19 34  1  0  0  0
M  END
>  <Name>
lit-388

>  <Family>
C.2

>  <RBA>
0.600000

>  <RBA_avg>
0.600000

>  <Method>
RUC

>  <set>
0

$$$$
lit-389
  Cerius2 12180216413D 1   1.00000                          
 Structure written by MMmdl.
 34 36  0  0  0  0  0  0  0  0999 V2000
   -7.5642   -5.5493    9.4397 C   0  0  0  0  0  0
   -8.6876   -5.3207    8.6380 C   0  0  0  0  0  0
   -9.7964   -4.6750    9.1635 C   0  0  0  0  0  0
   -9.8295   -4.2334   10.4868 C   0  0  0  0  0  0
   -8.6910   -4.4648   11.2825 C   0  0  0  0  0  0
   -7.5624   -5.1199   10.7853 C   0  0  0  0  0  0
   -8.4227   -4.1397   12.5999 N   0  0  0  0  0  0
   -7.1729   -4.6047   12.9677 C   0  0  0  0  0  0
   -6.6089   -5.2073   11.8479 C   0  0  0  0  0  0
   -6.6040   -4.4469   14.3086 C   0  0  0  0  0  0
   -7.4396   -4.3109   15.4240 C   0  0  0  0  0  0
   -6.8850   -4.1666   16.6931 C   0  0  0  0  0  0
   -5.5056   -4.1587   16.8743 C   0  0  0  0  0  0
   -4.6686   -4.2994   15.7672 C   0  0  0  0  0  0
   -5.2149   -4.4446   14.4892 C   0  0  0  0  0  0
   -9.3281   -3.3990   13.4592 C   0  0  0  0  0  0
   -7.7358   -4.0348   17.7516 O   0  0  0  0  0  0
   -5.2601   -5.8403   11.7672 C   0  0  0  0  0  0
  -10.8669   -4.4815    8.3370 O   0  0  0  0  0  0
   -6.6999   -6.0600    9.0204 H   0  0  0  0  0  0
   -8.6854   -5.6546    7.6026 H   0  0  0  0  0  0
  -10.7025   -3.7291   10.8903 H   0  0  0  0  0  0
   -8.5209   -4.3217   15.3067 H   0  0  0  0  0  0
   -5.0675   -4.0464   17.8634 H   0  0  0  0  0  0
   -3.5879   -4.2959   15.8983 H   0  0  0  0  0  0
   -4.5481   -4.5515   13.6349 H   0  0  0  0  0  0
   -8.7541   -2.7974   14.1677 H   0  0  0  0  0  0
   -9.9598   -4.1194   13.9844 H   0  0  0  0  0  0
   -9.9381   -2.7247   12.8538 H   0  0  0  0  0  0
   -7.2009   -3.9452   18.5694 H   0  0  0  0  0  0
   -4.4969   -5.0775   11.5834 H   0  0  0  0  0  0
   -5.2121   -6.5755   10.9580 H   0  0  0  0  0  0
   -5.0133   -6.3621   12.6974 H   0  0  0  0  0  0
  -11.5684   -4.0178    8.8425 H   0  0  0  0  0  0
  1  2  2  0  0  0
  1  6  1  0  0  0
  1 20  1  0  0  0
  2  3  1  0  0  0
  2 21  1  0  0  0
  3  4  2  0  0  0
  3 19  1  0  0  0
  4  5  1  0  0  0
  4 22  1  0  0  0
  5  6  2  0  0  0
  5  7  1  0  0  0
  6  9  1  0  0  0
  7  8  1  0  0  0
  7 16  1  0  0  0
  8  9  2  0  0  0
  8 10  1  0  0  0
  9 18  1  0  0  0
 10 11  2  0  0  0
 10 15  1  0  0  0
 11 12  1  0  0  0
 11 23  1  0  0  0
 12 13  2  0  0  0
 12 17  1  0  0  0
 13 14  1  0  0  0
 13 24  1  0  0  0
 14 15  2  0  0  0
 14 25  1  0  0  0
 15 26  1  0  0  0
 16 27  1  0  0  0
 16 28  1  0  0  0
 16 29  1  0  0  0
 17 30  1  0  0  0
 18 31  1  0  0  0
 18 32  1  0  0  0
 18 33  1  0  0  0
 19 34  1  0  0  0
M  END
>  <Name>
lit-389

>  <Family>
C.2

>  <RBA>
0.550000

>  <RBA_avg>
0.550000

>  <Method>
RUC

>  <set>
0

$$$$
lit-390
  Cerius2 12180216413D 1   1.00000                          
 Structure written by MMmdl.
 34 36  0  0  0  0  0  0  0  0999 V2000
   -7.6068   -5.5749    9.4048 C   0  0  0  0  0  0
   -8.7554   -5.3000    8.6522 C   0  0  0  0  0  0
   -9.8270   -4.6322    9.2307 C   0  0  0  0  0  0
   -9.8007   -4.2150   10.5617 C   0  0  0  0  0  0
   -8.6408   -4.5005   11.2963 C   0  0  0  0  0  0
   -7.5460   -5.1709   10.7562 C   0  0  0  0  0  0
   -8.3309   -4.2102   12.6040 N   0  0  0  0  0  0
   -7.0737   -4.6751   12.9283 C   0  0  0  0  0  0
   -6.5553   -5.2856   11.7892 C   0  0  0  0  0  0
   -6.5149   -4.4815   14.2670 C   0  0  0  0  0  0
   -7.3623   -4.3325   15.3742 C   0  0  0  0  0  0
   -6.8332   -4.1506   16.6551 C   0  0  0  0  0  0
   -5.4551   -4.1202   16.8321 C   0  0  0  0  0  0
   -4.5965   -4.2702   15.7490 C   0  0  0  0  0  0
   -5.1286   -4.4518   14.4683 C   0  0  0  0  0  0
   -4.9750   -3.9410   18.0956 O   0  0  0  0  0  0
  -10.9204   -4.3918    8.4474 O   0  0  0  0  0  0
   -5.2023   -5.9168   11.6285 C   0  0  0  0  0  0
   -5.2549   -7.4373   11.6422 C   0  0  0  0  0  0
   -6.7716   -6.0976    8.9441 H   0  0  0  0  0  0
   -8.8017   -5.6130    7.6112 H   0  0  0  0  0  0
  -10.6348   -3.6901   11.0177 H   0  0  0  0  0  0
   -8.9480   -3.7254   13.2444 H   0  0  0  0  0  0
   -8.4440   -4.3461   15.2490 H   0  0  0  0  0  0
   -7.5010   -4.0324   17.5052 H   0  0  0  0  0  0
   -3.5170   -4.2523   15.8785 H   0  0  0  0  0  0
   -4.4467   -4.5818   13.6307 H   0  0  0  0  0  0
   -3.9945   -3.9422   18.0571 H   0  0  0  0  0  0
  -11.5882   -3.9171    8.9874 H   0  0  0  0  0  0
   -4.5254   -5.5714   12.4182 H   0  0  0  0  0  0
   -4.7599   -5.5807   10.6827 H   0  0  0  0  0  0
   -4.2463   -7.8513   11.5431 H   0  0  0  0  0  0
   -5.8600   -7.8230   10.8151 H   0  0  0  0  0  0
   -5.6874   -7.8148   12.5740 H   0  0  0  0  0  0
  1  2  2  0  0  0
  1  6  1  0  0  0
  1 20  1  0  0  0
  2  3  1  0  0  0
  2 21  1  0  0  0
  3  4  2  0  0  0
  3 17  1  0  0  0
  4  5  1  0  0  0
  4 22  1  0  0  0
  5  6  2  0  0  0
  5  7  1  0  0  0
  6  9  1  0  0  0
  7  8  1  0  0  0
  7 23  1  0  0  0
  8  9  2  0  0  0
  8 10  1  0  0  0
  9 18  1  0  0  0
 10 11  2  0  0  0
 10 15  1  0  0  0
 11 12  1  0  0  0
 11 24  1  0  0  0
 12 13  2  0  0  0
 12 25  1  0  0  0
 13 14  1  0  0  0
 13 16  1  0  0  0
 14 15  2  0  0  0
 14 26  1  0  0  0
 15 27  1  0  0  0
 16 28  1  0  0  0
 17 29  1  0  0  0
 18 19  1  0  0  0
 18 30  1  0  0  0
 18 31  1  0  0  0
 19 32  1  0  0  0
 19 33  1  0  0  0
 19 34  1  0  0  0
M  END
>  <Name>
lit-390

>  <Family>
C.2

>  <RBA>
0.130000

>  <RBA_avg>
0.130000

>  <Method>
RUC

>  <set>
1

$$$$
lit-391
  Cerius2 12180216413D 1   1.00000                          
 Structure written by MMmdl.
 31 33  0  0  0  0  0  0  0  0999 V2000
   -7.6084   -5.5827    9.4095 C   0  0  0  0  0  0
   -8.7613   -5.3238    8.6578 C   0  0  0  0  0  0
   -9.8322   -4.6492    9.2296 C   0  0  0  0  0  0
   -9.8014   -4.2105   10.5537 C   0  0  0  0  0  0
   -8.6375   -4.4805   11.2877 C   0  0  0  0  0  0
   -7.5418   -5.1538   10.7527 C   0  0  0  0  0  0
   -8.3260   -4.1749   12.5919 N   0  0  0  0  0  0
   -7.0694   -4.6387   12.9213 C   0  0  0  0  0  0
   -6.5475   -5.2450   11.7819 C   0  0  0  0  0  0
   -6.5147   -4.4636   14.2661 C   0  0  0  0  0  0
   -7.3616   -4.3203   15.3747 C   0  0  0  0  0  0
   -6.8325   -4.1569   16.6585 C   0  0  0  0  0  0
   -5.4548   -4.1387   16.8379 C   0  0  0  0  0  0
   -4.5960   -4.2821   15.7543 C   0  0  0  0  0  0
   -5.1278   -4.4449   14.4708 C   0  0  0  0  0  0
   -4.9752   -3.9778   18.1041 O   0  0  0  0  0  0
  -10.9297   -4.4252    8.4475 O   0  0  0  0  0  0
   -5.2028   -5.8744   11.6356 C   0  0  0  0  0  0
   -6.7748   -6.1126    8.9537 H   0  0  0  0  0  0
   -8.8117   -5.6551    7.6226 H   0  0  0  0  0  0
  -10.6360   -3.6826   11.0054 H   0  0  0  0  0  0
   -8.9481   -3.6929   13.2299 H   0  0  0  0  0  0
   -8.4435   -4.3223   15.2507 H   0  0  0  0  0  0
   -7.5007   -4.0430   17.5091 H   0  0  0  0  0  0
   -3.5165   -4.2730   15.8853 H   0  0  0  0  0  0
   -4.4441   -4.5692   13.6329 H   0  0  0  0  0  0
   -3.9946   -3.9859   18.0670 H   0  0  0  0  0  0
  -11.5968   -3.9440    8.9826 H   0  0  0  0  0  0
   -4.4532   -5.3515   12.2378 H   0  0  0  0  0  0
   -4.8627   -5.8442   10.5956 H   0  0  0  0  0  0
   -5.2391   -6.9210   11.9536 H   0  0  0  0  0  0
  1  2  2  0  0  0
  1  6  1  0  0  0
  1 19  1  0  0  0
  2  3  1  0  0  0
  2 20  1  0  0  0
  3  4  2  0  0  0
  3 17  1  0  0  0
  4  5  1  0  0  0
  4 21  1  0  0  0
  5  6  2  0  0  0
  5  7  1  0  0  0
  6  9  1  0  0  0
  7  8  1  0  0  0
  7 22  1  0  0  0
  8  9  2  0  0  0
  8 10  1  0  0  0
  9 18  1  0  0  0
 10 11  2  0  0  0
 10 15  1  0  0  0
 11 12  1  0  0  0
 11 23  1  0  0  0
 12 13  2  0  0  0
 12 24  1  0  0  0
 13 14  1  0  0  0
 13 16  1  0  0  0
 14 15  2  0  0  0
 14 25  1  0  0  0
 15 26  1  0  0  0
 16 27  1  0  0  0
 17 28  1  0  0  0
 18 29  1  0  0  0
 18 30  1  0  0  0
 18 31  1  0  0  0
M  END
>  <Name>
lit-391

>  <Family>
C.2

>  <RBA>
0.060000

>  <RBA_avg>
0.060000

>  <Method>
RUC

>  <set>
0

$$$$
lit-392
  Cerius2 12180216413D 1   1.00000                          
 Structure written by MMmdl.
 31 33  0  0  0  0  0  0  0  0999 V2000
   -7.6544   -5.5435    9.4327 C   0  0  0  0  0  0
   -8.8232   -5.2897    8.7118 C   0  0  0  0  0  0
   -9.9067   -4.6395    9.2900 C   0  0  0  0  0  0
   -9.8496   -4.2202   10.6229 C   0  0  0  0  0  0
   -8.6728   -4.4794   11.3380 C   0  0  0  0  0  0
   -7.5749   -5.1292   10.7795 C   0  0  0  0  0  0
   -8.3480   -4.1834   12.6408 N   0  0  0  0  0  0
   -7.0797   -4.6311   12.9473 C   0  0  0  0  0  0
   -6.5646   -5.2163   11.7938 C   0  0  0  0  0  0
   -6.5088   -4.4623   14.2860 C   0  0  0  0  0  0
   -7.3420   -4.3190   15.4050 C   0  0  0  0  0  0
   -6.7972   -4.1609   16.6828 C   0  0  0  0  0  0
   -5.4173   -4.1483   16.8461 C   0  0  0  0  0  0
   -4.5720   -4.2921   15.7521 C   0  0  0  0  0  0
   -5.1195   -4.4495   14.4746 C   0  0  0  0  0  0
   -4.9224   -3.9922   18.1068 O   0  0  0  0  0  0
   -5.2124   -5.8229   11.6213 C   0  0  0  0  0  0
   -8.8659   -5.7046    7.4110 O   0  0  0  0  0  0
   -6.8198   -6.0544    8.9598 H   0  0  0  0  0  0
  -10.8126   -4.4470    8.7185 H   0  0  0  0  0  0
  -10.6926   -3.7108   11.0836 H   0  0  0  0  0  0
   -8.9686   -3.7183   13.2926 H   0  0  0  0  0  0
   -8.4253   -4.3165   15.2937 H   0  0  0  0  0  0
   -7.4550   -4.0468   17.5414 H   0  0  0  0  0  0
   -3.4910   -4.2875   15.8704 H   0  0  0  0  0  0
   -4.4460   -4.5743   13.6284 H   0  0  0  0  0  0
   -3.9423   -4.0028   18.0580 H   0  0  0  0  0  0
   -4.4627   -5.2952   12.2190 H   0  0  0  0  0  0
   -4.8877   -5.7755   10.5772 H   0  0  0  0  0  0
   -5.2280   -6.8735   11.9277 H   0  0  0  0  0  0
   -9.7393   -5.4597    7.0365 H   0  0  0  0  0  0
  1  2  2  0  0  0
  1  6  1  0  0  0
  1 19  1  0  0  0
  2  3  1  0  0  0
  2 18  1  0  0  0
  3  4  2  0  0  0
  3 20  1  0  0  0
  4  5  1  0  0  0
  4 21  1  0  0  0
  5  6  2  0  0  0
  5  7  1  0  0  0
  6  9  1  0  0  0
  7  8  1  0  0  0
  7 22  1  0  0  0
  8  9  2  0  0  0
  8 10  1  0  0  0
  9 17  1  0  0  0
 10 11  2  0  0  0
 10 15  1  0  0  0
 11 12  1  0  0  0
 11 23  1  0  0  0
 12 13  2  0  0  0
 12 24  1  0  0  0
 13 14  1  0  0  0
 13 16  1  0  0  0
 14 15  2  0  0  0
 14 25  1  0  0  0
 15 26  1  0  0  0
 16 27  1  0  0  0
 17 28  1  0  0  0
 17 29  1  0  0  0
 17 30  1  0  0  0
 18 31  1  0  0  0
M  END
>  <Name>
lit-392

>  <Family>
C.2

>  <RBA>
0.060000

>  <RBA_avg>
0.060000

>  <Method>
RUC

>  <set>
1

$$$$
lit-393
  Cerius2 12180216413D 1   1.00000                          
 Structure written by MMmdl.
 37 39  0  0  0  0  0  0  0  0999 V2000
   -7.6085   -5.5212    9.4793 C   0  0  0  0  0  0
   -8.7172   -5.2768    8.6676 C   0  0  0  0  0  0
   -9.8384   -4.6507    9.1918 C   0  0  0  0  0  0
   -9.8749   -4.2583   10.5319 C   0  0  0  0  0  0
   -8.7475   -4.4722   11.3547 C   0  0  0  0  0  0
   -7.6136   -5.1172   10.8345 C   0  0  0  0  0  0
   -8.4430   -4.1459   12.6710 N   0  0  0  0  0  0
   -7.1810   -4.6169   13.0042 C   0  0  0  0  0  0
   -6.6458   -5.2253   11.8788 C   0  0  0  0  0  0
   -6.5578   -4.4474   14.3177 C   0  0  0  0  0  0
   -7.3504   -4.3115   15.4635 C   0  0  0  0  0  0
   -6.7540   -4.1623   16.7178 C   0  0  0  0  0  0
   -5.3673   -4.1565   16.8240 C   0  0  0  0  0  0
   -4.5649   -4.2995   15.6966 C   0  0  0  0  0  0
   -5.1625   -4.4484   14.4420 C   0  0  0  0  0  0
   -4.8213   -4.0093   18.0651 O   0  0  0  0  0  0
   -5.2957   -5.8516   11.7707 C   0  0  0  0  0  0
  -11.0548   -3.6866   10.9488 O   0  0  0  0  0  0
   -9.2757   -3.3497   13.5673 C   0  0  0  0  0  0
  -10.1925   -4.1990   14.4328 C   0  0  0  0  0  0
   -6.7370   -6.0184    9.0572 H   0  0  0  0  0  0
   -8.7030   -5.5852    7.6238 H   0  0  0  0  0  0
  -10.7027   -4.4773    8.5528 H   0  0  0  0  0  0
   -8.4362   -4.3210   15.3864 H   0  0  0  0  0  0
   -7.3752   -4.0539   17.6037 H   0  0  0  0  0  0
   -3.4802   -4.2996   15.7726 H   0  0  0  0  0  0
   -4.5323   -4.5645   13.5617 H   0  0  0  0  0  0
   -3.8442   -4.0268   17.9771 H   0  0  0  0  0  0
   -4.5382   -5.0828   11.5879 H   0  0  0  0  0  0
   -5.2552   -6.5753   10.9509 H   0  0  0  0  0  0
   -5.0333   -6.3855   12.6897 H   0  0  0  0  0  0
  -11.1680   -3.8848   11.8971 H   0  0  0  0  0  0
   -9.8468   -2.6402   12.9616 H   0  0  0  0  0  0
   -8.6206   -2.7384   14.1961 H   0  0  0  0  0  0
  -10.8340   -3.5576   15.0450 H   0  0  0  0  0  0
   -9.6208   -4.8435   15.1068 H   0  0  0  0  0  0
  -10.8339   -4.8468   13.8275 H   0  0  0  0  0  0
  1  2  2  0  0  0
  1  6  1  0  0  0
  1 21  1  0  0  0
  2  3  1  0  0  0
  2 22  1  0  0  0
  3  4  2  0  0  0
  3 23  1  0  0  0
  4  5  1  0  0  0
  4 18  1  0  0  0
  5  6  2  0  0  0
  5  7  1  0  0  0
  6  9  1  0  0  0
  7  8  1  0  0  0
  7 19  1  0  0  0
  8  9  2  0  0  0
  8 10  1  0  0  0
  9 17  1  0  0  0
 10 11  2  0  0  0
 10 15  1  0  0  0
 11 12  1  0  0  0
 11 24  1  0  0  0
 12 13  2  0  0  0
 12 25  1  0  0  0
 13 14  1  0  0  0
 13 16  1  0  0  0
 14 15  2  0  0  0
 14 26  1  0  0  0
 15 27  1  0  0  0
 16 28  1  0  0  0
 17 29  1  0  0  0
 17 30  1  0  0  0
 17 31  1  0  0  0
 18 32  1  0  0  0
 19 20  1  0  0  0
 19 33  1  0  0  0
 19 34  1  0  0  0
 20 35  1  0  0  0
 20 36  1  0  0  0
 20 37  1  0  0  0
M  END
>  <Name>
lit-393

>  <Family>
C.2

>  <RBA>
0.020000

>  <RBA_avg>
0.020000

>  <Method>
RUC

>  <set>
1

$$$$
lit-394
  Cerius2 12180216413D 1   1.00000                          
 Structure written by MMmdl.
 28 30  0  0  0  0  0  0  0  0999 V2000
   -7.5857   -5.5655    9.4186 C   0  0  0  0  0  0
   -8.7252   -5.3119    8.6451 C   0  0  0  0  0  0
   -9.8168   -4.6545    9.2000 C   0  0  0  0  0  0
   -9.8221   -4.2268   10.5287 C   0  0  0  0  0  0
   -8.6711   -4.4895   11.2849 C   0  0  0  0  0  0
   -7.5599   -5.1464   10.7633 C   0  0  0  0  0  0
   -8.3870   -4.1938   12.6008 N   0  0  0  0  0  0
   -7.1238   -4.6346   12.9459 C   0  0  0  0  0  0
   -6.6024   -5.2351   11.8098 C   0  0  0  0  0  0
   -6.5479   -4.4668   14.2859 C   0  0  0  0  0  0
   -7.3626   -4.3115   15.4182 C   0  0  0  0  0  0
   -6.8008   -4.1499   16.6894 C   0  0  0  0  0  0
   -5.4199   -4.1413   16.8369 C   0  0  0  0  0  0
   -4.5901   -4.2905   15.7330 C   0  0  0  0  0  0
   -5.1551   -4.4510   14.4627 C   0  0  0  0  0  0
   -4.9091   -3.9817   18.0906 O   0  0  0  0  0  0
  -10.8995   -4.4366    8.3952 O   0  0  0  0  0  0
   -6.7332   -6.0810    8.9816 H   0  0  0  0  0  0
   -8.7498   -5.6339    7.6060 H   0  0  0  0  0  0
  -10.6728   -3.7129   10.9662 H   0  0  0  0  0  0
   -9.0313   -3.7287   13.2283 H   0  0  0  0  0  0
   -5.6214   -5.6894   11.7309 H   0  0  0  0  0  0
   -8.4475   -4.2986   15.3319 H   0  0  0  0  0  0
   -7.4480   -4.0284   17.5551 H   0  0  0  0  0  0
   -3.5077   -4.2860   15.8365 H   0  0  0  0  0  0
   -4.4864   -4.5740   13.6120 H   0  0  0  0  0  0
   -3.9297   -3.9962   18.0298 H   0  0  0  0  0  0
  -11.5839   -3.9676    8.9192 H   0  0  0  0  0  0
  1  2  2  0  0  0
  1  6  1  0  0  0
  1 18  1  0  0  0
  2  3  1  0  0  0
  2 19  1  0  0  0
  3  4  2  0  0  0
  3 17  1  0  0  0
  4  5  1  0  0  0
  4 20  1  0  0  0
  5  6  2  0  0  0
  5  7  1  0  0  0
  6  9  1  0  0  0
  7  8  1  0  0  0
  7 21  1  0  0  0
  8  9  2  0  0  0
  8 10  1  0  0  0
  9 22  1  0  0  0
 10 11  2  0  0  0
 10 15  1  0  0  0
 11 12  1  0  0  0
 11 23  1  0  0  0
 12 13  2  0  0  0
 12 24  1  0  0  0
 13 14  1  0  0  0
 13 16  1  0  0  0
 14 15  2  0  0  0
 14 25  1  0  0  0
 15 26  1  0  0  0
 16 27  1  0  0  0
 17 28  1  0  0  0
M  END
>  <Name>
lit-394

>  <Family>
C.2

>  <RBA>
0.010000

>  <RBA_avg>
0.010000

>  <Method>
RUC

>  <set>
2

$$$$
lit-395
  Cerius2 12180216413D 1   1.00000                          
 Structure written by MMmdl.
 28 30  0  0  0  0  0  0  0  0999 V2000
   -7.6246   -5.5337    9.4391 C   0  0  0  0  0  0
   -8.7779   -5.2830    8.6931 C   0  0  0  0  0  0
   -9.8808   -4.6446    9.2499 C   0  0  0  0  0  0
   -9.8611   -4.2329   10.5869 C   0  0  0  0  0  0
   -8.6997   -4.4873   11.3276 C   0  0  0  0  0  0
   -7.5873   -5.1260   10.7867 C   0  0  0  0  0  0
   -8.4038   -4.1993   12.6423 N   0  0  0  0  0  0
   -7.1313   -4.6277   12.9689 C   0  0  0  0  0  0
   -6.6162   -5.2120   11.8214 C   0  0  0  0  0  0
   -6.5419   -4.4646   14.3037 C   0  0  0  0  0  0
   -7.3449   -4.3108   15.4445 C   0  0  0  0  0  0
   -6.7702   -4.1547   16.7106 C   0  0  0  0  0  0
   -5.3880   -4.1501   16.8445 C   0  0  0  0  0  0
   -4.5695   -4.2973   15.7321 C   0  0  0  0  0  0
   -5.1473   -4.4525   14.4668 C   0  0  0  0  0  0
   -4.8643   -3.9961   18.0936 O   0  0  0  0  0  0
   -8.7868   -5.6890    7.3887 O   0  0  0  0  0  0
   -6.7720   -6.0345    8.9883 H   0  0  0  0  0  0
  -10.7740   -4.4555    8.6573 H   0  0  0  0  0  0
  -10.7192   -3.7333   11.0299 H   0  0  0  0  0  0
   -9.0467   -3.7475   13.2810 H   0  0  0  0  0  0
   -5.6310   -5.6540   11.7270 H   0  0  0  0  0  0
   -8.4305   -4.2952   15.3691 H   0  0  0  0  0  0
   -7.4085   -4.0345   17.5830 H   0  0  0  0  0  0
   -3.4860   -4.2959   15.8248 H   0  0  0  0  0  0
   -4.4872   -4.5742   13.6093 H   0  0  0  0  0  0
   -3.8857   -4.0137   18.0233 H   0  0  0  0  0  0
   -9.6531   -5.4484    6.9954 H   0  0  0  0  0  0
  1  2  2  0  0  0
  1  6  1  0  0  0
  1 18  1  0  0  0
  2  3  1  0  0  0
  2 17  1  0  0  0
  3  4  2  0  0  0
  3 19  1  0  0  0
  4  5  1  0  0  0
  4 20  1  0  0  0
  5  6  2  0  0  0
  5  7  1  0  0  0
  6  9  1  0  0  0
  7  8  1  0  0  0
  7 21  1  0  0  0
  8  9  2  0  0  0
  8 10  1  0  0  0
  9 22  1  0  0  0
 10 11  2  0  0  0
 10 15  1  0  0  0
 11 12  1  0  0  0
 11 23  1  0  0  0
 12 13  2  0  0  0
 12 24  1  0  0  0
 13 14  1  0  0  0
 13 16  1  0  0  0
 14 15  2  0  0  0
 14 25  1  0  0  0
 15 26  1  0  0  0
 16 27  1  0  0  0
 17 28  1  0  0  0
M  END
>  <Name>
lit-395

>  <Family>
C.2

>  <RBA>
0.010000

>  <RBA_avg>
0.010000

>  <Method>
RUC

>  <set>
0

$$$$
